MODEL 1
REMARK VINA RESULT:      -7.9      0.000      0.000
REMARK  Name = 
REMARK  3 active torsions:
REMARK  status: ('A' for Active; 'I' for Inactive)
REMARK    1  A    between atoms: C_1  and  C_2
REMARK    2  A    between atoms: C_7  and  N_8
REMARK    3  A    between atoms: N_11  and  C_12
REMARK                            x       y       z     vdW  Elec       q    Type
REMARK                         _______ _______ _______ _____ _____    ______ ____
ROOT
ATOM      1  C   UNL     1       7.650   4.667  17.713  0.00  0.00    +0.000 C 
ATOM      2  C   UNL     1       6.132   4.578  17.563  0.00  0.00    +0.000 C 
ATOM      3  C   UNL     1       5.523   5.992  17.573  0.00  0.00    +0.000 C 
ATOM      4  O   UNL     1       4.113   5.995  17.297  0.00  0.00    +0.000 OA
ATOM      5  C   UNL     1       3.384   5.962  18.453  0.00  0.00    +0.000 A 
ATOM      6  C   UNL     1       2.718   7.129  18.834  0.00  0.00    +0.000 A 
ATOM      7  C   UNL     1       1.943   7.185  20.005  0.00  0.00    +0.000 A 
ATOM      8  C   UNL     1       1.854   6.023  20.783  0.00  0.00    +0.000 A 
ATOM      9  C   UNL     1       2.494   4.840  20.398  0.00  0.00    +0.000 A 
ATOM     10  C   UNL     1       3.242   4.812  19.220  0.00  0.00    +0.000 A 
ATOM     11  S   UNL     1       4.009   3.323  18.695  0.00  0.00    +0.000 S 
ATOM     12  O   UNL     1       3.897   2.351  19.764  0.00  0.00    +0.000 OA
ATOM     13  O   UNL     1       3.596   3.005  17.348  0.00  0.00    +0.000 OA
ATOM     14  N   UNL     1       5.629   3.761  18.684  0.00  0.00    +0.000 NA
ATOM     15  H   UNL     1       6.222   3.039  19.090  0.00  0.00    +0.000 HD
ENDROOT
BRANCH   7  16
ATOM     16  N   UNL     1       1.259   8.355  20.306  0.00  0.00    +0.000 N 
ATOM     17  C   UNL     1       1.274   8.898  21.674  0.00  0.00    +0.000 C 
ATOM     18  C   UNL     1       0.048   9.826  21.857  0.00  0.00    +0.000 C 
ATOM     19  N   UNL     1      -0.009  10.920  20.857  0.00  0.00    +0.000 NA
ATOM     20  C   UNL     1      -1.244  11.687  21.019  0.00  0.00    +0.000 C 
ATOM     21  C   UNL     1       0.066  10.351  19.491  0.00  0.00    +0.000 C 
ATOM     22  C   UNL     1       1.283   9.419  19.283  0.00  0.00    +0.000 C 
ENDBRANCH   7  16
TORSDOF 1
ENDMDL
MODEL 2
REMARK VINA RESULT:      -7.8      0.461      1.120
REMARK  Name = 
REMARK  3 active torsions:
REMARK  status: ('A' for Active; 'I' for Inactive)
REMARK    1  A    between atoms: C_1  and  C_2
REMARK    2  A    between atoms: C_7  and  N_8
REMARK    3  A    between atoms: N_11  and  C_12
REMARK                            x       y       z     vdW  Elec       q    Type
REMARK                         _______ _______ _______ _____ _____    ______ ____
ROOT
ATOM      1  C   UNL     1       7.624   4.628  17.698  0.00  0.00    +0.000 C 
ATOM      2  C   UNL     1       6.106   4.598  17.535  0.00  0.00    +0.000 C 
ATOM      3  C   UNL     1       5.552   6.036  17.548  0.00  0.00    +0.000 C 
ATOM      4  O   UNL     1       4.145   6.094  17.259  0.00  0.00    +0.000 OA
ATOM      5  C   UNL     1       3.406   6.084  18.409  0.00  0.00    +0.000 A 
ATOM      6  C   UNL     1       2.783   7.275  18.790  0.00  0.00    +0.000 A 
ATOM      7  C   UNL     1       1.999   7.355  19.955  0.00  0.00    +0.000 A 
ATOM      8  C   UNL     1       1.859   6.194  20.726  0.00  0.00    +0.000 A 
ATOM      9  C   UNL     1       2.456   4.989  20.340  0.00  0.00    +0.000 A 
ATOM     10  C   UNL     1       3.213   4.937  19.168  0.00  0.00    +0.000 A 
ATOM     11  S   UNL     1       3.926   3.422  18.642  0.00  0.00    +0.000 S 
ATOM     12  O   UNL     1       3.767   2.449  19.705  0.00  0.00    +0.000 OA
ATOM     13  O   UNL     1       3.513   3.127  17.290  0.00  0.00    +0.000 OA
ATOM     14  N   UNL     1       5.562   3.797  18.647  0.00  0.00    +0.000 NA
ATOM     15  H   UNL     1       6.123   3.050  19.055  0.00  0.00    +0.000 HD
ENDROOT
BRANCH   7  16
ATOM     16  N   UNL     1       1.359   8.549  20.255  0.00  0.00    +0.000 N 
ATOM     17  C   UNL     1       1.065   9.525  19.194  0.00  0.00    +0.000 C 
ATOM     18  C   UNL     1       0.882  10.923  19.835  0.00  0.00    +0.000 C 
ATOM     19  N   UNL     1      -0.169  10.950  20.882  0.00  0.00    +0.000 NA
ATOM     20  C   UNL     1      -0.210  12.265  21.521  0.00  0.00    +0.000 C 
ATOM     21  C   UNL     1       0.105   9.900  21.891  0.00  0.00    +0.000 C 
ATOM     22  C   UNL     1       0.292   8.493  21.273  0.00  0.00    +0.000 C 
ENDBRANCH   7  16
TORSDOF 1
ENDMDL
MODEL 3
REMARK VINA RESULT:      -7.7      1.789      2.735
REMARK  Name = 
REMARK  3 active torsions:
REMARK  status: ('A' for Active; 'I' for Inactive)
REMARK    1  A    between atoms: C_1  and  C_2
REMARK    2  A    between atoms: C_7  and  N_8
REMARK    3  A    between atoms: N_11  and  C_12
REMARK                            x       y       z     vdW  Elec       q    Type
REMARK                         _______ _______ _______ _____ _____    ______ ____
ROOT
ATOM      1  C   UNL     1       3.309   1.335  18.533  0.00  0.00    +0.000 C 
ATOM      2  C   UNL     1       3.941   2.647  18.997  0.00  0.00    +0.000 C 
ATOM      3  C   UNL     1       2.875   3.528  19.675  0.00  0.00    +0.000 C 
ATOM      4  O   UNL     1       3.426   4.719  20.261  0.00  0.00    +0.000 OA
ATOM      5  C   UNL     1       3.359   5.772  19.391  0.00  0.00    +0.000 A 
ATOM      6  C   UNL     1       2.425   6.775  19.658  0.00  0.00    +0.000 A 
ATOM      7  C   UNL     1       2.290   7.896  18.820  0.00  0.00    +0.000 A 
ATOM      8  C   UNL     1       3.131   7.978  17.702  0.00  0.00    +0.000 A 
ATOM      9  C   UNL     1       4.089   6.993  17.440  0.00  0.00    +0.000 A 
ATOM     10  C   UNL     1       4.210   5.902  18.301  0.00  0.00    +0.000 A 
ATOM     11  S   UNL     1       5.441   4.683  18.015  0.00  0.00    +0.000 S 
ATOM     12  O   UNL     1       6.034   4.930  16.716  0.00  0.00    +0.000 OA
ATOM     13  O   UNL     1       6.260   4.525  19.194  0.00  0.00    +0.000 OA
ATOM     14  N   UNL     1       4.510   3.303  17.804  0.00  0.00    +0.000 NA
ATOM     15  H   UNL     1       4.838   2.737  17.023  0.00  0.00    +0.000 HD
ENDROOT
BRANCH   7  16
ATOM     16  N   UNL     1       1.383   8.889  19.164  0.00  0.00    +0.000 N 
ATOM     17  C   UNL     1       1.034   9.124  20.574  0.00  0.00    +0.000 C 
ATOM     18  C   UNL     1      -0.335   9.845  20.638  0.00  0.00    +0.000 C 
ATOM     19  N   UNL     1      -0.362  11.114  19.870  0.00  0.00    +0.000 NA
ATOM     20  C   UNL     1      -1.710  11.681  19.880  0.00  0.00    +0.000 C 
ATOM     21  C   UNL     1       0.077  10.863  18.476  0.00  0.00    +0.000 C 
ATOM     22  C   UNL     1       1.444  10.143  18.388  0.00  0.00    +0.000 C 
ENDBRANCH   7  16
TORSDOF 1
ENDMDL
MODEL 4
REMARK VINA RESULT:      -7.6      2.334      3.389
REMARK  Name = 
REMARK  3 active torsions:
REMARK  status: ('A' for Active; 'I' for Inactive)
REMARK    1  A    between atoms: C_1  and  C_2
REMARK    2  A    between atoms: C_7  and  N_8
REMARK    3  A    between atoms: N_11  and  C_12
REMARK                            x       y       z     vdW  Elec       q    Type
REMARK                         _______ _______ _______ _____ _____    ______ ____
ROOT
ATOM      1  C   UNL     1       0.882   2.207  18.848  0.00  0.00    +0.000 C 
ATOM      2  C   UNL     1       1.825   3.288  19.374  0.00  0.00    +0.000 C 
ATOM      3  C   UNL     1       1.100   4.144  20.429  0.00  0.00    +0.000 C 
ATOM      4  O   UNL     1       1.968   5.094  21.070  0.00  0.00    +0.000 OA
ATOM      5  C   UNL     1       1.919   6.307  20.441  0.00  0.00    +0.000 A 
ATOM      6  C   UNL     1       1.259   7.350  21.094  0.00  0.00    +0.000 A 
ATOM      7  C   UNL     1       1.165   8.632  20.524  0.00  0.00    +0.000 A 
ATOM      8  C   UNL     1       1.761   8.833  19.272  0.00  0.00    +0.000 A 
ATOM      9  C   UNL     1       2.448   7.803  18.621  0.00  0.00    +0.000 A 
ATOM     10  C   UNL     1       2.540   6.547  19.222  0.00  0.00    +0.000 A 
ATOM     11  S   UNL     1       3.442   5.258  18.443  0.00  0.00    +0.000 S 
ATOM     12  O   UNL     1       3.794   5.692  17.105  0.00  0.00    +0.000 OA
ATOM     13  O   UNL     1       4.440   4.740  19.348  0.00  0.00    +0.000 OA
ATOM     14  N   UNL     1       2.250   4.098  18.216  0.00  0.00    +0.000 NA
ATOM     15  H   UNL     1       2.303   3.672  17.292  0.00  0.00    +0.000 HD
ENDROOT
BRANCH   7  16
ATOM     16  N   UNL     1       0.544   9.645  21.242  0.00  0.00    +0.000 N 
ATOM     17  C   UNL     1       0.316   9.501  22.689  0.00  0.00    +0.000 C 
ATOM     18  C   UNL     1      -0.829  10.453  23.112  0.00  0.00    +0.000 C 
ATOM     19  N   UNL     1      -0.569  11.870  22.759  0.00  0.00    +0.000 NA
ATOM     20  C   UNL     1      -1.734  12.693  23.084  0.00  0.00    +0.000 C 
ATOM     21  C   UNL     1      -0.258  11.974  21.313  0.00  0.00    +0.000 C 
ATOM     22  C   UNL     1       0.885  11.031  20.866  0.00  0.00    +0.000 C 
ENDBRANCH   7  16
TORSDOF 1
ENDMDL
MODEL 5
REMARK VINA RESULT:      -7.4      1.782      2.940
REMARK  Name = 
REMARK  3 active torsions:
REMARK  status: ('A' for Active; 'I' for Inactive)
REMARK    1  A    between atoms: C_1  and  C_2
REMARK    2  A    between atoms: C_7  and  N_8
REMARK    3  A    between atoms: N_11  and  C_12
REMARK                            x       y       z     vdW  Elec       q    Type
REMARK                         _______ _______ _______ _____ _____    ______ ____
ROOT
ATOM      1  C   UNL     1       3.136   1.390  18.603  0.00  0.00    +0.000 C 
ATOM      2  C   UNL     1       3.817   2.687  19.037  0.00  0.00    +0.000 C 
ATOM      3  C   UNL     1       2.793   3.607  19.728  0.00  0.00    +0.000 C 
ATOM      4  O   UNL     1       3.392   4.788  20.287  0.00  0.00    +0.000 OA
ATOM      5  C   UNL     1       3.336   5.832  19.406  0.00  0.00    +0.000 A 
ATOM      6  C   UNL     1       2.438   6.866  19.682  0.00  0.00    +0.000 A 
ATOM      7  C   UNL     1       2.318   7.981  18.834  0.00  0.00    +0.000 A 
ATOM      8  C   UNL     1       3.135   8.025  17.697  0.00  0.00    +0.000 A 
ATOM      9  C   UNL     1       4.058   7.009  17.425  0.00  0.00    +0.000 A 
ATOM     10  C   UNL     1       4.166   5.924  18.296  0.00  0.00    +0.000 A 
ATOM     11  S   UNL     1       5.354   4.666  17.999  0.00  0.00    +0.000 S 
ATOM     12  O   UNL     1       5.925   4.881  16.683  0.00  0.00    +0.000 OA
ATOM     13  O   UNL     1       6.194   4.498  19.161  0.00  0.00    +0.000 OA
ATOM     14  N   UNL     1       4.378   3.313  17.825  0.00  0.00    +0.000 NA
ATOM     15  H   UNL     1       4.672   2.728  17.043  0.00  0.00    +0.000 HD
ENDROOT
BRANCH   7  16
ATOM     16  N   UNL     1       1.448   9.004  19.186  0.00  0.00    +0.000 N 
ATOM     17  C   UNL     1       0.537   9.585  18.187  0.00  0.00    +0.000 C 
ATOM     18  C   UNL     1       0.114  10.998  18.657  0.00  0.00    +0.000 C 
ATOM     19  N   UNL     1      -0.509  11.002  20.004  0.00  0.00    +0.000 NA
ATOM     20  C   UNL     1      -0.779  12.375  20.430  0.00  0.00    +0.000 C 
ATOM     21  C   UNL     1       0.393  10.334  20.972  0.00  0.00    +0.000 C 
ATOM     22  C   UNL     1       0.829   8.919  20.523  0.00  0.00    +0.000 C 
ENDBRANCH   7  16
TORSDOF 1
ENDMDL
MODEL 6
REMARK VINA RESULT:      -7.4      1.941      2.979
REMARK  Name = 
REMARK  3 active torsions:
REMARK  status: ('A' for Active; 'I' for Inactive)
REMARK    1  A    between atoms: C_1  and  C_2
REMARK    2  A    between atoms: C_7  and  N_8
REMARK    3  A    between atoms: N_11  and  C_12
REMARK                            x       y       z     vdW  Elec       q    Type
REMARK                         _______ _______ _______ _____ _____    ______ ____
ROOT
ATOM      1  C   UNL     1       2.949   1.949  17.943  0.00  0.00    +0.000 C 
ATOM      2  C   UNL     1       3.620   3.235  18.424  0.00  0.00    +0.000 C 
ATOM      3  C   UNL     1       2.754   3.899  19.511  0.00  0.00    +0.000 C 
ATOM      4  O   UNL     1       3.390   5.040  20.110  0.00  0.00    +0.000 OA
ATOM      5  C   UNL     1       3.018   6.197  19.483  0.00  0.00    +0.000 A 
ATOM      6  C   UNL     1       2.151   7.055  20.165  0.00  0.00    +0.000 A 
ATOM      7  C   UNL     1       1.720   8.267  19.598  0.00  0.00    +0.000 A 
ATOM      8  C   UNL     1       2.193   8.593  18.320  0.00  0.00    +0.000 A 
ATOM      9  C   UNL     1       3.083   7.755  17.640  0.00  0.00    +0.000 A 
ATOM     10  C   UNL     1       3.506   6.567  18.237  0.00  0.00    +0.000 A 
ATOM     11  S   UNL     1       4.662   5.529  17.419  0.00  0.00    +0.000 S 
ATOM     12  O   UNL     1       4.837   6.019  16.066  0.00  0.00    +0.000 OA
ATOM     13  O   UNL     1       5.796   5.282  18.278  0.00  0.00    +0.000 OA
ATOM     14  N   UNL     1       3.782   4.110  17.248  0.00  0.00    +0.000 NA
ATOM     15  H   UNL     1       3.897   3.699  16.323  0.00  0.00    +0.000 HD
ENDROOT
BRANCH   7  16
ATOM     16  N   UNL     1       0.903   9.106  20.343  0.00  0.00    +0.000 N 
ATOM     17  C   UNL     1       0.018  10.073  19.674  0.00  0.00    +0.000 C 
ATOM     18  C   UNL     1      -0.334  11.203  20.672  0.00  0.00    +0.000 C 
ATOM     19  N   UNL     1      -0.952  10.703  21.924  0.00  0.00    +0.000 NA
ATOM     20  C   UNL     1      -1.154  11.807  22.863  0.00  0.00    +0.000 C 
ATOM     21  C   UNL     1      -0.081   9.668  22.532  0.00  0.00    +0.000 C 
ATOM     22  C   UNL     1       0.284   8.527  21.552  0.00  0.00    +0.000 C 
ENDBRANCH   7  16
TORSDOF 1
ENDMDL
MODEL 7
REMARK VINA RESULT:      -7.3      2.063      2.949
REMARK  Name = 
REMARK  3 active torsions:
REMARK  status: ('A' for Active; 'I' for Inactive)
REMARK    1  A    between atoms: C_1  and  C_2
REMARK    2  A    between atoms: C_7  and  N_8
REMARK    3  A    between atoms: N_11  and  C_12
REMARK                            x       y       z     vdW  Elec       q    Type
REMARK                         _______ _______ _______ _____ _____    ______ ____
ROOT
ATOM      1  C   UNL     1       2.309   2.131  17.823  0.00  0.00    +0.000 C 
ATOM      2  C   UNL     1       3.072   3.324  18.397  0.00  0.00    +0.000 C 
ATOM      3  C   UNL     1       2.264   3.956  19.546  0.00  0.00    +0.000 C 
ATOM      4  O   UNL     1       2.983   4.998  20.227  0.00  0.00    +0.000 OA
ATOM      5  C   UNL     1       2.688   6.225  19.700  0.00  0.00    +0.000 A 
ATOM      6  C   UNL     1       1.889   7.082  20.461  0.00  0.00    +0.000 A 
ATOM      7  C   UNL     1       1.539   8.364  19.999  0.00  0.00    +0.000 A 
ATOM      8  C   UNL     1       2.023   8.759  18.746  0.00  0.00    +0.000 A 
ATOM      9  C   UNL     1       2.847   7.919  17.987  0.00  0.00    +0.000 A 
ATOM     10  C   UNL     1       3.191   6.660  18.481  0.00  0.00    +0.000 A 
ATOM     11  S   UNL     1       4.264   5.615  17.566  0.00  0.00    +0.000 S 
ATOM     12  O   UNL     1       4.462   6.201  16.254  0.00  0.00    +0.000 OA
ATOM     13  O   UNL     1       5.385   5.221  18.387  0.00  0.00    +0.000 OA
ATOM     14  N   UNL     1       3.286   4.279  17.293  0.00  0.00    +0.000 NA
ATOM     15  H   UNL     1       3.364   3.937  16.337  0.00  0.00    +0.000 HD
ENDROOT
BRANCH   7  16
ATOM     16  N   UNL     1       0.788   9.193  20.821  0.00  0.00    +0.000 N 
ATOM     17  C   UNL     1       0.928   9.119  22.284  0.00  0.00    +0.000 C 
ATOM     18  C   UNL     1      -0.349   9.700  22.939  0.00  0.00    +0.000 C 
ATOM     19  N   UNL     1      -0.644  11.088  22.508  0.00  0.00    +0.000 NA
ATOM     20  C   UNL     1      -1.918  11.532  23.075  0.00  0.00    +0.000 C 
ATOM     21  C   UNL     1      -0.694  11.151  21.028  0.00  0.00    +0.000 C 
ATOM     22  C   UNL     1       0.573  10.575  20.350  0.00  0.00    +0.000 C 
ENDBRANCH   7  16
TORSDOF 1
ENDMDL
MODEL 8
REMARK VINA RESULT:      -7.3      2.239      3.433
REMARK  Name = 
REMARK  3 active torsions:
REMARK  status: ('A' for Active; 'I' for Inactive)
REMARK    1  A    between atoms: C_1  and  C_2
REMARK    2  A    between atoms: C_7  and  N_8
REMARK    3  A    between atoms: N_11  and  C_12
REMARK                            x       y       z     vdW  Elec       q    Type
REMARK                         _______ _______ _______ _____ _____    ______ ____
ROOT
ATOM      1  C   UNL     1       1.257   2.139  18.923  0.00  0.00    +0.000 C 
ATOM      2  C   UNL     1       2.125   3.301  19.403  0.00  0.00    +0.000 C 
ATOM      3  C   UNL     1       1.325   4.179  20.384  0.00  0.00    +0.000 C 
ATOM      4  O   UNL     1       2.122   5.213  20.985  0.00  0.00    +0.000 OA
ATOM      5  C   UNL     1       2.027   6.380  20.279  0.00  0.00    +0.000 A 
ATOM      6  C   UNL     1       1.294   7.424  20.848  0.00  0.00    +0.000 A 
ATOM      7  C   UNL     1       1.148   8.661  20.195  0.00  0.00    +0.000 A 
ATOM      8  C   UNL     1       1.768   8.817  18.949  0.00  0.00    +0.000 A 
ATOM      9  C   UNL     1       2.528   7.788  18.382  0.00  0.00    +0.000 A 
ATOM     10  C   UNL     1       2.669   6.578  19.063  0.00  0.00    +0.000 A 
ATOM     11  S   UNL     1       3.661   5.295  18.391  0.00  0.00    +0.000 S 
ATOM     12  O   UNL     1       4.027   5.664  17.038  0.00  0.00    +0.000 OA
ATOM     13  O   UNL     1       4.659   4.889  19.352  0.00  0.00    +0.000 OA
ATOM     14  N   UNL     1       2.540   4.060  18.208  0.00  0.00    +0.000 NA
ATOM     15  H   UNL     1       2.642   3.581  17.315  0.00  0.00    +0.000 HD
ENDROOT
BRANCH   7  16
ATOM     16  N   UNL     1       0.454   9.681  20.833  0.00  0.00    +0.000 N 
ATOM     17  C   UNL     1      -0.158  10.768  20.051  0.00  0.00    +0.000 C 
ATOM     18  C   UNL     1      -0.360  11.994  20.974  0.00  0.00    +0.000 C 
ATOM     19  N   UNL     1      -1.172  11.690  22.178  0.00  0.00    +0.000 NA
ATOM     20  C   UNL     1      -1.228  12.858  23.057  0.00  0.00    +0.000 C 
ATOM     21  C   UNL     1      -0.582  10.536  22.899  0.00  0.00    +0.000 C 
ATOM     22  C   UNL     1      -0.370   9.297  21.996  0.00  0.00    +0.000 C 
ENDBRANCH   7  16
TORSDOF 1
ENDMDL
MODEL 9
REMARK VINA RESULT:      -7.0      2.124      3.160
REMARK  Name = 
REMARK  3 active torsions:
REMARK  status: ('A' for Active; 'I' for Inactive)
REMARK    1  A    between atoms: C_1  and  C_2
REMARK    2  A    between atoms: C_7  and  N_8
REMARK    3  A    between atoms: N_11  and  C_12
REMARK                            x       y       z     vdW  Elec       q    Type
REMARK                         _______ _______ _______ _____ _____    ______ ____
ROOT
ATOM      1  C   UNL     1       1.394   2.235  19.054  0.00  0.00    +0.000 C 
ATOM      2  C   UNL     1       2.293   3.419  19.409  0.00  0.00    +0.000 C 
ATOM      3  C   UNL     1       1.489   4.464  20.204  0.00  0.00    +0.000 C 
ATOM      4  O   UNL     1       2.304   5.542  20.693  0.00  0.00    +0.000 OA
ATOM      5  C   UNL     1       2.302   6.595  19.822  0.00  0.00    +0.000 A 
ATOM      6  C   UNL     1       1.594   7.741  20.190  0.00  0.00    +0.000 A 
ATOM      7  C   UNL     1       1.541   8.873  19.358  0.00  0.00    +0.000 A 
ATOM      8  C   UNL     1       2.230   8.817  18.139  0.00  0.00    +0.000 A 
ATOM      9  C   UNL     1       2.966   7.685  17.772  0.00  0.00    +0.000 A 
ATOM     10  C   UNL     1       3.013   6.585  18.628  0.00  0.00    +0.000 A 
ATOM     11  S   UNL     1       3.973   5.177  18.207  0.00  0.00    +0.000 S 
ATOM     12  O   UNL     1       4.425   5.326  16.837  0.00  0.00    +0.000 OA
ATOM     13  O   UNL     1       4.901   4.877  19.272  0.00  0.00    +0.000 OA
ATOM     14  N   UNL     1       2.804   3.975  18.142  0.00  0.00    +0.000 NA
ATOM     15  H   UNL     1       2.927   3.366  17.335  0.00  0.00    +0.000 HD
ENDROOT
BRANCH   7  16
ATOM     16  N   UNL     1       0.867  10.003  19.799  0.00  0.00    +0.000 N 
ATOM     17  C   UNL     1       0.670  10.239  21.239  0.00  0.00    +0.000 C 
ATOM     18  C   UNL     1      -0.528  11.201  21.429  0.00  0.00    +0.000 C 
ATOM     19  N   UNL     1      -0.367  12.484  20.702  0.00  0.00    +0.000 NA
ATOM     20  C   UNL     1      -1.578  13.294  20.833  0.00  0.00    +0.000 C 
ATOM     21  C   UNL     1      -0.084  12.215  19.272  0.00  0.00    +0.000 C 
ATOM     22  C   UNL     1       1.111  11.255  19.057  0.00  0.00    +0.000 C 
ENDBRANCH   7  16
TORSDOF 1
ENDMDL
