MODEL 1
REMARK VINA RESULT:      -6.6      0.000      0.000
REMARK  Name = 
REMARK  9 active torsions:
REMARK  status: ('A' for Active; 'I' for Inactive)
REMARK    1  A    between atoms: C_1  and  O_2
REMARK    2  A    between atoms: O_2  and  C_3
REMARK    3  A    between atoms: C_3  and  O_4
REMARK    4  A    between atoms: C_3  and  C_13
REMARK    5  A    between atoms: O_4  and  C_5
REMARK    6  A    between atoms: C_5  and  C_6
REMARK    7  A    between atoms: C_9  and  C_10
REMARK    8  A    between atoms: C_16  and  C_17
REMARK    9  A    between atoms: C_17  and  O_18
REMARK                            x       y       z     vdW  Elec       q    Type
REMARK                         _______ _______ _______ _____ _____    ______ ____
ROOT
ATOM      1  C   UNL     1       6.811   5.301  17.463  0.00  0.00    +0.000 C 
ENDROOT
BRANCH   1   2
ATOM      2  C   UNL     1       6.664   4.838  16.052  0.00  0.00    +0.000 A 
ATOM      3  C   UNL     1       5.855   3.879  15.474  0.00  0.00    +0.000 A 
ATOM      4  C   UNL     1       6.169   3.869  14.096  0.00  0.00    +0.000 A 
ATOM      5  C   UNL     1       7.145   4.825  13.909  0.00  0.00    +0.000 A 
ATOM      6  O   UNL     1       7.463   5.412  15.100  0.00  0.00    +0.000 OA
BRANCH   5   7
ATOM      7  C   UNL     1       7.856   5.311  12.704  0.00  0.00    +0.000 C 
BRANCH   7   8
ATOM      8  O   UNL     1       8.995   6.047  13.129  0.00  0.00    +0.000 OA
ATOM      9  H   UNL     1       9.548   6.160  12.336  0.00  0.00    +0.000 HD
ENDBRANCH   7   8
ENDBRANCH   5   7
ENDBRANCH   1   2
BRANCH   1  11
ATOM     10  C   UNL     1       7.866   7.354  18.053  0.00  0.00    +0.000 C 
ATOM     11  O   UNL     1       6.800   6.725  17.369  0.00  0.00    +0.000 OA
ENDBRANCH   1  11
BRANCH   1  12
ATOM     12  O   UNL     1       5.704   4.794  18.216  0.00  0.00    +0.000 OA
BRANCH  12  13
ATOM     13  C   UNL     1       4.620   5.727  18.245  0.00  0.00    +0.000 C 
BRANCH  13  14
ATOM     14  C   UNL     1       3.372   5.003  18.598  0.00  0.00    +0.000 A 
ATOM     15  C   UNL     1       2.303   4.508  17.878  0.00  0.00    +0.000 A 
ATOM     16  C   UNL     1       1.470   3.838  18.806  0.00  0.00    +0.000 A 
ATOM     17  C   UNL     1       2.073   3.959  20.039  0.00  0.00    +0.000 A 
ATOM     18  O   UNL     1       3.233   4.674  19.919  0.00  0.00    +0.000 OA
BRANCH  17  19
ATOM     19  C   UNL     1       1.699   3.471  21.343  0.00  0.00    +0.000 C 
ATOM     20  O   UNL     1       2.308   2.609  21.971  0.00  0.00    +0.000 OA
ENDBRANCH  17  19
ENDBRANCH  13  14
ENDBRANCH  12  13
ENDBRANCH   1  12
TORSDOF 8
ENDMDL
MODEL 2
REMARK VINA RESULT:      -6.4      1.364      3.396
REMARK  Name = 
REMARK  9 active torsions:
REMARK  status: ('A' for Active; 'I' for Inactive)
REMARK    1  A    between atoms: C_1  and  O_2
REMARK    2  A    between atoms: O_2  and  C_3
REMARK    3  A    between atoms: C_3  and  O_4
REMARK    4  A    between atoms: C_3  and  C_13
REMARK    5  A    between atoms: O_4  and  C_5
REMARK    6  A    between atoms: C_5  and  C_6
REMARK    7  A    between atoms: C_9  and  C_10
REMARK    8  A    between atoms: C_16  and  C_17
REMARK    9  A    between atoms: C_17  and  O_18
REMARK                            x       y       z     vdW  Elec       q    Type
REMARK                         _______ _______ _______ _____ _____    ______ ____
ROOT
ATOM      1  C   UNL     1       5.908   5.158  16.160  0.00  0.00    +0.000 C 
ENDROOT
BRANCH   1   2
ATOM      2  C   UNL     1       6.774   5.935  17.094  0.00  0.00    +0.000 A 
ATOM      3  C   UNL     1       7.484   5.565  18.220  0.00  0.00    +0.000 A 
ATOM      4  C   UNL     1       8.105   6.738  18.705  0.00  0.00    +0.000 A 
ATOM      5  C   UNL     1       7.745   7.755  17.847  0.00  0.00    +0.000 A 
ATOM      6  O   UNL     1       6.921   7.277  16.868  0.00  0.00    +0.000 OA
BRANCH   5   7
ATOM      7  C   UNL     1       8.093   9.194  17.794  0.00  0.00    +0.000 C 
BRANCH   7   8
ATOM      8  O   UNL     1       8.914   9.492  18.915  0.00  0.00    +0.000 OA
ATOM      9  H   UNL     1       9.122   8.635  19.326  0.00  0.00    +0.000 HD
ENDBRANCH   7   8
ENDBRANCH   5   7
ENDBRANCH   1   2
BRANCH   1  11
ATOM     10  C   UNL     1       6.279   3.918  14.159  0.00  0.00    +0.000 C 
ATOM     11  O   UNL     1       6.829   4.409  15.366  0.00  0.00    +0.000 OA
ENDBRANCH   1  11
BRANCH   1  12
ATOM     12  O   UNL     1       5.051   4.317  16.941  0.00  0.00    +0.000 OA
BRANCH  12  13
ATOM     13  C   UNL     1       3.860   5.006  17.334  0.00  0.00    +0.000 C 
BRANCH  13  14
ATOM     14  C   UNL     1       2.984   4.065  18.077  0.00  0.00    +0.000 A 
ATOM     15  C   UNL     1       2.303   2.910  17.745  0.00  0.00    +0.000 A 
ATOM     16  C   UNL     1       1.712   2.436  18.941  0.00  0.00    +0.000 A 
ATOM     17  C   UNL     1       2.062   3.323  19.935  0.00  0.00    +0.000 A 
ATOM     18  O   UNL     1       2.835   4.322  19.412  0.00  0.00    +0.000 OA
BRANCH  17  19
ATOM     19  C   UNL     1       1.768   3.349  21.346  0.00  0.00    +0.000 C 
ATOM     20  O   UNL     1       1.825   2.377  22.094  0.00  0.00    +0.000 OA
ENDBRANCH  17  19
ENDBRANCH  13  14
ENDBRANCH  12  13
ENDBRANCH   1  12
TORSDOF 8
ENDMDL
MODEL 3
REMARK VINA RESULT:      -6.4      1.562      3.417
REMARK  Name = 
REMARK  9 active torsions:
REMARK  status: ('A' for Active; 'I' for Inactive)
REMARK    1  A    between atoms: C_1  and  O_2
REMARK    2  A    between atoms: O_2  and  C_3
REMARK    3  A    between atoms: C_3  and  O_4
REMARK    4  A    between atoms: C_3  and  C_13
REMARK    5  A    between atoms: O_4  and  C_5
REMARK    6  A    between atoms: C_5  and  C_6
REMARK    7  A    between atoms: C_9  and  C_10
REMARK    8  A    between atoms: C_16  and  C_17
REMARK    9  A    between atoms: C_17  and  O_18
REMARK                            x       y       z     vdW  Elec       q    Type
REMARK                         _______ _______ _______ _____ _____    ______ ____
ROOT
ATOM      1  C   UNL     1       5.373   5.578  16.362  0.00  0.00    +0.000 C 
ENDROOT
BRANCH   1   2
ATOM      2  C   UNL     1       6.442   6.140  17.239  0.00  0.00    +0.000 A 
ATOM      3  C   UNL     1       7.186   5.583  18.262  0.00  0.00    +0.000 A 
ATOM      4  C   UNL     1       8.037   6.605  18.739  0.00  0.00    +0.000 A 
ATOM      5  C   UNL     1       7.771   7.724  17.980  0.00  0.00    +0.000 A 
ATOM      6  O   UNL     1       6.789   7.453  17.070  0.00  0.00    +0.000 OA
BRANCH   5   7
ATOM      7  C   UNL     1       8.346   9.088  17.967  0.00  0.00    +0.000 C 
BRANCH   7   8
ATOM      8  O   UNL     1       9.089   9.267  19.165  0.00  0.00    +0.000 OA
ATOM      9  H   UNL     1       8.610   8.768  19.850  0.00  0.00    +0.000 HD
ENDBRANCH   7   8
ENDBRANCH   5   7
ENDBRANCH   1   2
BRANCH   1  11
ATOM     10  C   UNL     1       6.741   4.621  14.662  0.00  0.00    +0.000 C 
ATOM     11  O   UNL     1       5.904   5.695  15.042  0.00  0.00    +0.000 OA
ENDBRANCH   1  11
BRANCH   1  12
ATOM     12  O   UNL     1       5.154   4.216  16.744  0.00  0.00    +0.000 OA
BRANCH  12  13
ATOM     13  C   UNL     1       3.758   3.903  16.784  0.00  0.00    +0.000 C 
BRANCH  13  14
ATOM     14  C   UNL     1       3.235   4.212  18.139  0.00  0.00    +0.000 A 
ATOM     15  C   UNL     1       2.595   5.296  18.705  0.00  0.00    +0.000 A 
ATOM     16  C   UNL     1       2.279   4.926  20.035  0.00  0.00    +0.000 A 
ATOM     17  C   UNL     1       2.741   3.640  20.209  0.00  0.00    +0.000 A 
ATOM     18  O   UNL     1       3.330   3.201  19.055  0.00  0.00    +0.000 OA
BRANCH  17  19
ATOM     19  C   UNL     1       2.691   2.746  21.338  0.00  0.00    +0.000 C 
ATOM     20  O   UNL     1       1.778   2.700  22.157  0.00  0.00    +0.000 OA
ENDBRANCH  17  19
ENDBRANCH  13  14
ENDBRANCH  12  13
ENDBRANCH   1  12
TORSDOF 8
ENDMDL
MODEL 4
REMARK VINA RESULT:      -6.3      1.346      1.689
REMARK  Name = 
REMARK  9 active torsions:
REMARK  status: ('A' for Active; 'I' for Inactive)
REMARK    1  A    between atoms: C_1  and  O_2
REMARK    2  A    between atoms: O_2  and  C_3
REMARK    3  A    between atoms: C_3  and  O_4
REMARK    4  A    between atoms: C_3  and  C_13
REMARK    5  A    between atoms: O_4  and  C_5
REMARK    6  A    between atoms: C_5  and  C_6
REMARK    7  A    between atoms: C_9  and  C_10
REMARK    8  A    between atoms: C_16  and  C_17
REMARK    9  A    between atoms: C_17  and  O_18
REMARK                            x       y       z     vdW  Elec       q    Type
REMARK                         _______ _______ _______ _____ _____    ______ ____
ROOT
ATOM      1  C   UNL     1       6.762   6.224  17.408  0.00  0.00    +0.000 C 
ENDROOT
BRANCH   1   2
ATOM      2  C   UNL     1       6.623   5.427  16.154  0.00  0.00    +0.000 A 
ATOM      3  C   UNL     1       5.816   4.354  15.826  0.00  0.00    +0.000 A 
ATOM      4  C   UNL     1       6.138   4.004  14.496  0.00  0.00    +0.000 A 
ATOM      5  C   UNL     1       7.118   4.883  14.085  0.00  0.00    +0.000 A 
ATOM      6  O   UNL     1       7.429   5.747  15.096  0.00  0.00    +0.000 OA
BRANCH   5   7
ATOM      7  C   UNL     1       7.837   5.055  12.802  0.00  0.00    +0.000 C 
BRANCH   7   8
ATOM      8  O   UNL     1       8.879   6.000  13.002  0.00  0.00    +0.000 OA
ATOM      9  H   UNL     1       9.687   5.477  13.143  0.00  0.00    +0.000 HD
ENDBRANCH   7   8
ENDBRANCH   5   7
ENDBRANCH   1   2
BRANCH   1  11
ATOM     10  C   UNL     1       8.002   8.199  17.900  0.00  0.00    +0.000 C 
ATOM     11  O   UNL     1       7.201   7.508  16.961  0.00  0.00    +0.000 OA
ENDBRANCH   1  11
BRANCH   1  12
ATOM     12  O   UNL     1       5.482   6.276  18.047  0.00  0.00    +0.000 OA
BRANCH  12  13
ATOM     13  C   UNL     1       5.476   5.526  19.266  0.00  0.00    +0.000 C 
BRANCH  13  14
ATOM     14  C   UNL     1       4.121   4.952  19.470  0.00  0.00    +0.000 A 
ATOM     15  C   UNL     1       2.994   5.352  20.160  0.00  0.00    +0.000 A 
ATOM     16  C   UNL     1       1.992   4.390  19.883  0.00  0.00    +0.000 A 
ATOM     17  C   UNL     1       2.559   3.458  19.042  0.00  0.00    +0.000 A 
ATOM     18  O   UNL     1       3.861   3.794  18.789  0.00  0.00    +0.000 OA
BRANCH  17  19
ATOM     19  C   UNL     1       2.023   2.273  18.420  0.00  0.00    +0.000 C 
ATOM     20  O   UNL     1       2.090   2.017  17.222  0.00  0.00    +0.000 OA
ENDBRANCH  17  19
ENDBRANCH  13  14
ENDBRANCH  12  13
ENDBRANCH   1  12
TORSDOF 8
ENDMDL
MODEL 5
REMARK VINA RESULT:      -6.3      1.668      3.502
REMARK  Name = 
REMARK  9 active torsions:
REMARK  status: ('A' for Active; 'I' for Inactive)
REMARK    1  A    between atoms: C_1  and  O_2
REMARK    2  A    between atoms: O_2  and  C_3
REMARK    3  A    between atoms: C_3  and  O_4
REMARK    4  A    between atoms: C_3  and  C_13
REMARK    5  A    between atoms: O_4  and  C_5
REMARK    6  A    between atoms: C_5  and  C_6
REMARK    7  A    between atoms: C_9  and  C_10
REMARK    8  A    between atoms: C_16  and  C_17
REMARK    9  A    between atoms: C_17  and  O_18
REMARK                            x       y       z     vdW  Elec       q    Type
REMARK                         _______ _______ _______ _____ _____    ______ ____
ROOT
ATOM      1  C   UNL     1       5.031   4.232  15.916  0.00  0.00    +0.000 C 
ENDROOT
BRANCH   1   2
ATOM      2  C   UNL     1       5.708   5.335  16.658  0.00  0.00    +0.000 A 
ATOM      3  C   UNL     1       5.550   6.707  16.622  0.00  0.00    +0.000 A 
ATOM      4  C   UNL     1       6.485   7.242  17.536  0.00  0.00    +0.000 A 
ATOM      5  C   UNL     1       7.157   6.170  18.083  0.00  0.00    +0.000 A 
ATOM      6  O   UNL     1       6.698   5.002  17.543  0.00  0.00    +0.000 OA
BRANCH   5   7
ATOM      7  C   UNL     1       8.217   6.068  19.112  0.00  0.00    +0.000 C 
BRANCH   7   8
ATOM      8  O   UNL     1       7.633   5.554  20.301  0.00  0.00    +0.000 OA
ATOM      9  H   UNL     1       6.958   4.916  20.009  0.00  0.00    +0.000 HD
ENDBRANCH   7   8
ENDBRANCH   5   7
ENDBRANCH   1   2
BRANCH   1  11
ATOM     10  C   UNL     1       6.363   4.002  13.954  0.00  0.00    +0.000 C 
ATOM     11  O   UNL     1       6.096   3.540  15.264  0.00  0.00    +0.000 OA
ENDBRANCH   1  11
BRANCH   1  12
ATOM     12  O   UNL     1       4.346   3.410  16.868  0.00  0.00    +0.000 OA
BRANCH  12  13
ATOM     13  C   UNL     1       2.951   3.724  16.922  0.00  0.00    +0.000 C 
BRANCH  13  14
ATOM     14  C   UNL     1       2.614   4.177  18.296  0.00  0.00    +0.000 A 
ATOM     15  C   UNL     1       2.423   5.408  18.889  0.00  0.00    +0.000 A 
ATOM     16  C   UNL     1       2.034   5.154  20.227  0.00  0.00    +0.000 A 
ATOM     17  C   UNL     1       2.009   3.785  20.378  0.00  0.00    +0.000 A 
ATOM     18  O   UNL     1       2.366   3.183  19.203  0.00  0.00    +0.000 OA
BRANCH  17  19
ATOM     19  C   UNL     1       1.674   2.949  21.504  0.00  0.00    +0.000 C 
ATOM     20  O   UNL     1       2.486   2.475  22.293  0.00  0.00    +0.000 OA
ENDBRANCH  17  19
ENDBRANCH  13  14
ENDBRANCH  12  13
ENDBRANCH   1  12
TORSDOF 8
ENDMDL
MODEL 6
REMARK VINA RESULT:      -6.2      1.615      1.772
REMARK  Name = 
REMARK  9 active torsions:
REMARK  status: ('A' for Active; 'I' for Inactive)
REMARK    1  A    between atoms: C_1  and  O_2
REMARK    2  A    between atoms: O_2  and  C_3
REMARK    3  A    between atoms: C_3  and  O_4
REMARK    4  A    between atoms: C_3  and  C_13
REMARK    5  A    between atoms: O_4  and  C_5
REMARK    6  A    between atoms: C_5  and  C_6
REMARK    7  A    between atoms: C_9  and  C_10
REMARK    8  A    between atoms: C_16  and  C_17
REMARK    9  A    between atoms: C_17  and  O_18
REMARK                            x       y       z     vdW  Elec       q    Type
REMARK                         _______ _______ _______ _____ _____    ______ ____
ROOT
ATOM      1  C   UNL     1       7.207   5.984  17.219  0.00  0.00    +0.000 C 
ENDROOT
BRANCH   1   2
ATOM      2  C   UNL     1       6.615   5.366  15.998  0.00  0.00    +0.000 A 
ATOM      3  C   UNL     1       5.343   4.902  15.721  0.00  0.00    +0.000 A 
ATOM      4  C   UNL     1       5.378   4.404  14.398  0.00  0.00    +0.000 A 
ATOM      5  C   UNL     1       6.665   4.597  13.941  0.00  0.00    +0.000 A 
ATOM      6  O   UNL     1       7.430   5.172  14.915  0.00  0.00    +0.000 OA
BRANCH   5   7
ATOM      7  C   UNL     1       7.320   4.322  12.641  0.00  0.00    +0.000 C 
BRANCH   7   8
ATOM      8  O   UNL     1       6.744   3.143  12.096  0.00  0.00    +0.000 OA
ATOM      9  H   UNL     1       7.329   2.876  11.366  0.00  0.00    +0.000 HD
ENDBRANCH   7   8
ENDBRANCH   5   7
ENDBRANCH   1   2
BRANCH   1  11
ATOM     10  C   UNL     1       7.839   8.230  17.704  0.00  0.00    +0.000 C 
ATOM     11  O   UNL     1       7.811   7.189  16.747  0.00  0.00    +0.000 OA
ENDBRANCH   1  11
BRANCH   1  12
ATOM     12  O   UNL     1       6.148   6.233  18.151  0.00  0.00    +0.000 OA
BRANCH  12  13
ATOM     13  C   UNL     1       5.973   5.132  19.048  0.00  0.00    +0.000 C 
BRANCH  13  14
ATOM     14  C   UNL     1       4.520   4.868  19.205  0.00  0.00    +0.000 A 
ATOM     15  C   UNL     1       3.413   5.657  19.444  0.00  0.00    +0.000 A 
ATOM     16  C   UNL     1       2.289   4.798  19.397  0.00  0.00    +0.000 A 
ATOM     17  C   UNL     1       2.768   3.533  19.132  0.00  0.00    +0.000 A 
ATOM     18  O   UNL     1       4.131   3.570  19.019  0.00  0.00    +0.000 OA
BRANCH  17  19
ATOM     19  C   UNL     1       2.098   2.269  18.956  0.00  0.00    +0.000 C 
ATOM     20  O   UNL     1       0.887   2.130  18.814  0.00  0.00    +0.000 OA
ENDBRANCH  17  19
ENDBRANCH  13  14
ENDBRANCH  12  13
ENDBRANCH   1  12
TORSDOF 8
ENDMDL
MODEL 7
REMARK VINA RESULT:      -6.2      2.090      6.447
REMARK  Name = 
REMARK  9 active torsions:
REMARK  status: ('A' for Active; 'I' for Inactive)
REMARK    1  A    between atoms: C_1  and  O_2
REMARK    2  A    between atoms: O_2  and  C_3
REMARK    3  A    between atoms: C_3  and  O_4
REMARK    4  A    between atoms: C_3  and  C_13
REMARK    5  A    between atoms: O_4  and  C_5
REMARK    6  A    between atoms: C_5  and  C_6
REMARK    7  A    between atoms: C_9  and  C_10
REMARK    8  A    between atoms: C_16  and  C_17
REMARK    9  A    between atoms: C_17  and  O_18
REMARK                            x       y       z     vdW  Elec       q    Type
REMARK                         _______ _______ _______ _____ _____    ______ ____
ROOT
ATOM      1  C   UNL     1       6.263   6.055  17.401  0.00  0.00    +0.000 C 
ENDROOT
BRANCH   1   2
ATOM      2  C   UNL     1       5.033   5.303  17.784  0.00  0.00    +0.000 A 
ATOM      3  C   UNL     1       3.699   5.494  17.476  0.00  0.00    +0.000 A 
ATOM      4  C   UNL     1       2.985   4.473  18.142  0.00  0.00    +0.000 A 
ATOM      5  C   UNL     1       3.920   3.713  18.813  0.00  0.00    +0.000 A 
ATOM      6  O   UNL     1       5.172   4.221  18.611  0.00  0.00    +0.000 OA
BRANCH   5   7
ATOM      7  C   UNL     1       3.811   2.499  19.653  0.00  0.00    +0.000 C 
BRANCH   7   8
ATOM      8  O   UNL     1       5.124   2.025  19.919  0.00  0.00    +0.000 OA
ATOM      9  H   UNL     1       5.660   2.284  19.149  0.00  0.00    +0.000 HD
ENDBRANCH   7   8
ENDBRANCH   5   7
ENDBRANCH   1   2
BRANCH   1  11
ATOM     10  C   UNL     1       7.980   6.270  19.039  0.00  0.00    +0.000 C 
ATOM     11  O   UNL     1       7.309   5.416  18.133  0.00  0.00    +0.000 OA
ENDBRANCH   1  11
BRANCH   1  12
ATOM     12  O   UNL     1       6.435   5.936  15.984  0.00  0.00    +0.000 OA
BRANCH  12  13
ATOM     13  C   UNL     1       7.012   4.674  15.632  0.00  0.00    +0.000 C 
BRANCH  13  14
ATOM     14  C   UNL     1       6.940   4.508  14.158  0.00  0.00    +0.000 A 
ATOM     15  C   UNL     1       7.634   5.040  13.089  0.00  0.00    +0.000 A 
ATOM     16  C   UNL     1       7.133   4.403  11.929  0.00  0.00    +0.000 A 
ATOM     17  C   UNL     1       6.164   3.518  12.349  0.00  0.00    +0.000 A 
ATOM     18  O   UNL     1       6.039   3.582  13.710  0.00  0.00    +0.000 OA
BRANCH  17  19
ATOM     19  C   UNL     1       5.329   2.593  11.625  0.00  0.00    +0.000 C 
ATOM     20  O   UNL     1       4.193   2.834  11.228  0.00  0.00    +0.000 OA
ENDBRANCH  17  19
ENDBRANCH  13  14
ENDBRANCH  12  13
ENDBRANCH   1  12
TORSDOF 8
ENDMDL
MODEL 8
REMARK VINA RESULT:      -6.2      1.830      6.880
REMARK  Name = 
REMARK  9 active torsions:
REMARK  status: ('A' for Active; 'I' for Inactive)
REMARK    1  A    between atoms: C_1  and  O_2
REMARK    2  A    between atoms: O_2  and  C_3
REMARK    3  A    between atoms: C_3  and  O_4
REMARK    4  A    between atoms: C_3  and  C_13
REMARK    5  A    between atoms: O_4  and  C_5
REMARK    6  A    between atoms: C_5  and  C_6
REMARK    7  A    between atoms: C_9  and  C_10
REMARK    8  A    between atoms: C_16  and  C_17
REMARK    9  A    between atoms: C_17  and  O_18
REMARK                            x       y       z     vdW  Elec       q    Type
REMARK                         _______ _______ _______ _____ _____    ______ ____
ROOT
ATOM      1  C   UNL     1       5.257   5.324  18.770  0.00  0.00    +0.000 C 
ENDROOT
BRANCH   1   2
ATOM      2  C   UNL     1       3.934   5.249  19.456  0.00  0.00    +0.000 A 
ATOM      3  C   UNL     1       2.937   6.186  19.644  0.00  0.00    +0.000 A 
ATOM      4  C   UNL     1       1.921   5.545  20.388  0.00  0.00    +0.000 A 
ATOM      5  C   UNL     1       2.351   4.254  20.608  0.00  0.00    +0.000 A 
ATOM      6  O   UNL     1       3.586   4.068  20.054  0.00  0.00    +0.000 OA
BRANCH   5   7
ATOM      7  C   UNL     1       1.733   3.092  21.287  0.00  0.00    +0.000 C 
BRANCH   7   8
ATOM      8  O   UNL     1       2.739   2.438  22.049  0.00  0.00    +0.000 OA
ATOM      9  H   UNL     1       2.536   1.487  21.994  0.00  0.00    +0.000 HD
ENDBRANCH   7   8
ENDBRANCH   5   7
ENDBRANCH   1   2
BRANCH   1  11
ATOM     10  C   UNL     1       7.517   5.675  19.438  0.00  0.00    +0.000 C 
ATOM     11  O   UNL     1       6.208   5.317  19.835  0.00  0.00    +0.000 OA
ENDBRANCH   1  11
BRANCH   1  12
ATOM     12  O   UNL     1       5.382   4.179  17.918  0.00  0.00    +0.000 OA
BRANCH  12  13
ATOM     13  C   UNL     1       4.643   4.348  16.704  0.00  0.00    +0.000 C 
BRANCH  13  14
ATOM     14  C   UNL     1       5.599   4.474  15.574  0.00  0.00    +0.000 A 
ATOM     15  C   UNL     1       6.870   4.995  15.435  0.00  0.00    +0.000 A 
ATOM     16  C   UNL     1       7.271   4.726  14.104  0.00  0.00    +0.000 A 
ATOM     17  C   UNL     1       6.227   4.058  13.504  0.00  0.00    +0.000 A 
ATOM     18  O   UNL     1       5.201   3.905  14.396  0.00  0.00    +0.000 OA
BRANCH  17  19
ATOM     19  C   UNL     1       6.067   3.521  12.175  0.00  0.00    +0.000 C 
ATOM     20  O   UNL     1       5.744   2.365  11.919  0.00  0.00    +0.000 OA
ENDBRANCH  17  19
ENDBRANCH  13  14
ENDBRANCH  12  13
ENDBRANCH   1  12
TORSDOF 8
ENDMDL
MODEL 9
REMARK VINA RESULT:      -6.2      1.632      6.900
REMARK  Name = 
REMARK  9 active torsions:
REMARK  status: ('A' for Active; 'I' for Inactive)
REMARK    1  A    between atoms: C_1  and  O_2
REMARK    2  A    between atoms: O_2  and  C_3
REMARK    3  A    between atoms: C_3  and  O_4
REMARK    4  A    between atoms: C_3  and  C_13
REMARK    5  A    between atoms: O_4  and  C_5
REMARK    6  A    between atoms: C_5  and  C_6
REMARK    7  A    between atoms: C_9  and  C_10
REMARK    8  A    between atoms: C_16  and  C_17
REMARK    9  A    between atoms: C_17  and  O_18
REMARK                            x       y       z     vdW  Elec       q    Type
REMARK                         _______ _______ _______ _____ _____    ______ ____
ROOT
ATOM      1  C   UNL     1       3.459   5.739  18.113  0.00  0.00    +0.000 C 
ENDROOT
BRANCH   1   2
ATOM      2  C   UNL     1       2.521   4.692  18.615  0.00  0.00    +0.000 A 
ATOM      3  C   UNL     1       1.573   3.917  17.975  0.00  0.00    +0.000 A 
ATOM      4  C   UNL     1       0.976   3.112  18.971  0.00  0.00    +0.000 A 
ATOM      5  C   UNL     1       1.595   3.436  20.160  0.00  0.00    +0.000 A 
ATOM      6  O   UNL     1       2.530   4.409  19.954  0.00  0.00    +0.000 OA
BRANCH   5   7
ATOM      7  C   UNL     1       1.443   2.925  21.541  0.00  0.00    +0.000 C 
BRANCH   7   8
ATOM      8  O   UNL     1       2.722   2.514  22.004  0.00  0.00    +0.000 OA
ATOM      9  H   UNL     1       2.796   2.853  22.914  0.00  0.00    +0.000 HD
ENDBRANCH   7   8
ENDBRANCH   5   7
ENDBRANCH   1   2
BRANCH   1  11
ATOM     10  C   UNL     1       2.317   7.828  18.020  0.00  0.00    +0.000 C 
ATOM     11  O   UNL     1       3.068   6.924  18.806  0.00  0.00    +0.000 OA
ENDBRANCH   1  11
BRANCH   1  12
ATOM     12  O   UNL     1       4.793   5.332  18.434  0.00  0.00    +0.000 OA
BRANCH  12  13
ATOM     13  C   UNL     1       5.147   4.120  17.760  0.00  0.00    +0.000 C 
BRANCH  13  14
ATOM     14  C   UNL     1       5.834   4.461  16.488  0.00  0.00    +0.000 A 
ATOM     15  C   UNL     1       6.890   5.283  16.149  0.00  0.00    +0.000 A 
ATOM     16  C   UNL     1       7.114   5.099  14.763  0.00  0.00    +0.000 A 
ATOM     17  C   UNL     1       6.186   4.176  14.332  0.00  0.00    +0.000 A 
ATOM     18  O   UNL     1       5.398   3.787  15.381  0.00  0.00    +0.000 OA
BRANCH  17  19
ATOM     19  C   UNL     1       5.943   3.591  13.037  0.00  0.00    +0.000 C 
ATOM     20  O   UNL     1       6.751   3.569  12.114  0.00  0.00    +0.000 OA
ENDBRANCH  17  19
ENDBRANCH  13  14
ENDBRANCH  12  13
ENDBRANCH   1  12
TORSDOF 8
ENDMDL
