MODEL 1
REMARK VINA RESULT:      -7.7      0.000      0.000
REMARK  Name = 
REMARK  9 active torsions:
REMARK  status: ('A' for Active; 'I' for Inactive)
REMARK    1  A    between atoms: C_1  and  C_2
REMARK    2  A    between atoms: C_2  and  C_3
REMARK    3  A    between atoms: C_3  and  N_4
REMARK    4  A    between atoms: N_4  and  C_5
REMARK    5  A    between atoms: C_5  and  C_6
REMARK    6  A    between atoms: C_14  and  C_15
REMARK    7  A    between atoms: C_22  and  C_23
REMARK    8  A    between atoms: C_26  and  O_27
REMARK    9  A    between atoms: C_28  and  C_29
REMARK                            x       y       z     vdW  Elec       q    Type
REMARK                         _______ _______ _______ _____ _____    ______ ____
ROOT
ATOM      1  N   UNL     1      -2.828  11.406  17.875  0.00  0.00    +0.000 N 
ATOM      2  C   UNL     1      -1.439  11.408  18.212  0.00  0.00    +0.000 A 
ATOM      3  C   UNL     1      -0.786  12.638  18.195  0.00  0.00    +0.000 A 
ATOM      4  C   UNL     1       0.563  12.735  18.541  0.00  0.00    +0.000 A 
ATOM      5  C   UNL     1       1.217  11.550  18.880  0.00  0.00    +0.000 A 
ATOM      6  C   UNL     1       0.537  10.333  18.852  0.00  0.00    +0.000 A 
ATOM      7  N   UNL     1      -0.785  10.265  18.539  0.00  0.00    +0.000 NA
ENDROOT
BRANCH   6   8
ATOM      8  C   UNL     1       1.230   9.062  19.185  0.00  0.00    +0.000 A 
ATOM      9  C   UNL     1       1.083   8.448  20.439  0.00  0.00    +0.000 A 
ATOM     10  C   UNL     1       1.789   7.282  20.767  0.00  0.00    +0.000 A 
ATOM     11  C   UNL     1       2.658   6.706  19.840  0.00  0.00    +0.000 A 
ATOM     12  C   UNL     1       2.827   7.271  18.578  0.00  0.00    +0.000 A 
ATOM     13  C   UNL     1       3.758   6.696  17.549  0.00  0.00    +0.000 C 
ATOM     14  C   UNL     1       2.098   8.432  18.264  0.00  0.00    +0.000 A 
BRANCH  11  15
ATOM     15  O   UNL     1       3.356   5.578  20.160  0.00  0.00    +0.000 OA
ATOM     16  H   UNL     1       2.743   4.827  20.178  0.00  0.00    +0.000 HD
ENDBRANCH  11  15
ENDBRANCH   6   8
BRANCH   4  17
ATOM     17  C   UNL     1       1.261  14.033  18.548  0.00  0.00    +0.000 A 
ATOM     18  C   UNL     1       0.586  15.212  18.921  0.00  0.00    +0.000 A 
ATOM     19  C   UNL     1       1.232  16.450  18.906  0.00  0.00    +0.000 A 
ATOM     20  C   UNL     1       2.569  16.535  18.530  0.00  0.00    +0.000 A 
ATOM     21  C   UNL     1       3.261  15.380  18.169  0.00  0.00    +0.000 A 
ATOM     22  C   UNL     1       2.612  14.147  18.176  0.00  0.00    +0.000 A 
ENDBRANCH   4  17
BRANCH   1  23
ATOM     23  C   UNL     1      -3.247  10.083  17.377  0.00  0.00    +0.000 C 
BRANCH  23  25
ATOM     24  C   UNL     1      -3.440  10.709  14.909  0.00  0.00    +0.000 C 
ATOM     25  C   UNL     1      -2.746   9.836  15.949  0.00  0.00    +0.000 C 
ENDBRANCH  23  25
ENDBRANCH   1  23
BRANCH   1  26
ATOM     26  C   UNL     1      -3.596  11.928  19.039  0.00  0.00    +0.000 C 
BRANCH  26  27
ATOM     27  C   UNL     1      -5.090  12.136  18.784  0.00  0.00    +0.000 A 
ATOM     28  C   UNL     1      -6.003  12.121  19.838  0.00  0.00    +0.000 A 
ATOM     29  C   UNL     1      -7.319  12.523  19.612  0.00  0.00    +0.000 A 
ATOM     30  C   UNL     1      -7.705  12.915  18.338  0.00  0.00    +0.000 A 
ATOM     31  C   UNL     1      -6.755  12.868  17.333  0.00  0.00    +0.000 A 
ATOM     32  N   UNL     1      -5.468  12.494  17.524  0.00  0.00    +0.000 NA
ENDBRANCH  26  27
ENDBRANCH   1  26
TORSDOF 7
ENDMDL
MODEL 2
REMARK VINA RESULT:      -7.5      2.292      3.105
REMARK  Name = 
REMARK  9 active torsions:
REMARK  status: ('A' for Active; 'I' for Inactive)
REMARK    1  A    between atoms: C_1  and  C_2
REMARK    2  A    between atoms: C_2  and  C_3
REMARK    3  A    between atoms: C_3  and  N_4
REMARK    4  A    between atoms: N_4  and  C_5
REMARK    5  A    between atoms: C_5  and  C_6
REMARK    6  A    between atoms: C_14  and  C_15
REMARK    7  A    between atoms: C_22  and  C_23
REMARK    8  A    between atoms: C_26  and  O_27
REMARK    9  A    between atoms: C_28  and  C_29
REMARK                            x       y       z     vdW  Elec       q    Type
REMARK                         _______ _______ _______ _____ _____    ______ ____
ROOT
ATOM      1  N   UNL     1      -3.102  11.262  17.212  0.00  0.00    +0.000 N 
ATOM      2  C   UNL     1      -2.099  11.131  18.221  0.00  0.00    +0.000 A 
ATOM      3  C   UNL     1      -2.217  11.949  19.342  0.00  0.00    +0.000 A 
ATOM      4  C   UNL     1      -1.298  11.863  20.389  0.00  0.00    +0.000 A 
ATOM      5  C   UNL     1      -0.258  10.943  20.246  0.00  0.00    +0.000 A 
ATOM      6  C   UNL     1      -0.154  10.166  19.093  0.00  0.00    +0.000 A 
ATOM      7  N   UNL     1      -1.078  10.246  18.097  0.00  0.00    +0.000 NA
ENDROOT
BRANCH   6   8
ATOM      8  C   UNL     1       0.963   9.203  18.917  0.00  0.00    +0.000 A 
ATOM      9  C   UNL     1       1.848   9.292  17.831  0.00  0.00    +0.000 A 
ATOM     10  C   UNL     1       2.862   8.342  17.638  0.00  0.00    +0.000 A 
ATOM     11  C   UNL     1       3.009   7.284  18.534  0.00  0.00    +0.000 A 
ATOM     12  C   UNL     1       2.163   7.161  19.635  0.00  0.00    +0.000 A 
ATOM     13  C   UNL     1       2.273   6.034  20.622  0.00  0.00    +0.000 C 
ATOM     14  C   UNL     1       1.163   8.132  19.818  0.00  0.00    +0.000 A 
BRANCH  11  15
ATOM     15  O   UNL     1       3.987   6.351  18.344  0.00  0.00    +0.000 OA
ATOM     16  H   UNL     1       3.578   5.533  18.020  0.00  0.00    +0.000 HD
ENDBRANCH  11  15
ENDBRANCH   6   8
BRANCH   4  17
ATOM     17  C   UNL     1      -1.423  12.707  21.591  0.00  0.00    +0.000 A 
ATOM     18  C   UNL     1      -0.480  13.717  21.864  0.00  0.00    +0.000 A 
ATOM     19  C   UNL     1      -0.576  14.505  23.013  0.00  0.00    +0.000 A 
ATOM     20  C   UNL     1      -1.623  14.308  23.908  0.00  0.00    +0.000 A 
ATOM     21  C   UNL     1      -2.576  13.322  23.652  0.00  0.00    +0.000 A 
ATOM     22  C   UNL     1      -2.473  12.532  22.510  0.00  0.00    +0.000 A 
ENDBRANCH   4  17
BRANCH   1  23
ATOM     23  C   UNL     1      -2.593  10.819  15.902  0.00  0.00    +0.000 C 
BRANCH  23  25
ATOM     24  C   UNL     1      -3.354   9.947  13.626  0.00  0.00    +0.000 C 
ATOM     25  C   UNL     1      -3.658  10.044  15.117  0.00  0.00    +0.000 C 
ENDBRANCH  23  25
ENDBRANCH   1  23
BRANCH   1  26
ATOM     26  C   UNL     1      -4.339  10.582  17.685  0.00  0.00    +0.000 C 
BRANCH  26  27
ATOM     27  C   UNL     1      -5.569  11.484  17.797  0.00  0.00    +0.000 A 
ATOM     28  C   UNL     1      -6.465  11.342  18.857  0.00  0.00    +0.000 A 
ATOM     29  C   UNL     1      -7.453  12.305  19.054  0.00  0.00    +0.000 A 
ATOM     30  C   UNL     1      -7.540  13.383  18.185  0.00  0.00    +0.000 A 
ATOM     31  C   UNL     1      -6.642  13.439  17.133  0.00  0.00    +0.000 A 
ATOM     32  N   UNL     1      -5.665  12.525  16.923  0.00  0.00    +0.000 NA
ENDBRANCH  26  27
ENDBRANCH   1  26
TORSDOF 7
ENDMDL
MODEL 3
REMARK VINA RESULT:      -7.5      0.609      1.231
REMARK  Name = 
REMARK  9 active torsions:
REMARK  status: ('A' for Active; 'I' for Inactive)
REMARK    1  A    between atoms: C_1  and  C_2
REMARK    2  A    between atoms: C_2  and  C_3
REMARK    3  A    between atoms: C_3  and  N_4
REMARK    4  A    between atoms: N_4  and  C_5
REMARK    5  A    between atoms: C_5  and  C_6
REMARK    6  A    between atoms: C_14  and  C_15
REMARK    7  A    between atoms: C_22  and  C_23
REMARK    8  A    between atoms: C_26  and  O_27
REMARK    9  A    between atoms: C_28  and  C_29
REMARK                            x       y       z     vdW  Elec       q    Type
REMARK                         _______ _______ _______ _____ _____    ______ ____
ROOT
ATOM      1  N   UNL     1      -2.948  11.411  17.846  0.00  0.00    +0.000 N 
ATOM      2  C   UNL     1      -1.564  11.458  18.199  0.00  0.00    +0.000 A 
ATOM      3  C   UNL     1      -0.963  12.714  18.237  0.00  0.00    +0.000 A 
ATOM      4  C   UNL     1       0.377  12.853  18.604  0.00  0.00    +0.000 A 
ATOM      5  C   UNL     1       1.077  11.684  18.904  0.00  0.00    +0.000 A 
ATOM      6  C   UNL     1       0.449  10.442  18.821  0.00  0.00    +0.000 A 
ATOM      7  N   UNL     1      -0.866  10.331  18.490  0.00  0.00    +0.000 NA
ENDROOT
BRANCH   6   8
ATOM      8  C   UNL     1       1.191   9.189  19.113  0.00  0.00    +0.000 A 
ATOM      9  C   UNL     1       1.078   8.536  20.351  0.00  0.00    +0.000 A 
ATOM     10  C   UNL     1       1.829   7.389  20.641  0.00  0.00    +0.000 A 
ATOM     11  C   UNL     1       2.710   6.870  19.692  0.00  0.00    +0.000 A 
ATOM     12  C   UNL     1       2.847   7.476  18.444  0.00  0.00    +0.000 A 
ATOM     13  C   UNL     1       3.789   6.963  17.392  0.00  0.00    +0.000 C 
ATOM     14  C   UNL     1       2.073   8.617  18.168  0.00  0.00    +0.000 A 
BRANCH  11  15
ATOM     15  O   UNL     1       3.452   5.760  19.974  0.00  0.00    +0.000 OA
ATOM     16  H   UNL     1       4.284   6.039  20.387  0.00  0.00    +0.000 HD
ENDBRANCH  11  15
ENDBRANCH   6   8
BRANCH   4  17
ATOM     17  C   UNL     1       1.020  14.178  18.670  0.00  0.00    +0.000 A 
ATOM     18  C   UNL     1       2.381  14.335  18.343  0.00  0.00    +0.000 A 
ATOM     19  C   UNL     1       3.005  15.582  18.428  0.00  0.00    +0.000 A 
ATOM     20  C   UNL     1       2.280  16.700  18.829  0.00  0.00    +0.000 A 
ATOM     21  C   UNL     1       0.928  16.570  19.145  0.00  0.00    +0.000 A 
ATOM     22  C   UNL     1       0.310  15.325  19.068  0.00  0.00    +0.000 A 
ENDBRANCH   4  17
BRANCH   1  23
ATOM     23  C   UNL     1      -3.305  10.092  17.291  0.00  0.00    +0.000 C 
BRANCH  23  25
ATOM     24  C   UNL     1      -3.503  10.486  14.776  0.00  0.00    +0.000 C 
ATOM     25  C   UNL     1      -2.682   9.877  15.907  0.00  0.00    +0.000 C 
ENDBRANCH  23  25
ENDBRANCH   1  23
BRANCH   1  26
ATOM     26  C   UNL     1      -3.750  11.855  19.019  0.00  0.00    +0.000 C 
BRANCH  26  27
ATOM     27  C   UNL     1      -5.069  12.547  18.673  0.00  0.00    +0.000 A 
ATOM     28  C   UNL     1      -5.720  12.282  17.469  0.00  0.00    +0.000 A 
ATOM     29  C   UNL     1      -7.017  12.757  17.270  0.00  0.00    +0.000 A 
ATOM     30  C   UNL     1      -7.633  13.499  18.267  0.00  0.00    +0.000 A 
ATOM     31  C   UNL     1      -6.912  13.755  19.421  0.00  0.00    +0.000 A 
ATOM     32  N   UNL     1      -5.658  13.299  19.646  0.00  0.00    +0.000 NA
ENDBRANCH  26  27
ENDBRANCH   1  26
TORSDOF 7
ENDMDL
MODEL 4
REMARK VINA RESULT:      -7.5      2.666      3.138
REMARK  Name = 
REMARK  9 active torsions:
REMARK  status: ('A' for Active; 'I' for Inactive)
REMARK    1  A    between atoms: C_1  and  C_2
REMARK    2  A    between atoms: C_2  and  C_3
REMARK    3  A    between atoms: C_3  and  N_4
REMARK    4  A    between atoms: N_4  and  C_5
REMARK    5  A    between atoms: C_5  and  C_6
REMARK    6  A    between atoms: C_14  and  C_15
REMARK    7  A    between atoms: C_22  and  C_23
REMARK    8  A    between atoms: C_26  and  O_27
REMARK    9  A    between atoms: C_28  and  C_29
REMARK                            x       y       z     vdW  Elec       q    Type
REMARK                         _______ _______ _______ _____ _____    ______ ____
ROOT
ATOM      1  N   UNL     1      -3.297  11.634  17.538  0.00  0.00    +0.000 N 
ATOM      2  C   UNL     1      -2.456  11.465  18.681  0.00  0.00    +0.000 A 
ATOM      3  C   UNL     1      -2.638  12.354  19.738  0.00  0.00    +0.000 A 
ATOM      4  C   UNL     1      -1.881  12.240  20.905  0.00  0.00    +0.000 A 
ATOM      5  C   UNL     1      -0.932  11.217  20.949  0.00  0.00    +0.000 A 
ATOM      6  C   UNL     1      -0.757  10.368  19.857  0.00  0.00    +0.000 A 
ATOM      7  N   UNL     1      -1.525  10.479  18.739  0.00  0.00    +0.000 NA
ENDROOT
BRANCH   6   8
ATOM      8  C   UNL     1       0.268   9.293  19.881  0.00  0.00    +0.000 A 
ATOM      9  C   UNL     1       0.454   8.477  21.008  0.00  0.00    +0.000 A 
ATOM     10  C   UNL     1       1.465   7.506  21.047  0.00  0.00    +0.000 A 
ATOM     11  C   UNL     1       2.310   7.333  19.951  0.00  0.00    +0.000 A 
ATOM     12  C   UNL     1       2.157   8.111  18.804  0.00  0.00    +0.000 A 
ATOM     13  C   UNL     1       3.048   7.971  17.603  0.00  0.00    +0.000 C 
ATOM     14  C   UNL     1       1.127   9.068  18.781  0.00  0.00    +0.000 A 
BRANCH  11  15
ATOM     15  O   UNL     1       3.304   6.398  19.988  0.00  0.00    +0.000 OA
ATOM     16  H   UNL     1       3.534   6.226  20.914  0.00  0.00    +0.000 HD
ENDBRANCH  11  15
ENDBRANCH   6   8
BRANCH   4  17
ATOM     17  C   UNL     1      -2.078  13.160  22.039  0.00  0.00    +0.000 A 
ATOM     18  C   UNL     1      -3.356  13.673  22.338  0.00  0.00    +0.000 A 
ATOM     19  C   UNL     1      -3.548  14.566  23.394  0.00  0.00    +0.000 A 
ATOM     20  C   UNL     1      -2.470  14.956  24.183  0.00  0.00    +0.000 A 
ATOM     21  C   UNL     1      -1.198  14.452  23.914  0.00  0.00    +0.000 A 
ATOM     22  C   UNL     1      -1.007  13.568  22.855  0.00  0.00    +0.000 A 
ENDBRANCH   4  17
BRANCH   1  23
ATOM     23  C   UNL     1      -2.665  11.069  16.331  0.00  0.00    +0.000 C 
BRANCH  23  25
ATOM     24  C   UNL     1      -3.103   9.998  14.055  0.00  0.00    +0.000 C 
ATOM     25  C   UNL     1      -3.711  10.533  15.347  0.00  0.00    +0.000 C 
ENDBRANCH  23  25
ENDBRANCH   1  23
BRANCH   1  26
ATOM     26  C   UNL     1      -4.649  11.105  17.864  0.00  0.00    +0.000 C 
BRANCH  26  27
ATOM     27  C   UNL     1      -5.741  12.167  18.003  0.00  0.00    +0.000 A 
ATOM     28  C   UNL     1      -6.298  12.459  19.248  0.00  0.00    +0.000 A 
ATOM     29  C   UNL     1      -7.130  13.570  19.384  0.00  0.00    +0.000 A 
ATOM     30  C   UNL     1      -7.404  14.359  18.276  0.00  0.00    +0.000 A 
ATOM     31  C   UNL     1      -6.847  13.987  17.064  0.00  0.00    +0.000 A 
ATOM     32  N   UNL     1      -6.027  12.921  16.904  0.00  0.00    +0.000 NA
ENDBRANCH  26  27
ENDBRANCH   1  26
TORSDOF 7
ENDMDL
MODEL 5
REMARK VINA RESULT:      -7.4      2.632      3.369
REMARK  Name = 
REMARK  9 active torsions:
REMARK  status: ('A' for Active; 'I' for Inactive)
REMARK    1  A    between atoms: C_1  and  C_2
REMARK    2  A    between atoms: C_2  and  C_3
REMARK    3  A    between atoms: C_3  and  N_4
REMARK    4  A    between atoms: N_4  and  C_5
REMARK    5  A    between atoms: C_5  and  C_6
REMARK    6  A    between atoms: C_14  and  C_15
REMARK    7  A    between atoms: C_22  and  C_23
REMARK    8  A    between atoms: C_26  and  O_27
REMARK    9  A    between atoms: C_28  and  C_29
REMARK                            x       y       z     vdW  Elec       q    Type
REMARK                         _______ _______ _______ _____ _____    ______ ____
ROOT
ATOM      1  N   UNL     1      -3.224  11.906  17.949  0.00  0.00    +0.000 N 
ATOM      2  C   UNL     1      -2.371  11.643  19.065  0.00  0.00    +0.000 A 
ATOM      3  C   UNL     1      -2.503  12.476  20.173  0.00  0.00    +0.000 A 
ATOM      4  C   UNL     1      -1.730  12.270  21.317  0.00  0.00    +0.000 A 
ATOM      5  C   UNL     1      -0.819  11.214  21.285  0.00  0.00    +0.000 A 
ATOM      6  C   UNL     1      -0.692  10.423  20.144  0.00  0.00    +0.000 A 
ATOM      7  N   UNL     1      -1.475  10.624  19.050  0.00  0.00    +0.000 NA
ENDROOT
BRANCH   6   8
ATOM      8  C   UNL     1       0.294   9.313  20.089  0.00  0.00    +0.000 A 
ATOM      9  C   UNL     1       0.477   8.436  21.169  0.00  0.00    +0.000 A 
ATOM     10  C   UNL     1       1.454   7.430  21.134  0.00  0.00    +0.000 A 
ATOM     11  C   UNL     1       2.266   7.283  20.009  0.00  0.00    +0.000 A 
ATOM     12  C   UNL     1       2.113   8.122  18.907  0.00  0.00    +0.000 A 
ATOM     13  C   UNL     1       2.969   8.012  17.677  0.00  0.00    +0.000 C 
ATOM     14  C   UNL     1       1.118   9.114  18.958  0.00  0.00    +0.000 A 
BRANCH  11  15
ATOM     15  O   UNL     1       3.226   6.313  19.974  0.00  0.00    +0.000 OA
ATOM     16  H   UNL     1       4.056   6.685  20.309  0.00  0.00    +0.000 HD
ENDBRANCH  11  15
ENDBRANCH   6   8
BRANCH   4  17
ATOM     17  C   UNL     1      -1.875  13.131  22.505  0.00  0.00    +0.000 A 
ATOM     18  C   UNL     1      -2.945  12.947  23.402  0.00  0.00    +0.000 A 
ATOM     19  C   UNL     1      -3.106  13.774  24.516  0.00  0.00    +0.000 A 
ATOM     20  C   UNL     1      -2.193  14.795  24.764  0.00  0.00    +0.000 A 
ATOM     21  C   UNL     1      -1.119  14.988  23.896  0.00  0.00    +0.000 A 
ATOM     22  C   UNL     1      -0.966  14.168  22.781  0.00  0.00    +0.000 A 
ENDBRANCH   4  17
BRANCH   1  23
ATOM     23  C   UNL     1      -2.633  11.388  16.701  0.00  0.00    +0.000 C 
BRANCH  23  25
ATOM     24  C   UNL     1      -3.146  10.038  14.596  0.00  0.00    +0.000 C 
ATOM     25  C   UNL     1      -3.549  10.357  16.031  0.00  0.00    +0.000 C 
ENDBRANCH  23  25
ENDBRANCH   1  23
BRANCH   1  26
ATOM     26  C   UNL     1      -4.589  11.406  18.270  0.00  0.00    +0.000 C 
BRANCH  26  27
ATOM     27  C   UNL     1      -5.682  12.476  18.277  0.00  0.00    +0.000 A 
ATOM     28  C   UNL     1      -6.297  12.875  17.090  0.00  0.00    +0.000 A 
ATOM     29  C   UNL     1      -7.429  13.688  17.143  0.00  0.00    +0.000 A 
ATOM     30  C   UNL     1      -7.917  14.101  18.375  0.00  0.00    +0.000 A 
ATOM     31  C   UNL     1      -7.232  13.698  19.509  0.00  0.00    +0.000 A 
ATOM     32  N   UNL     1      -6.139  12.900  19.489  0.00  0.00    +0.000 NA
ENDBRANCH  26  27
ENDBRANCH   1  26
TORSDOF 7
ENDMDL
MODEL 6
REMARK VINA RESULT:      -7.3      1.929      5.937
REMARK  Name = 
REMARK  9 active torsions:
REMARK  status: ('A' for Active; 'I' for Inactive)
REMARK    1  A    between atoms: C_1  and  C_2
REMARK    2  A    between atoms: C_2  and  C_3
REMARK    3  A    between atoms: C_3  and  N_4
REMARK    4  A    between atoms: N_4  and  C_5
REMARK    5  A    between atoms: C_5  and  C_6
REMARK    6  A    between atoms: C_14  and  C_15
REMARK    7  A    between atoms: C_22  and  C_23
REMARK    8  A    between atoms: C_26  and  O_27
REMARK    9  A    between atoms: C_28  and  C_29
REMARK                            x       y       z     vdW  Elec       q    Type
REMARK                         _______ _______ _______ _____ _____    ______ ____
ROOT
ATOM      1  N   UNL     1       1.375  13.682  19.795  0.00  0.00    +0.000 N 
ATOM      2  C   UNL     1       0.753  12.459  19.392  0.00  0.00    +0.000 A 
ATOM      3  C   UNL     1      -0.565  12.536  18.949  0.00  0.00    +0.000 A 
ATOM      4  C   UNL     1      -1.236  11.394  18.507  0.00  0.00    +0.000 A 
ATOM      5  C   UNL     1      -0.536  10.188  18.552  0.00  0.00    +0.000 A 
ATOM      6  C   UNL     1       0.772  10.147  19.035  0.00  0.00    +0.000 A 
ATOM      7  N   UNL     1       1.417  11.277  19.434  0.00  0.00    +0.000 NA
ENDROOT
BRANCH   6   8
ATOM      8  C   UNL     1       1.518   8.866  19.113  0.00  0.00    +0.000 A 
ATOM      9  C   UNL     1       1.426   8.026  20.235  0.00  0.00    +0.000 A 
ATOM     10  C   UNL     1       2.182   6.849  20.329  0.00  0.00    +0.000 A 
ATOM     11  C   UNL     1       3.046   6.489  19.295  0.00  0.00    +0.000 A 
ATOM     12  C   UNL     1       3.163   7.284  18.156  0.00  0.00    +0.000 A 
ATOM     13  C   UNL     1       4.087   6.945  17.021  0.00  0.00    +0.000 C 
ATOM     14  C   UNL     1       2.384   8.452  18.076  0.00  0.00    +0.000 A 
BRANCH  11  15
ATOM     15  O   UNL     1       3.793   5.350  19.387  0.00  0.00    +0.000 OA
ATOM     16  H   UNL     1       4.628   5.561  19.832  0.00  0.00    +0.000 HD
ENDBRANCH  11  15
ENDBRANCH   6   8
BRANCH   4  17
ATOM     17  C   UNL     1      -2.624  11.464  18.015  0.00  0.00    +0.000 A 
ATOM     18  C   UNL     1      -2.936  11.113  16.686  0.00  0.00    +0.000 A 
ATOM     19  C   UNL     1      -4.244  11.201  16.203  0.00  0.00    +0.000 A 
ATOM     20  C   UNL     1      -5.269  11.629  17.040  0.00  0.00    +0.000 A 
ATOM     21  C   UNL     1      -4.986  11.970  18.362  0.00  0.00    +0.000 A 
ATOM     22  C   UNL     1      -3.680  11.890  18.840  0.00  0.00    +0.000 A 
ENDBRANCH   4  17
BRANCH   1  23
ATOM     23  C   UNL     1       2.477  13.425  20.740  0.00  0.00    +0.000 C 
BRANCH  23  25
ATOM     24  C   UNL     1       1.608  15.394  22.112  0.00  0.00    +0.000 C 
ATOM     25  C   UNL     1       2.830  14.681  21.546  0.00  0.00    +0.000 C 
ENDBRANCH  23  25
ENDBRANCH   1  23
BRANCH   1  26
ATOM     26  C   UNL     1       1.739  14.451  18.574  0.00  0.00    +0.000 C 
BRANCH  26  27
ATOM     27  C   UNL     1       1.118  15.845  18.481  0.00  0.00    +0.000 A 
ATOM     28  C   UNL     1       1.828  16.907  17.922  0.00  0.00    +0.000 A 
ATOM     29  C   UNL     1       1.171  18.108  17.655  0.00  0.00    +0.000 A 
ATOM     30  C   UNL     1      -0.176  18.233  17.963  0.00  0.00    +0.000 A 
ATOM     31  C   UNL     1      -0.808  17.150  18.551  0.00  0.00    +0.000 A 
ATOM     32  N   UNL     1      -0.198  15.970  18.812  0.00  0.00    +0.000 NA
ENDBRANCH  26  27
ENDBRANCH   1  26
TORSDOF 7
ENDMDL
MODEL 7
REMARK VINA RESULT:      -7.3      3.209      8.205
REMARK  Name = 
REMARK  9 active torsions:
REMARK  status: ('A' for Active; 'I' for Inactive)
REMARK    1  A    between atoms: C_1  and  C_2
REMARK    2  A    between atoms: C_2  and  C_3
REMARK    3  A    between atoms: C_3  and  N_4
REMARK    4  A    between atoms: N_4  and  C_5
REMARK    5  A    between atoms: C_5  and  C_6
REMARK    6  A    between atoms: C_14  and  C_15
REMARK    7  A    between atoms: C_22  and  C_23
REMARK    8  A    between atoms: C_26  and  O_27
REMARK    9  A    between atoms: C_28  and  C_29
REMARK                            x       y       z     vdW  Elec       q    Type
REMARK                         _______ _______ _______ _____ _____    ______ ____
ROOT
ATOM      1  N   UNL     1       1.333  14.003  19.267  0.00  0.00    +0.000 N 
ATOM      2  C   UNL     1       0.626  12.790  19.001  0.00  0.00    +0.000 A 
ATOM      3  C   UNL     1       1.367  11.611  19.010  0.00  0.00    +0.000 A 
ATOM      4  C   UNL     1       0.748  10.378  18.790  0.00  0.00    +0.000 A 
ATOM      5  C   UNL     1      -0.625  10.392  18.544  0.00  0.00    +0.000 A 
ATOM      6  C   UNL     1      -1.326  11.597  18.510  0.00  0.00    +0.000 A 
ATOM      7  N   UNL     1      -0.709  12.785  18.754  0.00  0.00    +0.000 NA
ENDROOT
BRANCH   6   8
ATOM      8  C   UNL     1      -2.783  11.627  18.222  0.00  0.00    +0.000 A 
ATOM      9  C   UNL     1      -3.296  11.238  16.974  0.00  0.00    +0.000 A 
ATOM     10  C   UNL     1      -4.666  11.328  16.689  0.00  0.00    +0.000 A 
ATOM     11  C   UNL     1      -5.550  11.811  17.654  0.00  0.00    +0.000 A 
ATOM     12  C   UNL     1      -5.090  12.198  18.911  0.00  0.00    +0.000 A 
ATOM     13  C   UNL     1      -6.000  12.734  19.979  0.00  0.00    +0.000 C 
ATOM     14  C   UNL     1      -3.715  12.085  19.181  0.00  0.00    +0.000 A 
BRANCH  11  15
ATOM     15  O   UNL     1      -6.883  11.912  17.377  0.00  0.00    +0.000 OA
ATOM     16  H   UNL     1      -7.121  12.851  17.330  0.00  0.00    +0.000 HD
ENDBRANCH  11  15
ENDBRANCH   6   8
BRANCH   4  17
ATOM     17  C   UNL     1       1.516   9.120  18.818  0.00  0.00    +0.000 A 
ATOM     18  C   UNL     1       1.485   8.282  19.951  0.00  0.00    +0.000 A 
ATOM     19  C   UNL     1       2.229   7.101  19.997  0.00  0.00    +0.000 A 
ATOM     20  C   UNL     1       3.010   6.726  18.908  0.00  0.00    +0.000 A 
ATOM     21  C   UNL     1       3.047   7.534  17.772  0.00  0.00    +0.000 A 
ATOM     22  C   UNL     1       2.311   8.715  17.732  0.00  0.00    +0.000 A 
ENDBRANCH   4  17
BRANCH   1  23
ATOM     23  C   UNL     1       0.630  15.161  18.686  0.00  0.00    +0.000 C 
BRANCH  23  25
ATOM     24  C   UNL     1      -1.286  16.191  20.022  0.00  0.00    +0.000 C 
ATOM     25  C   UNL     1       0.217  16.169  19.766  0.00  0.00    +0.000 C 
ENDBRANCH  23  25
ENDBRANCH   1  23
BRANCH   1  26
ATOM     26  C   UNL     1       1.602  14.081  20.729  0.00  0.00    +0.000 C 
BRANCH  26  27
ATOM     27  C   UNL     1       3.060  14.350  21.104  0.00  0.00    +0.000 A 
ATOM     28  C   UNL     1       4.006  14.644  20.122  0.00  0.00    +0.000 A 
ATOM     29  C   UNL     1       5.272  15.093  20.501  0.00  0.00    +0.000 A 
ATOM     30  C   UNL     1       5.575  15.224  21.848  0.00  0.00    +0.000 A 
ATOM     31  C   UNL     1       4.600  14.877  22.767  0.00  0.00    +0.000 A 
ATOM     32  N   UNL     1       3.360  14.450  22.429  0.00  0.00    +0.000 NA
ENDBRANCH  26  27
ENDBRANCH   1  26
TORSDOF 7
ENDMDL
MODEL 8
REMARK VINA RESULT:      -7.3      3.109      7.186
REMARK  Name = 
REMARK  9 active torsions:
REMARK  status: ('A' for Active; 'I' for Inactive)
REMARK    1  A    between atoms: C_1  and  C_2
REMARK    2  A    between atoms: C_2  and  C_3
REMARK    3  A    between atoms: C_3  and  N_4
REMARK    4  A    between atoms: N_4  and  C_5
REMARK    5  A    between atoms: C_5  and  C_6
REMARK    6  A    between atoms: C_14  and  C_15
REMARK    7  A    between atoms: C_22  and  C_23
REMARK    8  A    between atoms: C_26  and  O_27
REMARK    9  A    between atoms: C_28  and  C_29
REMARK                            x       y       z     vdW  Elec       q    Type
REMARK                         _______ _______ _______ _____ _____    ______ ____
ROOT
ATOM      1  N   UNL     1       1.293  13.909  19.532  0.00  0.00    +0.000 N 
ATOM      2  C   UNL     1       0.609  12.708  19.169  0.00  0.00    +0.000 A 
ATOM      3  C   UNL     1       1.356  11.533  19.159  0.00  0.00    +0.000 A 
ATOM      4  C   UNL     1       0.758  10.310  18.847  0.00  0.00    +0.000 A 
ATOM      5  C   UNL     1      -0.601  10.331  18.529  0.00  0.00    +0.000 A 
ATOM      6  C   UNL     1      -1.306  11.534  18.516  0.00  0.00    +0.000 A 
ATOM      7  N   UNL     1      -0.711  12.710  18.852  0.00  0.00    +0.000 NA
ENDROOT
BRANCH   6   8
ATOM      8  C   UNL     1      -2.746  11.572  18.154  0.00  0.00    +0.000 A 
ATOM      9  C   UNL     1      -3.192  11.220  16.870  0.00  0.00    +0.000 A 
ATOM     10  C   UNL     1      -4.545  11.319  16.515  0.00  0.00    +0.000 A 
ATOM     11  C   UNL     1      -5.480  11.772  17.446  0.00  0.00    +0.000 A 
ATOM     12  C   UNL     1      -5.087  12.122  18.737  0.00  0.00    +0.000 A 
ATOM     13  C   UNL     1      -6.053  12.627  19.771  0.00  0.00    +0.000 C 
ATOM     14  C   UNL     1      -3.728  12.001  19.075  0.00  0.00    +0.000 A 
BRANCH  11  15
ATOM     15  O   UNL     1      -6.797  11.882  17.102  0.00  0.00    +0.000 OA
ATOM     16  H   UNL     1      -6.994  11.227  16.415  0.00  0.00    +0.000 HD
ENDBRANCH  11  15
ENDBRANCH   6   8
BRANCH   4  17
ATOM     17  C   UNL     1       1.531   9.055  18.854  0.00  0.00    +0.000 A 
ATOM     18  C   UNL     1       2.274   8.660  17.724  0.00  0.00    +0.000 A 
ATOM     19  C   UNL     1       2.988   7.460  17.712  0.00  0.00    +0.000 A 
ATOM     20  C   UNL     1       2.986   6.635  18.833  0.00  0.00    +0.000 A 
ATOM     21  C   UNL     1       2.267   7.012  19.967  0.00  0.00    +0.000 A 
ATOM     22  C   UNL     1       1.549   8.205  19.974  0.00  0.00    +0.000 A 
ENDBRANCH   4  17
BRANCH   1  23
ATOM     23  C   UNL     1       0.615  15.092  18.972  0.00  0.00    +0.000 C 
BRANCH  23  25
ATOM     24  C   UNL     1       0.239  17.506  19.714  0.00  0.00    +0.000 C 
ATOM     25  C   UNL     1       1.253  16.395  19.468  0.00  0.00    +0.000 C 
ENDBRANCH  23  25
ENDBRANCH   1  23
BRANCH   1  26
ATOM     26  C   UNL     1       1.484  13.916  21.009  0.00  0.00    +0.000 C 
BRANCH  26  27
ATOM     27  C   UNL     1       0.224  13.613  21.822  0.00  0.00    +0.000 A 
ATOM     28  C   UNL     1      -0.757  14.587  22.007  0.00  0.00    +0.000 A 
ATOM     29  C   UNL     1      -1.984  14.228  22.565  0.00  0.00    +0.000 A 
ATOM     30  C   UNL     1      -2.204  12.911  22.943  0.00  0.00    +0.000 A 
ATOM     31  C   UNL     1      -1.171  12.007  22.765  0.00  0.00    +0.000 A 
ATOM     32  N   UNL     1       0.026  12.324  22.216  0.00  0.00    +0.000 NA
ENDBRANCH  26  27
ENDBRANCH   1  26
TORSDOF 7
ENDMDL
MODEL 9
REMARK VINA RESULT:      -7.3      3.229      8.263
REMARK  Name = 
REMARK  9 active torsions:
REMARK  status: ('A' for Active; 'I' for Inactive)
REMARK    1  A    between atoms: C_1  and  C_2
REMARK    2  A    between atoms: C_2  and  C_3
REMARK    3  A    between atoms: C_3  and  N_4
REMARK    4  A    between atoms: N_4  and  C_5
REMARK    5  A    between atoms: C_5  and  C_6
REMARK    6  A    between atoms: C_14  and  C_15
REMARK    7  A    between atoms: C_22  and  C_23
REMARK    8  A    between atoms: C_26  and  O_27
REMARK    9  A    between atoms: C_28  and  C_29
REMARK                            x       y       z     vdW  Elec       q    Type
REMARK                         _______ _______ _______ _____ _____    ______ ____
ROOT
ATOM      1  N   UNL     1       1.317  13.952  19.476  0.00  0.00    +0.000 N 
ATOM      2  C   UNL     1       0.623  12.746  19.147  0.00  0.00    +0.000 A 
ATOM      3  C   UNL     1       1.369  11.570  19.133  0.00  0.00    +0.000 A 
ATOM      4  C   UNL     1       0.763  10.344  18.853  0.00  0.00    +0.000 A 
ATOM      5  C   UNL     1      -0.604  10.362  18.572  0.00  0.00    +0.000 A 
ATOM      6  C   UNL     1      -1.309  11.564  18.563  0.00  0.00    +0.000 A 
ATOM      7  N   UNL     1      -0.705  12.745  18.866  0.00  0.00    +0.000 NA
ENDROOT
BRANCH   6   8
ATOM      8  C   UNL     1      -2.759  11.599  18.239  0.00  0.00    +0.000 A 
ATOM      9  C   UNL     1      -3.239  11.232  16.971  0.00  0.00    +0.000 A 
ATOM     10  C   UNL     1      -4.602  11.327  16.653  0.00  0.00    +0.000 A 
ATOM     11  C   UNL     1      -5.511  11.791  17.603  0.00  0.00    +0.000 A 
ATOM     12  C   UNL     1      -5.083  12.156  18.879  0.00  0.00    +0.000 A 
ATOM     13  C   UNL     1      -6.021  12.672  19.933  0.00  0.00    +0.000 C 
ATOM     14  C   UNL     1      -3.715  12.039  19.181  0.00  0.00    +0.000 A 
BRANCH  11  15
ATOM     15  O   UNL     1      -6.837  11.897  17.294  0.00  0.00    +0.000 OA
ATOM     16  H   UNL     1      -7.217  11.006  17.249  0.00  0.00    +0.000 HD
ENDBRANCH  11  15
ENDBRANCH   6   8
BRANCH   4  17
ATOM     17  C   UNL     1       1.535   9.089  18.855  0.00  0.00    +0.000 A 
ATOM     18  C   UNL     1       2.302   8.712  17.735  0.00  0.00    +0.000 A 
ATOM     19  C   UNL     1       3.016   7.512  17.718  0.00  0.00    +0.000 A 
ATOM     20  C   UNL     1       2.990   6.669  18.825  0.00  0.00    +0.000 A 
ATOM     21  C   UNL     1       2.248   7.027  19.950  0.00  0.00    +0.000 A 
ATOM     22  C   UNL     1       1.529   8.220  19.961  0.00  0.00    +0.000 A 
ENDBRANCH   4  17
BRANCH   1  23
ATOM     23  C   UNL     1       0.624  15.127  18.918  0.00  0.00    +0.000 C 
BRANCH  23  25
ATOM     24  C   UNL     1       1.179  17.615  18.767  0.00  0.00    +0.000 C 
ATOM     25  C   UNL     1       1.618  16.192  18.440  0.00  0.00    +0.000 C 
ENDBRANCH  23  25
ENDBRANCH   1  23
BRANCH   1  26
ATOM     26  C   UNL     1       1.548  13.977  20.946  0.00  0.00    +0.000 C 
BRANCH  26  27
ATOM     27  C   UNL     1       2.955  14.401  21.371  0.00  0.00    +0.000 A 
ATOM     28  C   UNL     1       4.008  14.396  20.457  0.00  0.00    +0.000 A 
ATOM     29  C   UNL     1       5.223  14.984  20.807  0.00  0.00    +0.000 A 
ATOM     30  C   UNL     1       5.371  15.551  22.065  0.00  0.00    +0.000 A 
ATOM     31  C   UNL     1       4.295  15.485  22.933  0.00  0.00    +0.000 A 
ATOM     32  N   UNL     1       3.101  14.931  22.618  0.00  0.00    +0.000 NA
ENDBRANCH  26  27
ENDBRANCH   1  26
TORSDOF 7
ENDMDL
