MODEL 1
REMARK VINA RESULT:      -5.6      0.000      0.000
REMARK  Name = 
REMARK  19 active torsions:
REMARK  status: ('A' for Active; 'I' for Inactive)
REMARK    1  A    between atoms: C_1  and  C_2
REMARK    2  A    between atoms: C_2  and  C_3
REMARK    3  A    between atoms: C_3  and  C_4
REMARK    4  A    between atoms: C_4  and  C_5
REMARK    5  A    between atoms: C_5  and  C_6
REMARK    6  A    between atoms: C_6  and  C_7
REMARK    7  A    between atoms: C_7  and  C_8
REMARK    8  A    between atoms: C_8  and  C_9
REMARK    9  A    between atoms: C_9  and  C_10
REMARK   10  A    between atoms: C_10  and  C_11
REMARK   11  A    between atoms: C_11  and  C_12
REMARK   12  A    between atoms: C_12  and  C_13
REMARK   13  A    between atoms: C_13  and  C_14
REMARK   14  A    between atoms: C_14  and  C_15
REMARK   15  A    between atoms: C_15  and  N_16
REMARK   16  A    between atoms: C_15  and  C_17
REMARK   17  A    between atoms: C_15  and  C_19
REMARK   18  A    between atoms: C_17  and  O_18
REMARK   19  A    between atoms: C_19  and  O_20
REMARK                            x       y       z     vdW  Elec       q    Type
REMARK                         _______ _______ _______ _____ _____    ______ ____
ROOT
ATOM      1  C   UNL     1       4.190   5.926  18.074  0.00  0.00    +0.000 C 
ENDROOT
BRANCH   1   2
ATOM      2  C   UNL     1       5.286   5.328  18.951  0.00  0.00    +0.000 C 
BRANCH   2   3
ATOM      3  C   UNL     1       6.364   4.666  18.114  0.00  0.00    +0.000 C 
BRANCH   3   4
ATOM      4  C   UNL     1       7.131   5.719  17.327  0.00  0.00    +0.000 C 
BRANCH   4   5
ATOM      5  C   UNL     1       6.928   5.506  15.834  0.00  0.00    +0.000 C 
BRANCH   5   6
ATOM      6  C   UNL     1       6.301   4.144  15.568  0.00  0.00    +0.000 C 
BRANCH   6   7
ATOM      7  C   UNL     1       5.504   4.183  14.271  0.00  0.00    +0.000 C 
BRANCH   7   8
ATOM      8  C   UNL     1       6.366   3.742  13.095  0.00  0.00    +0.000 C 
BRANCH   8   9
ATOM      9  C   UNL     1       5.550   2.896  12.123  0.00  0.00    +0.000 C 
BRANCH   9  10
ATOM     10  C   UNL     1       4.820   3.783  11.122  0.00  0.00    +0.000 C 
BRANCH  10  12
ATOM     11  C   UNL     1       2.822   3.924   9.614  0.00  0.00    +0.000 C 
ATOM     12  C   UNL     1       3.421   3.248  10.835  0.00  0.00    +0.000 C 
ENDBRANCH  10  12
ENDBRANCH   9  10
ENDBRANCH   8   9
ENDBRANCH   7   8
ENDBRANCH   6   7
ENDBRANCH   5   6
ENDBRANCH   4   5
ENDBRANCH   3   4
ENDBRANCH   2   3
ENDBRANCH   1   2
BRANCH   1  13
ATOM     13  C   UNL     1       3.239   4.800  17.668  0.00  0.00    +0.000 C 
BRANCH  13  14
ATOM     14  C   UNL     1       2.540   4.169  18.870  0.00  0.00    +0.000 C 
BRANCH  14  15
ATOM     15  C   UNL     1       2.804   2.653  19.071  0.00  0.00    +0.000 C 
BRANCH  15  16
ATOM     16  N   UNL     1       1.528   1.886  19.077  0.00  0.00    +0.000 NA
ATOM     17  H   UNL     1       0.808   2.427  18.603  0.00  0.00    +0.000 HD
ATOM     18  H   UNL     1       1.213   1.821  20.048  0.00  0.00    +0.000 HD
ENDBRANCH  15  16
BRANCH  15  19
ATOM     19  C   UNL     1       3.448   2.460  20.470  0.00  0.00    +0.000 C 
BRANCH  19  20
ATOM     20  O   UNL     1       4.831   2.126  20.352  0.00  0.00    +0.000 OA
ATOM     21  H   UNL     1       4.980   1.428  21.021  0.00  0.00    +0.000 HD
ENDBRANCH  19  20
ENDBRANCH  15  19
BRANCH  15  22
ATOM     22  C   UNL     1       3.756   2.048  17.998  0.00  0.00    +0.000 C 
BRANCH  22  23
ATOM     23  O   UNL     1       4.019   0.663  18.205  0.00  0.00    +0.000 OA
ATOM     24  H   UNL     1       3.568   0.190  17.484  0.00  0.00    +0.000 HD
ENDBRANCH  22  23
ENDBRANCH  15  22
ENDBRANCH  14  15
ENDBRANCH  13  14
ENDBRANCH   1  13
TORSDOF 18
ENDMDL
MODEL 2
REMARK VINA RESULT:      -5.6      3.769      6.670
REMARK  Name = 
REMARK  19 active torsions:
REMARK  status: ('A' for Active; 'I' for Inactive)
REMARK    1  A    between atoms: C_1  and  C_2
REMARK    2  A    between atoms: C_2  and  C_3
REMARK    3  A    between atoms: C_3  and  C_4
REMARK    4  A    between atoms: C_4  and  C_5
REMARK    5  A    between atoms: C_5  and  C_6
REMARK    6  A    between atoms: C_6  and  C_7
REMARK    7  A    between atoms: C_7  and  C_8
REMARK    8  A    between atoms: C_8  and  C_9
REMARK    9  A    between atoms: C_9  and  C_10
REMARK   10  A    between atoms: C_10  and  C_11
REMARK   11  A    between atoms: C_11  and  C_12
REMARK   12  A    between atoms: C_12  and  C_13
REMARK   13  A    between atoms: C_13  and  C_14
REMARK   14  A    between atoms: C_14  and  C_15
REMARK   15  A    between atoms: C_15  and  N_16
REMARK   16  A    between atoms: C_15  and  C_17
REMARK   17  A    between atoms: C_15  and  C_19
REMARK   18  A    between atoms: C_17  and  O_18
REMARK   19  A    between atoms: C_19  and  O_20
REMARK                            x       y       z     vdW  Elec       q    Type
REMARK                         _______ _______ _______ _____ _____    ______ ____
ROOT
ATOM      1  C   UNL     1       4.046   3.664  16.946  0.00  0.00    +0.000 C 
ENDROOT
BRANCH   1   2
ATOM      2  C   UNL     1       4.357   2.867  18.209  0.00  0.00    +0.000 C 
BRANCH   2   3
ATOM      3  C   UNL     1       3.244   1.886  18.531  0.00  0.00    +0.000 C 
BRANCH   3   4
ATOM      4  C   UNL     1       1.984   2.261  17.765  0.00  0.00    +0.000 C 
BRANCH   4   5
ATOM      5  C   UNL     1       0.912   2.749  18.727  0.00  0.00    +0.000 C 
BRANCH   5   6
ATOM      6  C   UNL     1       1.391   2.631  20.168  0.00  0.00    +0.000 C 
BRANCH   6   7
ATOM      7  C   UNL     1       1.239   3.969  20.878  0.00  0.00    +0.000 C 
BRANCH   7   8
ATOM      8  C   UNL     1       2.473   4.835  20.666  0.00  0.00    +0.000 C 
BRANCH   8   9
ATOM      9  C   UNL     1       2.083   6.183  20.067  0.00  0.00    +0.000 C 
BRANCH   9  10
ATOM     10  C   UNL     1       2.879   6.456  18.797  0.00  0.00    +0.000 C 
BRANCH  10  12
ATOM     11  C   UNL     1       1.684   8.642  19.086  0.00  0.00    +0.000 C 
ATOM     12  C   UNL     1       2.383   7.720  18.102  0.00  0.00    +0.000 C 
ENDBRANCH  10  12
ENDBRANCH   9  10
ENDBRANCH   8   9
ENDBRANCH   7   8
ENDBRANCH   6   7
ENDBRANCH   5   6
ENDBRANCH   4   5
ENDBRANCH   3   4
ENDBRANCH   2   3
ENDBRANCH   1   2
BRANCH   1  13
ATOM     13  C   UNL     1       5.361   4.220  16.400  0.00  0.00    +0.000 C 
BRANCH  13  14
ATOM     14  C   UNL     1       5.712   5.577  17.002  0.00  0.00    +0.000 C 
BRANCH  14  15
ATOM     15  C   UNL     1       6.985   5.599  17.892  0.00  0.00    +0.000 C 
BRANCH  15  16
ATOM     16  N   UNL     1       7.829   4.398  17.644  0.00  0.00    +0.000 NA
ATOM     17  H   UNL     1       7.305   3.562  17.892  0.00  0.00    +0.000 HD
ATOM     18  H   UNL     1       8.608   4.428  18.306  0.00  0.00    +0.000 HD
ENDBRANCH  15  16
BRANCH  15  19
ATOM     19  C   UNL     1       6.533   5.530  19.375  0.00  0.00    +0.000 C 
BRANCH  19  20
ATOM     20  O   UNL     1       7.660   5.509  20.251  0.00  0.00    +0.000 OA
ATOM     21  H   UNL     1       7.940   4.571  20.280  0.00  0.00    +0.000 HD
ENDBRANCH  19  20
ENDBRANCH  15  19
BRANCH  15  22
ATOM     22  C   UNL     1       7.848   6.879  17.696  0.00  0.00    +0.000 C 
BRANCH  22  23
ATOM     23  O   UNL     1       7.102   7.981  17.184  0.00  0.00    +0.000 OA
ATOM     24  H   UNL     1       6.653   7.657  16.384  0.00  0.00    +0.000 HD
ENDBRANCH  22  23
ENDBRANCH  15  22
ENDBRANCH  14  15
ENDBRANCH  13  14
ENDBRANCH   1  13
TORSDOF 18
ENDMDL
MODEL 3
REMARK VINA RESULT:      -5.3      3.603      6.658
REMARK  Name = 
REMARK  19 active torsions:
REMARK  status: ('A' for Active; 'I' for Inactive)
REMARK    1  A    between atoms: C_1  and  C_2
REMARK    2  A    between atoms: C_2  and  C_3
REMARK    3  A    between atoms: C_3  and  C_4
REMARK    4  A    between atoms: C_4  and  C_5
REMARK    5  A    between atoms: C_5  and  C_6
REMARK    6  A    between atoms: C_6  and  C_7
REMARK    7  A    between atoms: C_7  and  C_8
REMARK    8  A    between atoms: C_8  and  C_9
REMARK    9  A    between atoms: C_9  and  C_10
REMARK   10  A    between atoms: C_10  and  C_11
REMARK   11  A    between atoms: C_11  and  C_12
REMARK   12  A    between atoms: C_12  and  C_13
REMARK   13  A    between atoms: C_13  and  C_14
REMARK   14  A    between atoms: C_14  and  C_15
REMARK   15  A    between atoms: C_15  and  N_16
REMARK   16  A    between atoms: C_15  and  C_17
REMARK   17  A    between atoms: C_15  and  C_19
REMARK   18  A    between atoms: C_17  and  O_18
REMARK   19  A    between atoms: C_19  and  O_20
REMARK                            x       y       z     vdW  Elec       q    Type
REMARK                         _______ _______ _______ _____ _____    ______ ____
ROOT
ATOM      1  C   UNL     1       3.716   2.657  17.754  0.00  0.00    +0.000 C 
ENDROOT
BRANCH   1   2
ATOM      2  C   UNL     1       2.542   3.423  17.149  0.00  0.00    +0.000 C 
BRANCH   2   3
ATOM      3  C   UNL     1       1.259   3.165  17.917  0.00  0.00    +0.000 C 
BRANCH   3   4
ATOM      4  C   UNL     1       1.527   2.205  19.067  0.00  0.00    +0.000 C 
BRANCH   4   5
ATOM      5  C   UNL     1       1.196   2.873  20.393  0.00  0.00    +0.000 C 
BRANCH   5   6
ATOM      6  C   UNL     1       2.456   3.432  21.041  0.00  0.00    +0.000 C 
BRANCH   6   7
ATOM      7  C   UNL     1       2.244   4.892  21.417  0.00  0.00    +0.000 C 
BRANCH   7   8
ATOM      8  C   UNL     1       1.636   5.665  20.254  0.00  0.00    +0.000 C 
BRANCH   8   9
ATOM      9  C   UNL     1       2.674   6.589  19.627  0.00  0.00    +0.000 C 
BRANCH   9  10
ATOM     10  C   UNL     1       2.339   6.859  18.165  0.00  0.00    +0.000 C 
BRANCH  10  12
ATOM     11  C   UNL     1       1.534   9.077  19.015  0.00  0.00    +0.000 C 
ATOM     12  C   UNL     1       2.258   8.357  17.889  0.00  0.00    +0.000 C 
ENDBRANCH  10  12
ENDBRANCH   9  10
ENDBRANCH   8   9
ENDBRANCH   7   8
ENDBRANCH   6   7
ENDBRANCH   5   6
ENDBRANCH   4   5
ENDBRANCH   3   4
ENDBRANCH   2   3
ENDBRANCH   1   2
BRANCH   1  13
ATOM     13  C   UNL     1       4.767   3.673  18.198  0.00  0.00    +0.000 C 
BRANCH  13  14
ATOM     14  C   UNL     1       5.092   4.688  17.105  0.00  0.00    +0.000 C 
BRANCH  14  15
ATOM     15  C   UNL     1       6.605   4.924  16.847  0.00  0.00    +0.000 C 
BRANCH  15  16
ATOM     16  N   UNL     1       7.435   4.226  17.867  0.00  0.00    +0.000 NA
ATOM     17  H   UNL     1       7.775   3.349  17.481  0.00  0.00    +0.000 HD
ATOM     18  H   UNL     1       6.815   3.955  18.635  0.00  0.00    +0.000 HD
ENDBRANCH  15  16
BRANCH  15  19
ATOM     19  C   UNL     1       6.886   6.442  17.004  0.00  0.00    +0.000 C 
BRANCH  19  20
ATOM     20  O   UNL     1       5.671   7.170  17.184  0.00  0.00    +0.000 OA
ATOM     21  H   UNL     1       5.603   7.746  16.396  0.00  0.00    +0.000 HD
ENDBRANCH  19  20
ENDBRANCH  15  19
BRANCH  15  22
ATOM     22  C   UNL     1       7.062   4.479  15.427  0.00  0.00    +0.000 C 
BRANCH  22  23
ATOM     23  O   UNL     1       6.221   3.477  14.861  0.00  0.00    +0.000 OA
ATOM     24  H   UNL     1       6.211   2.740  15.495  0.00  0.00    +0.000 HD
ENDBRANCH  22  23
ENDBRANCH  15  22
ENDBRANCH  14  15
ENDBRANCH  13  14
ENDBRANCH   1  13
TORSDOF 18
ENDMDL
MODEL 4
REMARK VINA RESULT:      -5.2      3.904      6.222
REMARK  Name = 
REMARK  19 active torsions:
REMARK  status: ('A' for Active; 'I' for Inactive)
REMARK    1  A    between atoms: C_1  and  C_2
REMARK    2  A    between atoms: C_2  and  C_3
REMARK    3  A    between atoms: C_3  and  C_4
REMARK    4  A    between atoms: C_4  and  C_5
REMARK    5  A    between atoms: C_5  and  C_6
REMARK    6  A    between atoms: C_6  and  C_7
REMARK    7  A    between atoms: C_7  and  C_8
REMARK    8  A    between atoms: C_8  and  C_9
REMARK    9  A    between atoms: C_9  and  C_10
REMARK   10  A    between atoms: C_10  and  C_11
REMARK   11  A    between atoms: C_11  and  C_12
REMARK   12  A    between atoms: C_12  and  C_13
REMARK   13  A    between atoms: C_13  and  C_14
REMARK   14  A    between atoms: C_14  and  C_15
REMARK   15  A    between atoms: C_15  and  N_16
REMARK   16  A    between atoms: C_15  and  C_17
REMARK   17  A    between atoms: C_15  and  C_19
REMARK   18  A    between atoms: C_17  and  O_18
REMARK   19  A    between atoms: C_19  and  O_20
REMARK                            x       y       z     vdW  Elec       q    Type
REMARK                         _______ _______ _______ _____ _____    ______ ____
ROOT
ATOM      1  C   UNL     1       2.894   7.498  17.799  0.00  0.00    +0.000 C 
ENDROOT
BRANCH   1   2
ATOM      2  C   UNL     1       2.593   7.279  19.280  0.00  0.00    +0.000 C 
BRANCH   2   3
ATOM      3  C   UNL     1       2.783   5.826  19.673  0.00  0.00    +0.000 C 
BRANCH   3   4
ATOM      4  C   UNL     1       1.767   5.439  20.738  0.00  0.00    +0.000 C 
BRANCH   4   5
ATOM      5  C   UNL     1       0.862   4.332  20.219  0.00  0.00    +0.000 C 
BRANCH   5   6
ATOM      6  C   UNL     1       1.216   3.001  20.870  0.00  0.00    +0.000 C 
BRANCH   6   7
ATOM      7  C   UNL     1       2.564   3.106  21.570  0.00  0.00    +0.000 C 
BRANCH   7   8
ATOM      8  C   UNL     1       3.548   2.093  21.000  0.00  0.00    +0.000 C 
BRANCH   8   9
ATOM      9  C   UNL     1       3.999   2.514  19.605  0.00  0.00    +0.000 C 
BRANCH   9  10
ATOM     10  C   UNL     1       3.599   1.466  18.572  0.00  0.00    +0.000 C 
BRANCH  10  12
ATOM     11  C   UNL     1       2.828   3.390  17.160  0.00  0.00    +0.000 C 
ATOM     12  C   UNL     1       2.498   1.992  17.657  0.00  0.00    +0.000 C 
ENDBRANCH  10  12
ENDBRANCH   9  10
ENDBRANCH   8   9
ENDBRANCH   7   8
ENDBRANCH   6   7
ENDBRANCH   5   6
ENDBRANCH   4   5
ENDBRANCH   3   4
ENDBRANCH   2   3
ENDBRANCH   1   2
BRANCH   1  13
ATOM     13  C   UNL     1       4.068   6.598  17.415  0.00  0.00    +0.000 C 
BRANCH  13  14
ATOM     14  C   UNL     1       5.417   7.240  17.727  0.00  0.00    +0.000 C 
BRANCH  14  15
ATOM     15  C   UNL     1       6.653   6.326  17.507  0.00  0.00    +0.000 C 
BRANCH  15  16
ATOM     16  N   UNL     1       7.650   6.983  16.617  0.00  0.00    +0.000 NA
ATOM     17  H   UNL     1       7.659   6.510  15.717  0.00  0.00    +0.000 HD
ATOM     18  H   UNL     1       8.577   6.812  17.015  0.00  0.00    +0.000 HD
ENDBRANCH  15  16
BRANCH  15  19
ATOM     19  C   UNL     1       6.176   5.043  16.774  0.00  0.00    +0.000 C 
BRANCH  19  20
ATOM     20  O   UNL     1       6.859   3.891  17.266  0.00  0.00    +0.000 OA
ATOM     21  H   UNL     1       6.256   3.142  17.084  0.00  0.00    +0.000 HD
ENDBRANCH  19  20
ENDBRANCH  15  19
BRANCH  15  22
ATOM     22  C   UNL     1       7.351   5.908  18.834  0.00  0.00    +0.000 C 
BRANCH  22  23
ATOM     23  O   UNL     1       6.466   5.268  19.750  0.00  0.00    +0.000 OA
ATOM     24  H   UNL     1       6.311   5.904  20.468  0.00  0.00    +0.000 HD
ENDBRANCH  22  23
ENDBRANCH  15  22
ENDBRANCH  14  15
ENDBRANCH  13  14
ENDBRANCH   1  13
TORSDOF 18
ENDMDL
MODEL 5
REMARK VINA RESULT:      -5.2      6.657      8.838
REMARK  Name = 
REMARK  19 active torsions:
REMARK  status: ('A' for Active; 'I' for Inactive)
REMARK    1  A    between atoms: C_1  and  C_2
REMARK    2  A    between atoms: C_2  and  C_3
REMARK    3  A    between atoms: C_3  and  C_4
REMARK    4  A    between atoms: C_4  and  C_5
REMARK    5  A    between atoms: C_5  and  C_6
REMARK    6  A    between atoms: C_6  and  C_7
REMARK    7  A    between atoms: C_7  and  C_8
REMARK    8  A    between atoms: C_8  and  C_9
REMARK    9  A    between atoms: C_9  and  C_10
REMARK   10  A    between atoms: C_10  and  C_11
REMARK   11  A    between atoms: C_11  and  C_12
REMARK   12  A    between atoms: C_12  and  C_13
REMARK   13  A    between atoms: C_13  and  C_14
REMARK   14  A    between atoms: C_14  and  C_15
REMARK   15  A    between atoms: C_15  and  N_16
REMARK   16  A    between atoms: C_15  and  C_17
REMARK   17  A    between atoms: C_15  and  C_19
REMARK   18  A    between atoms: C_17  and  O_18
REMARK   19  A    between atoms: C_19  and  O_20
REMARK                            x       y       z     vdW  Elec       q    Type
REMARK                         _______ _______ _______ _____ _____    ______ ____
ROOT
ATOM      1  C   UNL     1       1.325  10.199  18.284  0.00  0.00    +0.000 C 
ENDROOT
BRANCH   1   2
ATOM      2  C   UNL     1       1.466   8.809  17.671  0.00  0.00    +0.000 C 
BRANCH   2   3
ATOM      3  C   UNL     1       2.652   8.065  18.256  0.00  0.00    +0.000 C 
BRANCH   3   4
ATOM      4  C   UNL     1       2.263   7.427  19.582  0.00  0.00    +0.000 C 
BRANCH   4   5
ATOM      5  C   UNL     1       2.916   6.060  19.716  0.00  0.00    +0.000 C 
BRANCH   5   6
ATOM      6  C   UNL     1       3.642   5.684  18.430  0.00  0.00    +0.000 C 
BRANCH   6   7
ATOM      7  C   UNL     1       3.194   4.306  17.964  0.00  0.00    +0.000 C 
BRANCH   7   8
ATOM      8  C   UNL     1       1.702   4.298  17.661  0.00  0.00    +0.000 C 
BRANCH   8   9
ATOM      9  C   UNL     1       1.043   3.057  18.255  0.00  0.00    +0.000 C 
BRANCH   9  10
ATOM     10  C   UNL     1       1.809   2.579  19.483  0.00  0.00    +0.000 C 
BRANCH  10  12
ATOM     11  C   UNL     1       2.149   3.020  21.928  0.00  0.00    +0.000 C 
ATOM     12  C   UNL     1       1.176   3.110  20.764  0.00  0.00    +0.000 C 
ENDBRANCH  10  12
ENDBRANCH   9  10
ENDBRANCH   8   9
ENDBRANCH   7   8
ENDBRANCH   6   7
ENDBRANCH   5   6
ENDBRANCH   4   5
ENDBRANCH   3   4
ENDBRANCH   2   3
ENDBRANCH   1   2
BRANCH   1  13
ATOM     13  C   UNL     1      -0.054  10.294  18.934  0.00  0.00    +0.000 C 
BRANCH  13  14
ATOM     14  C   UNL     1      -1.186  10.150  17.920  0.00  0.00    +0.000 C 
BRANCH  14  15
ATOM     15  C   UNL     1      -2.065  11.415  17.722  0.00  0.00    +0.000 C 
BRANCH  15  16
ATOM     16  N   UNL     1      -1.262  12.539  17.167  0.00  0.00    +0.000 NA
ATOM     17  H   UNL     1      -1.324  12.527  16.152  0.00  0.00    +0.000 HD
ATOM     18  H   UNL     1      -0.279  12.348  17.374  0.00  0.00    +0.000 HD
ENDBRANCH  15  16
BRANCH  15  19
ATOM     19  C   UNL     1      -2.568  11.872  19.118  0.00  0.00    +0.000 C 
BRANCH  19  20
ATOM     20  O   UNL     1      -3.867  12.455  19.025  0.00  0.00    +0.000 OA
ATOM     21  H   UNL     1      -4.172  12.543  19.951  0.00  0.00    +0.000 HD
ENDBRANCH  19  20
ENDBRANCH  15  19
BRANCH  15  22
ATOM     22  C   UNL     1      -3.298  11.168  16.806  0.00  0.00    +0.000 C 
BRANCH  22  23
ATOM     23  O   UNL     1      -3.107  11.640  15.475  0.00  0.00    +0.000 OA
ATOM     24  H   UNL     1      -3.347  12.582  15.483  0.00  0.00    +0.000 HD
ENDBRANCH  22  23
ENDBRANCH  15  22
ENDBRANCH  14  15
ENDBRANCH  13  14
ENDBRANCH   1  13
TORSDOF 18
ENDMDL
MODEL 6
REMARK VINA RESULT:      -5.1      1.639      1.966
REMARK  Name = 
REMARK  19 active torsions:
REMARK  status: ('A' for Active; 'I' for Inactive)
REMARK    1  A    between atoms: C_1  and  C_2
REMARK    2  A    between atoms: C_2  and  C_3
REMARK    3  A    between atoms: C_3  and  C_4
REMARK    4  A    between atoms: C_4  and  C_5
REMARK    5  A    between atoms: C_5  and  C_6
REMARK    6  A    between atoms: C_6  and  C_7
REMARK    7  A    between atoms: C_7  and  C_8
REMARK    8  A    between atoms: C_8  and  C_9
REMARK    9  A    between atoms: C_9  and  C_10
REMARK   10  A    between atoms: C_10  and  C_11
REMARK   11  A    between atoms: C_11  and  C_12
REMARK   12  A    between atoms: C_12  and  C_13
REMARK   13  A    between atoms: C_13  and  C_14
REMARK   14  A    between atoms: C_14  and  C_15
REMARK   15  A    between atoms: C_15  and  N_16
REMARK   16  A    between atoms: C_15  and  C_17
REMARK   17  A    between atoms: C_15  and  C_19
REMARK   18  A    between atoms: C_17  and  O_18
REMARK   19  A    between atoms: C_19  and  O_20
REMARK                            x       y       z     vdW  Elec       q    Type
REMARK                         _______ _______ _______ _____ _____    ______ ____
ROOT
ATOM      1  C   UNL     1       3.681   5.989  19.274  0.00  0.00    +0.000 C 
ENDROOT
BRANCH   1   2
ATOM      2  C   UNL     1       3.767   6.186  17.764  0.00  0.00    +0.000 C 
BRANCH   2   3
ATOM      3  C   UNL     1       4.587   5.091  17.108  0.00  0.00    +0.000 C 
BRANCH   3   4
ATOM      4  C   UNL     1       5.864   4.854  17.901  0.00  0.00    +0.000 C 
BRANCH   4   5
ATOM      5  C   UNL     1       7.078   5.050  17.006  0.00  0.00    +0.000 C 
BRANCH   5   6
ATOM      6  C   UNL     1       6.993   4.150  15.781  0.00  0.00    +0.000 C 
BRANCH   6   7
ATOM      7  C   UNL     1       6.411   4.925  14.606  0.00  0.00    +0.000 C 
BRANCH   7   8
ATOM      8  C   UNL     1       5.512   4.030  13.763  0.00  0.00    +0.000 C 
BRANCH   8   9
ATOM      9  C   UNL     1       6.280   3.478  12.566  0.00  0.00    +0.000 C 
BRANCH   9  10
ATOM     10  C   UNL     1       5.337   2.757  11.610  0.00  0.00    +0.000 C 
BRANCH  10  12
ATOM     11  C   UNL     1       3.470   3.640  10.187  0.00  0.00    +0.000 C 
ATOM     12  C   UNL     1       3.958   3.408  11.607  0.00  0.00    +0.000 C 
ENDBRANCH  10  12
ENDBRANCH   9  10
ENDBRANCH   8   9
ENDBRANCH   7   8
ENDBRANCH   6   7
ENDBRANCH   5   6
ENDBRANCH   4   5
ENDBRANCH   3   4
ENDBRANCH   2   3
ENDBRANCH   1   2
BRANCH   1  13
ATOM     13  C   UNL     1       2.307   5.404  19.599  0.00  0.00    +0.000 C 
BRANCH  13  14
ATOM     14  C   UNL     1       2.308   4.608  20.902  0.00  0.00    +0.000 C 
BRANCH  14  15
ATOM     15  C   UNL     1       2.282   3.064  20.737  0.00  0.00    +0.000 C 
BRANCH  15  16
ATOM     16  N   UNL     1       1.819   2.403  21.987  0.00  0.00    +0.000 NA
ATOM     17  H   UNL     1       1.394   3.096  22.597  0.00  0.00    +0.000 HD
ATOM     18  H   UNL     1       2.650   2.081  22.491  0.00  0.00    +0.000 HD
ENDBRANCH  15  16
BRANCH  15  19
ATOM     19  C   UNL     1       3.738   2.585  20.490  0.00  0.00    +0.000 C 
BRANCH  19  20
ATOM     20  O   UNL     1       3.865   1.983  19.202  0.00  0.00    +0.000 OA
ATOM     21  H   UNL     1       4.720   1.508  19.228  0.00  0.00    +0.000 HD
ENDBRANCH  19  20
ENDBRANCH  15  19
BRANCH  15  22
ATOM     22  C   UNL     1       1.395   2.589  19.549  0.00  0.00    +0.000 C 
BRANCH  22  23
ATOM     23  O   UNL     1      -0.000   2.684  19.825  0.00  0.00    +0.000 OA
ATOM     24  H   UNL     1      -0.330   3.435  19.302  0.00  0.00    +0.000 HD
ENDBRANCH  22  23
ENDBRANCH  15  22
ENDBRANCH  14  15
ENDBRANCH  13  14
ENDBRANCH   1  13
TORSDOF 18
ENDMDL
MODEL 7
REMARK VINA RESULT:      -5.1      3.869      7.122
REMARK  Name = 
REMARK  19 active torsions:
REMARK  status: ('A' for Active; 'I' for Inactive)
REMARK    1  A    between atoms: C_1  and  C_2
REMARK    2  A    between atoms: C_2  and  C_3
REMARK    3  A    between atoms: C_3  and  C_4
REMARK    4  A    between atoms: C_4  and  C_5
REMARK    5  A    between atoms: C_5  and  C_6
REMARK    6  A    between atoms: C_6  and  C_7
REMARK    7  A    between atoms: C_7  and  C_8
REMARK    8  A    between atoms: C_8  and  C_9
REMARK    9  A    between atoms: C_9  and  C_10
REMARK   10  A    between atoms: C_10  and  C_11
REMARK   11  A    between atoms: C_11  and  C_12
REMARK   12  A    between atoms: C_12  and  C_13
REMARK   13  A    between atoms: C_13  and  C_14
REMARK   14  A    between atoms: C_14  and  C_15
REMARK   15  A    between atoms: C_15  and  N_16
REMARK   16  A    between atoms: C_15  and  C_17
REMARK   17  A    between atoms: C_15  and  C_19
REMARK   18  A    between atoms: C_17  and  O_18
REMARK   19  A    between atoms: C_19  and  O_20
REMARK                            x       y       z     vdW  Elec       q    Type
REMARK                         _______ _______ _______ _____ _____    ______ ____
ROOT
ATOM      1  C   UNL     1       3.232   3.332  18.167  0.00  0.00    +0.000 C 
ENDROOT
BRANCH   1   2
ATOM      2  C   UNL     1       1.709   3.430  18.164  0.00  0.00    +0.000 C 
BRANCH   2   3
ATOM      3  C   UNL     1       1.174   3.758  19.546  0.00  0.00    +0.000 C 
BRANCH   3   4
ATOM      4  C   UNL     1       2.205   4.563  20.324  0.00  0.00    +0.000 C 
BRANCH   4   5
ATOM      5  C   UNL     1       1.829   6.037  20.320  0.00  0.00    +0.000 C 
BRANCH   5   6
ATOM      6  C   UNL     1       2.831   6.843  19.505  0.00  0.00    +0.000 C 
BRANCH   6   7
ATOM      7  C   UNL     1       2.183   7.329  18.215  0.00  0.00    +0.000 C 
BRANCH   7   8
ATOM      8  C   UNL     1       2.190   8.851  18.149  0.00  0.00    +0.000 C 
BRANCH   8   9
ATOM      9  C   UNL     1       0.777   9.381  17.925  0.00  0.00    +0.000 C 
BRANCH   9  10
ATOM     10  C   UNL     1       0.383  10.344  19.039  0.00  0.00    +0.000 C 
BRANCH  10  12
ATOM     11  C   UNL     1      -0.120   9.105  21.160  0.00  0.00    +0.000 C 
ATOM     12  C   UNL     1       0.932   9.879  20.384  0.00  0.00    +0.000 C 
ENDBRANCH  10  12
ENDBRANCH   9  10
ENDBRANCH   8   9
ENDBRANCH   7   8
ENDBRANCH   6   7
ENDBRANCH   5   6
ENDBRANCH   4   5
ENDBRANCH   3   4
ENDBRANCH   2   3
ENDBRANCH   1   2
BRANCH   1  13
ATOM     13  C   UNL     1       3.767   4.229  17.051  0.00  0.00    +0.000 C 
BRANCH  13  14
ATOM     14  C   UNL     1       5.212   3.901  16.685  0.00  0.00    +0.000 C 
BRANCH  14  15
ATOM     15  C   UNL     1       6.259   4.975  17.086  0.00  0.00    +0.000 C 
BRANCH  15  16
ATOM     16  N   UNL     1       7.572   4.706  16.438  0.00  0.00    +0.000 NA
ATOM     17  H   UNL     1       7.868   3.758  16.657  0.00  0.00    +0.000 HD
ATOM     18  H   UNL     1       8.266   5.310  16.887  0.00  0.00    +0.000 HD
ENDBRANCH  15  16
BRANCH  15  19
ATOM     19  C   UNL     1       6.487   4.872  18.618  0.00  0.00    +0.000 C 
BRANCH  19  20
ATOM     20  O   UNL     1       7.821   5.247  18.961  0.00  0.00    +0.000 OA
ATOM     21  H   UNL     1       7.781   6.213  19.114  0.00  0.00    +0.000 HD
ENDBRANCH  19  20
ENDBRANCH  15  19
BRANCH  15  22
ATOM     22  C   UNL     1       5.810   6.426  16.747  0.00  0.00    +0.000 C 
BRANCH  22  23
ATOM     23  O   UNL     1       6.854   7.383  16.908  0.00  0.00    +0.000 OA
ATOM     24  H   UNL     1       7.621   7.032  16.423  0.00  0.00    +0.000 HD
ENDBRANCH  22  23
ENDBRANCH  15  22
ENDBRANCH  14  15
ENDBRANCH  13  14
ENDBRANCH   1  13
TORSDOF 18
ENDMDL
MODEL 8
REMARK VINA RESULT:      -5.1      1.551      2.158
REMARK  Name = 
REMARK  19 active torsions:
REMARK  status: ('A' for Active; 'I' for Inactive)
REMARK    1  A    between atoms: C_1  and  C_2
REMARK    2  A    between atoms: C_2  and  C_3
REMARK    3  A    between atoms: C_3  and  C_4
REMARK    4  A    between atoms: C_4  and  C_5
REMARK    5  A    between atoms: C_5  and  C_6
REMARK    6  A    between atoms: C_6  and  C_7
REMARK    7  A    between atoms: C_7  and  C_8
REMARK    8  A    between atoms: C_8  and  C_9
REMARK    9  A    between atoms: C_9  and  C_10
REMARK   10  A    between atoms: C_10  and  C_11
REMARK   11  A    between atoms: C_11  and  C_12
REMARK   12  A    between atoms: C_12  and  C_13
REMARK   13  A    between atoms: C_13  and  C_14
REMARK   14  A    between atoms: C_14  and  C_15
REMARK   15  A    between atoms: C_15  and  N_16
REMARK   16  A    between atoms: C_15  and  C_17
REMARK   17  A    between atoms: C_15  and  C_19
REMARK   18  A    between atoms: C_17  and  O_18
REMARK   19  A    between atoms: C_19  and  O_20
REMARK                            x       y       z     vdW  Elec       q    Type
REMARK                         _______ _______ _______ _____ _____    ______ ____
ROOT
ATOM      1  C   UNL     1       3.757   4.874  17.549  0.00  0.00    +0.000 C 
ENDROOT
BRANCH   1   2
ATOM      2  C   UNL     1       4.810   5.528  16.659  0.00  0.00    +0.000 C 
BRANCH   2   3
ATOM      3  C   UNL     1       6.205   5.043  17.005  0.00  0.00    +0.000 C 
BRANCH   3   4
ATOM      4  C   UNL     1       6.764   4.210  15.860  0.00  0.00    +0.000 C 
BRANCH   4   5
ATOM      5  C   UNL     1       6.559   4.934  14.538  0.00  0.00    +0.000 C 
BRANCH   5   6
ATOM      6  C   UNL     1       5.519   4.216  13.689  0.00  0.00    +0.000 C 
BRANCH   6   7
ATOM      7  C   UNL     1       6.180   3.108  12.881  0.00  0.00    +0.000 C 
BRANCH   7   8
ATOM      8  C   UNL     1       5.431   2.871  11.577  0.00  0.00    +0.000 C 
BRANCH   8   9
ATOM      9  C   UNL     1       4.100   3.616  11.584  0.00  0.00    +0.000 C 
BRANCH   9  10
ATOM     10  C   UNL     1       3.142   3.012  10.563  0.00  0.00    +0.000 C 
BRANCH  10  12
ATOM     11  C   UNL     1       2.302   4.947   9.208  0.00  0.00    +0.000 C 
ATOM     12  C   UNL     1       3.231   3.746   9.229  0.00  0.00    +0.000 C 
ENDBRANCH  10  12
ENDBRANCH   9  10
ENDBRANCH   8   9
ENDBRANCH   7   8
ENDBRANCH   6   7
ENDBRANCH   5   6
ENDBRANCH   4   5
ENDBRANCH   3   4
ENDBRANCH   2   3
ENDBRANCH   1   2
BRANCH   1  13
ATOM     13  C   UNL     1       4.429   4.469  18.860  0.00  0.00    +0.000 C 
BRANCH  13  14
ATOM     14  C   UNL     1       3.432   4.340  20.009  0.00  0.00    +0.000 C 
BRANCH  14  15
ATOM     15  C   UNL     1       2.881   2.910  20.253  0.00  0.00    +0.000 C 
BRANCH  15  16
ATOM     16  N   UNL     1       2.808   2.608  21.709  0.00  0.00    +0.000 NA
ATOM     17  H   UNL     1       2.557   1.631  21.838  0.00  0.00    +0.000 HD
ATOM     18  H   UNL     1       2.022   3.137  22.094  0.00  0.00    +0.000 HD
ENDBRANCH  15  16
BRANCH  15  19
ATOM     19  C   UNL     1       3.885   1.899  19.637  0.00  0.00    +0.000 C 
BRANCH  19  20
ATOM     20  O   UNL     1       3.292   1.192  18.547  0.00  0.00    +0.000 OA
ATOM     21  H   UNL     1       2.434   0.870  18.891  0.00  0.00    +0.000 HD
ENDBRANCH  19  20
ENDBRANCH  15  19
BRANCH  15  22
ATOM     22  C   UNL     1       1.482   2.673  19.612  0.00  0.00    +0.000 C 
BRANCH  22  23
ATOM     23  O   UNL     1       0.407   3.050  20.469  0.00  0.00    +0.000 OA
ATOM     24  H   UNL     1      -0.169   3.631  19.943  0.00  0.00    +0.000 HD
ENDBRANCH  22  23
ENDBRANCH  15  22
ENDBRANCH  14  15
ENDBRANCH  13  14
ENDBRANCH   1  13
TORSDOF 18
ENDMDL
MODEL 9
REMARK VINA RESULT:      -5.1      3.069      5.262
REMARK  Name = 
REMARK  19 active torsions:
REMARK  status: ('A' for Active; 'I' for Inactive)
REMARK    1  A    between atoms: C_1  and  C_2
REMARK    2  A    between atoms: C_2  and  C_3
REMARK    3  A    between atoms: C_3  and  C_4
REMARK    4  A    between atoms: C_4  and  C_5
REMARK    5  A    between atoms: C_5  and  C_6
REMARK    6  A    between atoms: C_6  and  C_7
REMARK    7  A    between atoms: C_7  and  C_8
REMARK    8  A    between atoms: C_8  and  C_9
REMARK    9  A    between atoms: C_9  and  C_10
REMARK   10  A    between atoms: C_10  and  C_11
REMARK   11  A    between atoms: C_11  and  C_12
REMARK   12  A    between atoms: C_12  and  C_13
REMARK   13  A    between atoms: C_13  and  C_14
REMARK   14  A    between atoms: C_14  and  C_15
REMARK   15  A    between atoms: C_15  and  N_16
REMARK   16  A    between atoms: C_15  and  C_17
REMARK   17  A    between atoms: C_15  and  C_19
REMARK   18  A    between atoms: C_17  and  O_18
REMARK   19  A    between atoms: C_19  and  O_20
REMARK                            x       y       z     vdW  Elec       q    Type
REMARK                         _______ _______ _______ _____ _____    ______ ____
ROOT
ATOM      1  C   UNL     1       2.451   6.878  19.206  0.00  0.00    +0.000 C 
ENDROOT
BRANCH   1   2
ATOM      2  C   UNL     1       2.919   6.582  17.784  0.00  0.00    +0.000 C 
BRANCH   2   3
ATOM      3  C   UNL     1       4.321   7.109  17.542  0.00  0.00    +0.000 C 
BRANCH   3   4
ATOM      4  C   UNL     1       4.856   6.574  16.221  0.00  0.00    +0.000 C 
BRANCH   4   5
ATOM      5  C   UNL     1       4.995   5.061  16.289  0.00  0.00    +0.000 C 
BRANCH   5   6
ATOM      6  C   UNL     1       6.086   4.666  17.276  0.00  0.00    +0.000 C 
BRANCH   6   7
ATOM      7  C   UNL     1       7.205   5.698  17.255  0.00  0.00    +0.000 C 
BRANCH   7   8
ATOM      8  C   UNL     1       7.681   6.005  18.669  0.00  0.00    +0.000 C 
BRANCH   8   9
ATOM      9  C   UNL     1       8.404   7.347  18.709  0.00  0.00    +0.000 C 
BRANCH   9  10
ATOM     10  C   UNL     1       7.745   8.341  17.761  0.00  0.00    +0.000 C 
BRANCH  10  12
ATOM     11  C   UNL     1       9.101   9.936  19.141  0.00  0.00    +0.000 C 
ATOM     12  C   UNL     1       8.471   9.682  17.782  0.00  0.00    +0.000 C 
ENDBRANCH  10  12
ENDBRANCH   9  10
ENDBRANCH   8   9
ENDBRANCH   7   8
ENDBRANCH   6   7
ENDBRANCH   5   6
ENDBRANCH   4   5
ENDBRANCH   3   4
ENDBRANCH   2   3
ENDBRANCH   1   2
BRANCH   1  13
ATOM     13  C   UNL     1       2.096   5.552  19.876  0.00  0.00    +0.000 C 
BRANCH  13  14
ATOM     14  C   UNL     1       3.269   4.575  19.887  0.00  0.00    +0.000 C 
BRANCH  14  15
ATOM     15  C   UNL     1       2.881   3.072  19.910  0.00  0.00    +0.000 C 
BRANCH  15  16
ATOM     16  N   UNL     1       2.269   2.660  18.617  0.00  0.00    +0.000 NA
ATOM     17  H   UNL     1       1.376   3.133  18.502  0.00  0.00    +0.000 HD
ATOM     18  H   UNL     1       2.035   1.667  18.691  0.00  0.00    +0.000 HD
ENDBRANCH  15  16
BRANCH  15  19
ATOM     19  C   UNL     1       1.796   2.874  21.002  0.00  0.00    +0.000 C 
BRANCH  19  20
ATOM     20  O   UNL     1       2.371   2.924  22.308  0.00  0.00    +0.000 OA
ATOM     21  H   UNL     1       2.107   2.082  22.732  0.00  0.00    +0.000 HD
ENDBRANCH  19  20
ENDBRANCH  15  19
BRANCH  15  22
ATOM     22  C   UNL     1       4.082   2.133  20.229  0.00  0.00    +0.000 C 
BRANCH  22  23
ATOM     23  O   UNL     1       5.300   2.566  19.629  0.00  0.00    +0.000 OA
ATOM     24  H   UNL     1       5.473   1.956  18.892  0.00  0.00    +0.000 HD
ENDBRANCH  22  23
ENDBRANCH  15  22
ENDBRANCH  14  15
ENDBRANCH  13  14
ENDBRANCH   1  13
TORSDOF 18
ENDMDL
