MODEL 1
REMARK VINA RESULT:      -8.9      0.000      0.000
REMARK  Name = 
REMARK  3 active torsions:
REMARK  status: ('A' for Active; 'I' for Inactive)
REMARK    1  A    between atoms: C_2  and  C_4
REMARK    2  A    between atoms: C_12  and  C_13
REMARK    3  A    between atoms: C_16  and  N_17
REMARK                            x       y       z     vdW  Elec       q    Type
REMARK                         _______ _______ _______ _____ _____    ______ ____
ROOT
ATOM      1  C   UNL     1       2.141   8.538  18.475  0.00  0.00    +0.000 A 
ATOM      2  C   UNL     1       1.855   8.251  19.808  0.00  0.00    +0.000 A 
ATOM      3  C   UNL     1       0.868   8.976  20.492  0.00  0.00    +0.000 A 
ATOM      4  C   UNL     1       0.130   9.999  19.880  0.00  0.00    +0.000 A 
ATOM      5  C   UNL     1       0.416  10.245  18.526  0.00  0.00    +0.000 A 
ATOM      6  C   UNL     1       1.404   9.530  17.832  0.00  0.00    +0.000 A 
ENDROOT
BRANCH   4   7
ATOM      7  N   UNL     1      -0.812  10.727  20.572  0.00  0.00    +0.000 N 
ATOM      8  C   UNL     1      -0.814  10.802  22.050  0.00  0.00    +0.000 C 
ATOM      9  C   UNL     1      -0.756  12.273  22.524  0.00  0.00    +0.000 C 
ATOM     10  N   UNL     1      -1.795  13.059  21.864  0.00  0.00    +0.000 N 
ATOM     11  C   UNL     1      -2.691  13.802  22.576  0.00  0.00    +0.000 A 
ATOM     12  N   UNL     1      -2.592  13.832  23.916  0.00  0.00    +0.000 NA
ATOM     13  C   UNL     1      -3.480  14.581  24.596  0.00  0.00    +0.000 A 
ATOM     14  C   UNL     1      -4.480  15.295  23.996  0.00  0.00    +0.000 A 
ATOM     15  C   UNL     1      -4.519  15.202  22.630  0.00  0.00    +0.000 A 
ATOM     16  N   UNL     1      -3.646  14.475  21.912  0.00  0.00    +0.000 NA
ATOM     17  C   UNL     1      -1.828  13.003  20.404  0.00  0.00    +0.000 C 
ATOM     18  C   UNL     1      -1.861  11.538  19.919  0.00  0.00    +0.000 C 
ENDBRANCH   4   7
BRANCH   1  27
ATOM     19  C   UNL     1       2.103   3.238  18.769  0.00  0.00    +0.000 A 
ATOM     20  C   UNL     1       2.682   1.991  18.486  0.00  0.00    +0.000 A 
ATOM     21  C   UNL     1       3.860   1.892  17.713  0.00  0.00    +0.000 A 
ATOM     22  C   UNL     1       4.479   3.040  17.205  0.00  0.00    +0.000 A 
ATOM     23  C   UNL     1       3.893   4.256  17.497  0.00  0.00    +0.000 A 
ATOM     24  C   UNL     1       2.734   4.358  18.264  0.00  0.00    +0.000 A 
ATOM     25  O   UNL     1       2.329   5.657  18.451  0.00  0.00    +0.000 OA
ATOM     26  C   UNL     1       3.243   6.457  17.787  0.00  0.00    +0.000 C 
ATOM     27  C   UNL     1       3.183   7.792  17.763  0.00  0.00    +0.000 C 
ATOM     28  C   UNL     1       4.286   5.619  17.134  0.00  0.00    +0.000 C 
ATOM     29  O   UNL     1       5.236   5.966  16.467  0.00  0.00    +0.000 OA
BRANCH  19  31
ATOM     30  N   UNL     1       0.803   4.281  20.556  0.00  0.00    +0.000 N 
ATOM     31  C   UNL     1       0.867   3.316  19.587  0.00  0.00    +0.000 C 
ATOM     32  O   UNL     1      -0.066   2.545  19.408  0.00  0.00    +0.000 OA
ATOM     33  H   UNL     1      -0.012   4.323  21.150  0.00  0.00    +0.000 HD
ATOM     34  H   UNL     1       1.566   4.917  20.759  0.00  0.00    +0.000 HD
ENDBRANCH  19  31
ENDBRANCH   1  27
TORSDOF 3
ENDMDL
MODEL 2
REMARK VINA RESULT:      -8.6      0.700      1.097
REMARK  Name = 
REMARK  3 active torsions:
REMARK  status: ('A' for Active; 'I' for Inactive)
REMARK    1  A    between atoms: C_2  and  C_4
REMARK    2  A    between atoms: C_12  and  C_13
REMARK    3  A    between atoms: C_16  and  N_17
REMARK                            x       y       z     vdW  Elec       q    Type
REMARK                         _______ _______ _______ _____ _____    ______ ____
ROOT
ATOM      1  C   UNL     1       2.003   8.438  18.506  0.00  0.00    +0.000 A 
ATOM      2  C   UNL     1       1.271   9.439  17.870  0.00  0.00    +0.000 A 
ATOM      3  C   UNL     1       0.362  10.222  18.597  0.00  0.00    +0.000 A 
ATOM      4  C   UNL     1       0.153  10.045  19.972  0.00  0.00    +0.000 A 
ATOM      5  C   UNL     1       0.927   9.051  20.594  0.00  0.00    +0.000 A 
ATOM      6  C   UNL     1       1.837   8.258  19.877  0.00  0.00    +0.000 A 
ENDROOT
BRANCH   4   7
ATOM      7  N   UNL     1      -0.768  10.796  20.668  0.00  0.00    +0.000 N 
ATOM      8  C   UNL     1      -0.751  10.886  22.145  0.00  0.00    +0.000 C 
ATOM      9  C   UNL     1      -0.662  12.360  22.603  0.00  0.00    +0.000 C 
ATOM     10  N   UNL     1      -1.697  13.157  21.947  0.00  0.00    +0.000 N 
ATOM     11  C   UNL     1      -2.572  13.922  22.662  0.00  0.00    +0.000 A 
ATOM     12  N   UNL     1      -2.456  13.965  24.000  0.00  0.00    +0.000 NA
ATOM     13  C   UNL     1      -3.323  14.735  24.683  0.00  0.00    +0.000 A 
ATOM     14  C   UNL     1      -4.318  15.460  24.087  0.00  0.00    +0.000 A 
ATOM     15  C   UNL     1      -4.375  15.353  22.723  0.00  0.00    +0.000 A 
ATOM     16  N   UNL     1      -3.523  14.604  22.002  0.00  0.00    +0.000 NA
ATOM     17  C   UNL     1      -1.748  13.087  20.488  0.00  0.00    +0.000 C 
ATOM     18  C   UNL     1      -1.811  11.617  20.019  0.00  0.00    +0.000 C 
ENDBRANCH   4   7
BRANCH   1  27
ATOM     19  C   UNL     1       2.403   3.292  19.743  0.00  0.00    +0.000 A 
ATOM     20  C   UNL     1       3.006   2.035  19.577  0.00  0.00    +0.000 A 
ATOM     21  C   UNL     1       4.020   1.834  18.614  0.00  0.00    +0.000 A 
ATOM     22  C   UNL     1       4.447   2.886  17.796  0.00  0.00    +0.000 A 
ATOM     23  C   UNL     1       3.841   4.114  17.977  0.00  0.00    +0.000 A 
ATOM     24  C   UNL     1       2.844   4.318  18.930  0.00  0.00    +0.000 A 
ATOM     25  O   UNL     1       2.390   5.614  18.960  0.00  0.00    +0.000 OA
ATOM     26  C   UNL     1       3.101   6.306  17.994  0.00  0.00    +0.000 C 
ATOM     27  C   UNL     1       2.942   7.609  17.745  0.00  0.00    +0.000 C 
ATOM     28  C   UNL     1       4.058   5.396  17.306  0.00  0.00    +0.000 C 
ATOM     29  O   UNL     1       4.836   5.645  16.411  0.00  0.00    +0.000 OA
BRANCH  19  31
ATOM     30  N   UNL     1       0.310   4.325  20.462  0.00  0.00    +0.000 N 
ATOM     31  C   UNL     1       1.343   3.480  20.764  0.00  0.00    +0.000 C 
ATOM     32  O   UNL     1       1.387   2.903  21.843  0.00  0.00    +0.000 OA
ATOM     33  H   UNL     1      -0.399   4.498  21.161  0.00  0.00    +0.000 HD
ATOM     34  H   UNL     1       0.252   4.847  19.596  0.00  0.00    +0.000 HD
ENDBRANCH  19  31
ENDBRANCH   1  27
TORSDOF 3
ENDMDL
MODEL 3
REMARK VINA RESULT:      -8.4      0.955      1.539
REMARK  Name = 
REMARK  3 active torsions:
REMARK  status: ('A' for Active; 'I' for Inactive)
REMARK    1  A    between atoms: C_2  and  C_4
REMARK    2  A    between atoms: C_12  and  C_13
REMARK    3  A    between atoms: C_16  and  N_17
REMARK                            x       y       z     vdW  Elec       q    Type
REMARK                         _______ _______ _______ _____ _____    ______ ____
ROOT
ATOM      1  C   UNL     1       2.428   8.230  18.310  0.00  0.00    +0.000 A 
ATOM      2  C   UNL     1       2.045   7.936  19.617  0.00  0.00    +0.000 A 
ATOM      3  C   UNL     1       1.302   8.863  20.363  0.00  0.00    +0.000 A 
ATOM      4  C   UNL     1       0.910  10.103  19.840  0.00  0.00    +0.000 A 
ATOM      5  C   UNL     1       1.282  10.361  18.510  0.00  0.00    +0.000 A 
ATOM      6  C   UNL     1       2.028   9.444  17.754  0.00  0.00    +0.000 A 
ENDROOT
BRANCH   4   7
ATOM      7  N   UNL     1       0.212  11.020  20.595  0.00  0.00    +0.000 N 
ATOM      8  C   UNL     1      -0.489  12.169  19.981  0.00  0.00    +0.000 C 
ATOM      9  C   UNL     1      -1.984  12.172  20.375  0.00  0.00    +0.000 C 
ATOM     10  N   UNL     1      -2.127  12.065  21.825  0.00  0.00    +0.000 N 
ATOM     11  C   UNL     1      -2.857  12.967  22.541  0.00  0.00    +0.000 A 
ATOM     12  N   UNL     1      -3.486  13.960  21.889  0.00  0.00    +0.000 NA
ATOM     13  C   UNL     1      -4.210  14.832  22.615  0.00  0.00    +0.000 A 
ATOM     14  C   UNL     1      -4.325  14.765  23.976  0.00  0.00    +0.000 A 
ATOM     15  C   UNL     1      -3.645  13.732  24.565  0.00  0.00    +0.000 A 
ATOM     16  N   UNL     1      -2.920  12.834  23.877  0.00  0.00    +0.000 NA
ATOM     17  C   UNL     1      -1.441  10.945  22.467  0.00  0.00    +0.000 C 
ATOM     18  C   UNL     1       0.048  10.918  22.060  0.00  0.00    +0.000 C 
ENDBRANCH   4   7
BRANCH   1  27
ATOM     19  C   UNL     1       2.286   3.117  19.726  0.00  0.00    +0.000 A 
ATOM     20  C   UNL     1       2.725   1.791  19.578  0.00  0.00    +0.000 A 
ATOM     21  C   UNL     1       3.652   1.438  18.573  0.00  0.00    +0.000 A 
ATOM     22  C   UNL     1       4.153   2.404  17.693  0.00  0.00    +0.000 A 
ATOM     23  C   UNL     1       3.709   3.702  17.857  0.00  0.00    +0.000 A 
ATOM     24  C   UNL     1       2.798   4.055  18.851  0.00  0.00    +0.000 A 
ATOM     25  O   UNL     1       2.503   5.396  18.854  0.00  0.00    +0.000 OA
ATOM     26  C   UNL     1       3.236   5.966  17.826  0.00  0.00    +0.000 C 
ATOM     27  C   UNL     1       3.217   7.269  17.534  0.00  0.00    +0.000 C 
ATOM     28  C   UNL     1       4.038   4.926  17.125  0.00  0.00    +0.000 C 
ATOM     29  O   UNL     1       4.788   5.049  16.181  0.00  0.00    +0.000 OA
BRANCH  19  31
ATOM     30  N   UNL     1       0.410   4.458  20.533  0.00  0.00    +0.000 N 
ATOM     31  C   UNL     1       1.314   3.464  20.792  0.00  0.00    +0.000 C 
ATOM     32  O   UNL     1       1.319   2.887  21.872  0.00  0.00    +0.000 OA
ATOM     33  H   UNL     1      -0.231   4.737  21.261  0.00  0.00    +0.000 HD
ATOM     34  H   UNL     1       0.394   4.984  19.666  0.00  0.00    +0.000 HD
ENDBRANCH  19  31
ENDBRANCH   1  27
TORSDOF 3
ENDMDL
MODEL 4
REMARK VINA RESULT:      -8.1      6.572      8.544
REMARK  Name = 
REMARK  3 active torsions:
REMARK  status: ('A' for Active; 'I' for Inactive)
REMARK    1  A    between atoms: C_2  and  C_4
REMARK    2  A    between atoms: C_12  and  C_13
REMARK    3  A    between atoms: C_16  and  N_17
REMARK                            x       y       z     vdW  Elec       q    Type
REMARK                         _______ _______ _______ _____ _____    ______ ____
ROOT
ATOM      1  C   UNL     1       7.515   6.835  17.564  0.00  0.00    +0.000 A 
ATOM      2  C   UNL     1       8.259   6.816  18.742  0.00  0.00    +0.000 A 
ATOM      3  C   UNL     1       8.801   8.003  19.257  0.00  0.00    +0.000 A 
ATOM      4  C   UNL     1       8.621   9.243  18.628  0.00  0.00    +0.000 A 
ATOM      5  C   UNL     1       7.841   9.239  17.460  0.00  0.00    +0.000 A 
ATOM      6  C   UNL     1       7.296   8.058  16.933  0.00  0.00    +0.000 A 
ENDROOT
BRANCH   4   7
ATOM      7  N   UNL     1       9.189  10.396  19.124  0.00  0.00    +0.000 N 
ATOM      8  C   UNL     1       9.607  11.506  18.240  0.00  0.00    +0.000 C 
ATOM      9  C   UNL     1       8.924  12.828  18.661  0.00  0.00    +0.000 C 
ATOM     10  N   UNL     1       9.120  13.067  20.089  0.00  0.00    +0.000 N 
ATOM     11  C   UNL     1       9.650  14.236  20.552  0.00  0.00    +0.000 A 
ATOM     12  N   UNL     1       9.970  15.200  19.672  0.00  0.00    +0.000 NA
ATOM     13  C   UNL     1      10.480  16.348  20.153  0.00  0.00    +0.000 A 
ATOM     14  C   UNL     1      10.702  16.575  21.484  0.00  0.00    +0.000 A 
ATOM     15  C   UNL     1      10.361  15.539  22.313  0.00  0.00    +0.000 A 
ATOM     16  N   UNL     1       9.839  14.381  21.874  0.00  0.00    +0.000 NA
ATOM     17  C   UNL     1       8.725  11.988  20.992  0.00  0.00    +0.000 C 
ATOM     18  C   UNL     1       9.382  10.658  20.565  0.00  0.00    +0.000 C 
ENDBRANCH   4   7
BRANCH   1  27
ATOM     19  C   UNL     1       2.481   5.598  18.706  0.00  0.00    +0.000 A 
ATOM     20  C   UNL     1       1.393   4.712  18.646  0.00  0.00    +0.000 A 
ATOM     21  C   UNL     1       1.483   3.494  17.940  0.00  0.00    +0.000 A 
ATOM     22  C   UNL     1       2.662   3.139  17.274  0.00  0.00    +0.000 A 
ATOM     23  C   UNL     1       3.720   4.023  17.347  0.00  0.00    +0.000 A 
ATOM     24  C   UNL     1       3.638   5.225  18.048  0.00  0.00    +0.000 A 
ATOM     25  O   UNL     1       4.805   5.948  18.011  0.00  0.00    +0.000 OA
ATOM     26  C   UNL     1       5.703   5.211  17.258  0.00  0.00    +0.000 C 
ATOM     27  C   UNL     1       6.960   5.594  17.017  0.00  0.00    +0.000 C 
ATOM     28  C   UNL     1       5.069   3.950  16.783  0.00  0.00    +0.000 C 
ATOM     29  O   UNL     1       5.542   3.069  16.100  0.00  0.00    +0.000 OA
BRANCH  19  31
ATOM     30  N   UNL     1       2.119   6.797  20.803  0.00  0.00    +0.000 N 
ATOM     31  C   UNL     1       2.364   6.871  19.459  0.00  0.00    +0.000 C 
ATOM     32  O   UNL     1       2.480   7.955  18.901  0.00  0.00    +0.000 OA
ATOM     33  H   UNL     1       1.994   7.653  21.325  0.00  0.00    +0.000 HD
ATOM     34  H   UNL     1       1.984   5.922  21.297  0.00  0.00    +0.000 HD
ENDBRANCH  19  31
ENDBRANCH   1  27
TORSDOF 3
ENDMDL
MODEL 5
REMARK VINA RESULT:      -8.0      1.174      1.215
REMARK  Name = 
REMARK  3 active torsions:
REMARK  status: ('A' for Active; 'I' for Inactive)
REMARK    1  A    between atoms: C_2  and  C_4
REMARK    2  A    between atoms: C_12  and  C_13
REMARK    3  A    between atoms: C_16  and  N_17
REMARK                            x       y       z     vdW  Elec       q    Type
REMARK                         _______ _______ _______ _____ _____    ______ ____
ROOT
ATOM      1  C   UNL     1       2.398   8.216  18.279  0.00  0.00    +0.000 A 
ATOM      2  C   UNL     1       2.041   7.990  19.606  0.00  0.00    +0.000 A 
ATOM      3  C   UNL     1       1.196   8.888  20.276  0.00  0.00    +0.000 A 
ATOM      4  C   UNL     1       0.676  10.032  19.654  0.00  0.00    +0.000 A 
ATOM      5  C   UNL     1       1.026  10.219  18.306  0.00  0.00    +0.000 A 
ATOM      6  C   UNL     1       1.872   9.330  17.626  0.00  0.00    +0.000 A 
ENDROOT
BRANCH   4   7
ATOM      7  N   UNL     1      -0.123  10.926  20.333  0.00  0.00    +0.000 N 
ATOM      8  C   UNL     1      -1.105  10.485  21.347  0.00  0.00    +0.000 C 
ATOM      9  C   UNL     1      -0.850  11.191  22.699  0.00  0.00    +0.000 C 
ATOM     10  N   UNL     1      -0.766  12.637  22.508  0.00  0.00    +0.000 N 
ATOM     11  C   UNL     1      -1.544  13.500  23.223  0.00  0.00    +0.000 A 
ATOM     12  N   UNL     1      -2.385  13.005  24.147  0.00  0.00    +0.000 NA
ATOM     13  C   UNL     1      -3.134  13.876  24.848  0.00  0.00    +0.000 A 
ATOM     14  C   UNL     1      -3.092  15.230  24.657  0.00  0.00    +0.000 A 
ATOM     15  C   UNL     1      -2.219  15.652  23.690  0.00  0.00    +0.000 A 
ATOM     16  N   UNL     1      -1.445  14.817  22.975  0.00  0.00    +0.000 NA
ATOM     17  C   UNL     1       0.189  13.108  21.507  0.00  0.00    +0.000 C 
ATOM     18  C   UNL     1      -0.040  12.391  20.159  0.00  0.00    +0.000 C 
ENDBRANCH   4   7
BRANCH   1  27
ATOM     19  C   UNL     1       2.240   3.081  19.613  0.00  0.00    +0.000 A 
ATOM     20  C   UNL     1       2.728   1.770  19.499  0.00  0.00    +0.000 A 
ATOM     21  C   UNL     1       3.767   1.454  18.596  0.00  0.00    +0.000 A 
ATOM     22  C   UNL     1       4.335   2.445  17.787  0.00  0.00    +0.000 A 
ATOM     23  C   UNL     1       3.841   3.728  17.916  0.00  0.00    +0.000 A 
ATOM     24  C   UNL     1       2.819   4.045  18.810  0.00  0.00    +0.000 A 
ATOM     25  O   UNL     1       2.489   5.378  18.796  0.00  0.00    +0.000 OA
ATOM     26  C   UNL     1       3.313   5.980  17.860  0.00  0.00    +0.000 C 
ATOM     27  C   UNL     1       3.292   7.287  17.582  0.00  0.00    +0.000 C 
ATOM     28  C   UNL     1       4.214   4.971  17.238  0.00  0.00    +0.000 C 
ATOM     29  O   UNL     1       5.058   5.126  16.383  0.00  0.00    +0.000 OA
BRANCH  19  31
ATOM     30  N   UNL     1       0.298   4.414  20.262  0.00  0.00    +0.000 N 
ATOM     31  C   UNL     1       1.150   3.389  20.572  0.00  0.00    +0.000 C 
ATOM     32  O   UNL     1       1.014   2.753  21.610  0.00  0.00    +0.000 OA
ATOM     33  H   UNL     1      -0.423   4.666  20.922  0.00  0.00    +0.000 HD
ATOM     34  H   UNL     1       0.396   4.987  19.432  0.00  0.00    +0.000 HD
ENDBRANCH  19  31
ENDBRANCH   1  27
TORSDOF 3
ENDMDL
MODEL 6
REMARK VINA RESULT:      -7.9      3.869     10.757
REMARK  Name = 
REMARK  3 active torsions:
REMARK  status: ('A' for Active; 'I' for Inactive)
REMARK    1  A    between atoms: C_2  and  C_4
REMARK    2  A    between atoms: C_12  and  C_13
REMARK    3  A    between atoms: C_16  and  N_17
REMARK                            x       y       z     vdW  Elec       q    Type
REMARK                         _______ _______ _______ _____ _____    ______ ____
ROOT
ATOM      1  C   UNL     1      -0.119  10.742  21.735  0.00  0.00    +0.000 A 
ATOM      2  C   UNL     1       0.083   9.423  22.137  0.00  0.00    +0.000 A 
ATOM      3  C   UNL     1       0.719   8.511  21.280  0.00  0.00    +0.000 A 
ATOM      4  C   UNL     1       1.179   8.876  20.007  0.00  0.00    +0.000 A 
ATOM      5  C   UNL     1       0.991  10.219  19.640  0.00  0.00    +0.000 A 
ATOM      6  C   UNL     1       0.353  11.139  20.486  0.00  0.00    +0.000 A 
ENDROOT
BRANCH   4   7
ATOM      7  N   UNL     1       1.770   7.963  19.161  0.00  0.00    +0.000 N 
ATOM      8  C   UNL     1       2.187   8.322  17.788  0.00  0.00    +0.000 C 
ATOM      9  C   UNL     1       3.688   8.019  17.575  0.00  0.00    +0.000 C 
ATOM     10  N   UNL     1       3.988   6.645  17.972  0.00  0.00    +0.000 N 
ATOM     11  C   UNL     1       4.609   5.774  17.125  0.00  0.00    +0.000 A 
ATOM     12  N   UNL     1       4.980   6.205  15.907  0.00  0.00    +0.000 NA
ATOM     13  C   UNL     1       5.601   5.332  15.093  0.00  0.00    +0.000 A 
ATOM     14  C   UNL     1       5.859   4.033  15.436  0.00  0.00    +0.000 A 
ATOM     15  C   UNL     1       5.439   3.671  16.689  0.00  0.00    +0.000 A 
ATOM     16  N   UNL     1       4.825   4.514  17.537  0.00  0.00    +0.000 NA
ATOM     17  C   UNL     1       3.583   6.252  19.320  0.00  0.00    +0.000 C 
ATOM     18  C   UNL     1       2.091   6.575  19.553  0.00  0.00    +0.000 C 
ENDBRANCH   4   7
BRANCH   1  27
ATOM     19  C   UNL     1      -4.732  12.833  20.146  0.00  0.00    +0.000 A 
ATOM     20  C   UNL     1      -5.807  13.716  20.335  0.00  0.00    +0.000 A 
ATOM     21  C   UNL     1      -5.898  14.515  21.495  0.00  0.00    +0.000 A 
ATOM     22  C   UNL     1      -4.918  14.443  22.491  0.00  0.00    +0.000 A 
ATOM     23  C   UNL     1      -3.869  13.568  22.285  0.00  0.00    +0.000 A 
ATOM     24  C   UNL     1      -3.772  12.782  21.138  0.00  0.00    +0.000 A 
ATOM     25  O   UNL     1      -2.645  11.998  21.121  0.00  0.00    +0.000 OA
ATOM     26  C   UNL     1      -1.961  12.262  22.296  0.00  0.00    +0.000 C 
ATOM     27  C   UNL     1      -0.797  11.691  22.622  0.00  0.00    +0.000 C 
ATOM     28  C   UNL     1      -2.698  13.266  23.110  0.00  0.00    +0.000 C 
ATOM     29  O   UNL     1      -2.410  13.733  24.190  0.00  0.00    +0.000 OA
BRANCH  19  31
ATOM     30  N   UNL     1      -3.498  12.056  18.185  0.00  0.00    +0.000 N 
ATOM     31  C   UNL     1      -4.655  12.006  18.916  0.00  0.00    +0.000 C 
ATOM     32  O   UNL     1      -5.592  11.304  18.559  0.00  0.00    +0.000 OA
ATOM     33  H   UNL     1      -3.443  11.533  17.323  0.00  0.00    +0.000 HD
ATOM     34  H   UNL     1      -2.713  12.649  18.426  0.00  0.00    +0.000 HD
ENDBRANCH  19  31
ENDBRANCH   1  27
TORSDOF 3
ENDMDL
MODEL 7
REMARK VINA RESULT:      -7.8      7.260     11.518
REMARK  Name = 
REMARK  3 active torsions:
REMARK  status: ('A' for Active; 'I' for Inactive)
REMARK    1  A    between atoms: C_2  and  C_4
REMARK    2  A    between atoms: C_12  and  C_13
REMARK    3  A    between atoms: C_16  and  N_17
REMARK                            x       y       z     vdW  Elec       q    Type
REMARK                         _______ _______ _______ _____ _____    ______ ____
ROOT
ATOM      1  C   UNL     1       9.178  10.785  18.438  0.00  0.00    +0.000 A 
ATOM      2  C   UNL     1       9.509   9.661  19.193  0.00  0.00    +0.000 A 
ATOM      3  C   UNL     1       8.829   8.450  18.996  0.00  0.00    +0.000 A 
ATOM      4  C   UNL     1       7.807   8.311  18.046  0.00  0.00    +0.000 A 
ATOM      5  C   UNL     1       7.516   9.449  17.277  0.00  0.00    +0.000 A 
ATOM      6  C   UNL     1       8.186  10.668  17.466  0.00  0.00    +0.000 A 
ENDROOT
BRANCH   4   7
ATOM      7  N   UNL     1       7.122   7.126  17.887  0.00  0.00    +0.000 N 
ATOM      8  C   UNL     1       7.456   5.916  18.671  0.00  0.00    +0.000 C 
ATOM      9  C   UNL     1       6.214   5.398  19.433  0.00  0.00    +0.000 C 
ATOM     10  N   UNL     1       5.085   5.249  18.518  0.00  0.00    +0.000 N 
ATOM     11  C   UNL     1       4.401   4.073  18.410  0.00  0.00    +0.000 A 
ATOM     12  N   UNL     1       4.759   3.038  19.190  0.00  0.00    +0.000 NA
ATOM     13  C   UNL     1       4.063   1.892  19.074  0.00  0.00    +0.000 A 
ATOM     14  C   UNL     1       3.026   1.726  18.198  0.00  0.00    +0.000 A 
ATOM     15  C   UNL     1       2.732   2.823  17.433  0.00  0.00    +0.000 A 
ATOM     16  N   UNL     1       3.394   3.989  17.524  0.00  0.00    +0.000 NA
ATOM     17  C   UNL     1       4.731   6.422  17.721  0.00  0.00    +0.000 C 
ATOM     18  C   UNL     1       5.970   6.964  16.976  0.00  0.00    +0.000 C 
ENDBRANCH   4   7
BRANCH   1  27
ATOM     19  C   UNL     1       8.448  13.324  23.041  0.00  0.00    +0.000 A 
ATOM     20  C   UNL     1       8.656  14.434  23.875  0.00  0.00    +0.000 A 
ATOM     21  C   UNL     1       9.476  15.509  23.467  0.00  0.00    +0.000 A 
ATOM     22  C   UNL     1      10.106  15.491  22.218  0.00  0.00    +0.000 A 
ATOM     23  C   UNL     1       9.887  14.390  21.413  0.00  0.00    +0.000 A 
ATOM     24  C   UNL     1       9.074  13.330  21.810  0.00  0.00    +0.000 A 
ATOM     25  O   UNL     1       8.974  12.346  20.857  0.00  0.00    +0.000 OA
ATOM     26  C   UNL     1       9.746  12.755  19.783  0.00  0.00    +0.000 C 
ATOM     27  C   UNL     1       9.877  12.055  18.652  0.00  0.00    +0.000 C 
ATOM     28  C   UNL     1      10.380  14.071  20.072  0.00  0.00    +0.000 C 
ATOM     29  O   UNL     1      11.120  14.730  19.376  0.00  0.00    +0.000 OA
BRANCH  19  31
ATOM     30  N   UNL     1       6.224  12.402  23.457  0.00  0.00    +0.000 N 
ATOM     31  C   UNL     1       7.578  12.208  23.491  0.00  0.00    +0.000 C 
ATOM     32  O   UNL     1       8.051  11.149  23.883  0.00  0.00    +0.000 OA
ATOM     33  H   UNL     1       5.618  11.670  23.799  0.00  0.00    +0.000 HD
ATOM     34  H   UNL     1       5.793  13.273  23.172  0.00  0.00    +0.000 HD
ENDBRANCH  19  31
ENDBRANCH   1  27
TORSDOF 3
ENDMDL
MODEL 8
REMARK VINA RESULT:      -7.8      3.162      4.469
REMARK  Name = 
REMARK  3 active torsions:
REMARK  status: ('A' for Active; 'I' for Inactive)
REMARK    1  A    between atoms: C_2  and  C_4
REMARK    2  A    between atoms: C_12  and  C_13
REMARK    3  A    between atoms: C_16  and  N_17
REMARK                            x       y       z     vdW  Elec       q    Type
REMARK                         _______ _______ _______ _____ _____    ______ ____
ROOT
ATOM      1  C   UNL     1       1.155   8.027  20.935  0.00  0.00    +0.000 A 
ATOM      2  C   UNL     1       1.269   8.600  19.669  0.00  0.00    +0.000 A 
ATOM      3  C   UNL     1       1.134   9.987  19.504  0.00  0.00    +0.000 A 
ATOM      4  C   UNL     1       0.889  10.848  20.583  0.00  0.00    +0.000 A 
ATOM      5  C   UNL     1       0.810  10.249  21.851  0.00  0.00    +0.000 A 
ATOM      6  C   UNL     1       0.940   8.863  22.029  0.00  0.00    +0.000 A 
ENDROOT
BRANCH   4   7
ATOM      7  N   UNL     1       0.722  12.204  20.404  0.00  0.00    +0.000 N 
ATOM      8  C   UNL     1       1.840  13.160  20.569  0.00  0.00    +0.000 C 
ATOM      9  C   UNL     1       2.031  14.005  19.289  0.00  0.00    +0.000 C 
ATOM     10  N   UNL     1       0.762  14.604  18.883  0.00  0.00    +0.000 N 
ATOM     11  C   UNL     1       0.637  15.947  18.676  0.00  0.00    +0.000 A 
ATOM     12  N   UNL     1       1.720  16.731  18.820  0.00  0.00    +0.000 NA
ATOM     13  C   UNL     1       1.575  18.050  18.599  0.00  0.00    +0.000 A 
ATOM     14  C   UNL     1       0.386  18.631  18.252  0.00  0.00    +0.000 A 
ATOM     15  C   UNL     1      -0.669  17.765  18.138  0.00  0.00    +0.000 A 
ATOM     16  N   UNL     1      -0.566  16.440  18.339  0.00  0.00    +0.000 NA
ATOM     17  C   UNL     1      -0.367  13.690  18.717  0.00  0.00    +0.000 C 
ATOM     18  C   UNL     1      -0.551  12.823  19.981  0.00  0.00    +0.000 C 
ENDBRANCH   4   7
BRANCH   1  27
ATOM     19  C   UNL     1       4.234   5.339  17.548  0.00  0.00    +0.000 A 
ATOM     20  C   UNL     1       4.752   4.130  17.059  0.00  0.00    +0.000 A 
ATOM     21  C   UNL     1       4.430   2.898  17.669  0.00  0.00    +0.000 A 
ATOM     22  C   UNL     1       3.586   2.853  18.785  0.00  0.00    +0.000 A 
ATOM     23  C   UNL     1       3.086   4.055  19.249  0.00  0.00    +0.000 A 
ATOM     24  C   UNL     1       3.398   5.272  18.646  0.00  0.00    +0.000 A 
ATOM     25  O   UNL     1       2.783   6.341  19.250  0.00  0.00    +0.000 OA
ATOM     26  C   UNL     1       2.035   5.829  20.296  0.00  0.00    +0.000 C 
ATOM     27  C   UNL     1       1.280   6.577  21.106  0.00  0.00    +0.000 C 
ATOM     28  C   UNL     1       2.188   4.350  20.366  0.00  0.00    +0.000 C 
ATOM     29  O   UNL     1       1.692   3.568  21.148  0.00  0.00    +0.000 OA
BRANCH  19  31
ATOM     30  N   UNL     1       3.732   7.679  17.056  0.00  0.00    +0.000 N 
ATOM     31  C   UNL     1       4.584   6.621  16.887  0.00  0.00    +0.000 C 
ATOM     32  O   UNL     1       5.597   6.733  16.209  0.00  0.00    +0.000 OA
ATOM     33  H   UNL     1       3.932   8.547  16.579  0.00  0.00    +0.000 HD
ATOM     34  H   UNL     1       2.867   7.619  17.580  0.00  0.00    +0.000 HD
ENDBRANCH  19  31
ENDBRANCH   1  27
TORSDOF 3
ENDMDL
MODEL 9
REMARK VINA RESULT:      -7.7      1.236      1.581
REMARK  Name = 
REMARK  3 active torsions:
REMARK  status: ('A' for Active; 'I' for Inactive)
REMARK    1  A    between atoms: C_2  and  C_4
REMARK    2  A    between atoms: C_12  and  C_13
REMARK    3  A    between atoms: C_16  and  N_17
REMARK                            x       y       z     vdW  Elec       q    Type
REMARK                         _______ _______ _______ _____ _____    ______ ____
ROOT
ATOM      1  C   UNL     1       2.462   8.208  18.268  0.00  0.00    +0.000 A 
ATOM      2  C   UNL     1       2.162   9.460  17.734  0.00  0.00    +0.000 A 
ATOM      3  C   UNL     1       1.401  10.380  18.470  0.00  0.00    +0.000 A 
ATOM      4  C   UNL     1       0.919  10.094  19.756  0.00  0.00    +0.000 A 
ATOM      5  C   UNL     1       1.263   8.838  20.283  0.00  0.00    +0.000 A 
ATOM      6  C   UNL     1       2.021   7.908  19.555  0.00  0.00    +0.000 A 
ENDROOT
BRANCH   4   7
ATOM      7  N   UNL     1       0.143  10.992  20.455  0.00  0.00    +0.000 N 
ATOM      8  C   UNL     1       0.715  12.210  21.070  0.00  0.00    +0.000 C 
ATOM      9  C   UNL     1      -0.014  13.475  20.559  0.00  0.00    +0.000 C 
ATOM     10  N   UNL     1      -1.458  13.325  20.715  0.00  0.00    +0.000 N 
ATOM     11  C   UNL     1      -2.208  14.251  21.380  0.00  0.00    +0.000 A 
ATOM     12  N   UNL     1      -1.601  15.343  21.876  0.00  0.00    +0.000 NA
ATOM     13  C   UNL     1      -2.361  16.249  22.519  0.00  0.00    +0.000 A 
ATOM     14  C   UNL     1      -3.709  16.106  22.702  0.00  0.00    +0.000 A 
ATOM     15  C   UNL     1      -4.248  14.962  22.177  0.00  0.00    +0.000 A 
ATOM     16  N   UNL     1      -3.526  14.037  21.520  0.00  0.00    +0.000 NA
ATOM     17  C   UNL     1      -2.057  12.129  20.126  0.00  0.00    +0.000 C 
ATOM     18  C   UNL     1      -1.321  10.861  20.609  0.00  0.00    +0.000 C 
ENDBRANCH   4   7
BRANCH   1  27
ATOM     19  C   UNL     1       2.318   3.105  19.721  0.00  0.00    +0.000 A 
ATOM     20  C   UNL     1       2.753   1.778  19.580  0.00  0.00    +0.000 A 
ATOM     21  C   UNL     1       3.672   1.415  18.571  0.00  0.00    +0.000 A 
ATOM     22  C   UNL     1       4.169   2.373  17.681  0.00  0.00    +0.000 A 
ATOM     23  C   UNL     1       3.729   3.673  17.839  0.00  0.00    +0.000 A 
ATOM     24  C   UNL     1       2.827   4.036  18.837  0.00  0.00    +0.000 A 
ATOM     25  O   UNL     1       2.534   5.378  18.832  0.00  0.00    +0.000 OA
ATOM     26  C   UNL     1       3.261   5.938  17.795  0.00  0.00    +0.000 C 
ATOM     27  C   UNL     1       3.244   7.239  17.493  0.00  0.00    +0.000 C 
ATOM     28  C   UNL     1       4.056   4.891  17.095  0.00  0.00    +0.000 C 
ATOM     29  O   UNL     1       4.800   5.006  16.146  0.00  0.00    +0.000 OA
BRANCH  19  31
ATOM     30  N   UNL     1       0.401   4.401  20.505  0.00  0.00    +0.000 N 
ATOM     31  C   UNL     1       1.355   3.462  20.792  0.00  0.00    +0.000 C 
ATOM     32  O   UNL     1       1.408   2.941  21.899  0.00  0.00    +0.000 OA
ATOM     33  H   UNL     1      -0.237   4.688  21.234  0.00  0.00    +0.000 HD
ATOM     34  H   UNL     1       0.342   4.881  19.615  0.00  0.00    +0.000 HD
ENDBRANCH  19  31
ENDBRANCH   1  27
TORSDOF 3
ENDMDL
