MODEL 1
REMARK VINA RESULT:      -7.5      0.000      0.000
REMARK  Name = 
REMARK  12 active torsions:
REMARK  status: ('A' for Active; 'I' for Inactive)
REMARK    1  A    between atoms: C_1  and  O_2
REMARK    2  A    between atoms: O_2  and  C_3
REMARK    3  A    between atoms: C_3  and  C_4
REMARK    4  A    between atoms: C_4  and  N_5
REMARK    5  A    between atoms: N_5  and  S_6
REMARK    6  A    between atoms: S_6  and  C_9
REMARK    7  A    between atoms: C_20  and  S_21
REMARK    8  A    between atoms: S_21  and  N_24
REMARK    9  A    between atoms: N_24  and  C_25
REMARK   10  A    between atoms: C_25  and  C_26
REMARK   11  A    between atoms: C_26  and  O_27
REMARK   12  A    between atoms: O_27  and  C_28
REMARK                            x       y       z     vdW  Elec       q    Type
REMARK                         _______ _______ _______ _____ _____    ______ ____
ROOT
ATOM      1  C   UNL     1       3.301   4.666  19.081  0.00  0.00    +0.000 A 
ATOM      2  C   UNL     1       2.756   4.695  20.366  0.00  0.00    +0.000 A 
ATOM      3  C   UNL     1       2.140   5.862  20.834  0.00  0.00    +0.000 A 
ATOM      4  C   UNL     1       2.036   7.012  20.027  0.00  0.00    +0.000 A 
ATOM      5  C   UNL     1       2.582   6.928  18.741  0.00  0.00    +0.000 A 
ATOM      6  C   UNL     1       3.212   5.781  18.251  0.00  0.00    +0.000 A 
ATOM      7  O   UNL     1       2.512   8.023  17.853  0.00  0.00    +0.000 OA
ATOM      8  C   UNL     1       1.904   9.227  18.179  0.00  0.00    +0.000 A 
ATOM      9  O   UNL     1       1.842  10.154  17.378  0.00  0.00    +0.000 OA
ATOM     10  C   UNL     1       1.332   9.346  19.548  0.00  0.00    +0.000 A 
ATOM     11  C   UNL     1       0.731  10.566  19.914  0.00  0.00    +0.000 A 
ATOM     12  C   UNL     1       0.173  10.705  21.188  0.00  0.00    +0.000 A 
ATOM     13  C   UNL     1       0.224   9.651  22.097  0.00  0.00    +0.000 A 
ATOM     14  C   UNL     1       0.829   8.446  21.723  0.00  0.00    +0.000 A 
ATOM     15  C   UNL     1       1.394   8.265  20.444  0.00  0.00    +0.000 A 
ENDROOT
BRANCH   1  16
ATOM     16  S   UNL     1       4.059   3.166  18.499  0.00  0.00    +0.000 S 
ATOM     17  O   UNL     1       3.041   2.377  17.841  0.00  0.00    +0.000 OA
ATOM     18  O   UNL     1       4.842   2.662  19.603  0.00  0.00    +0.000 OA
BRANCH  16  19
ATOM     19  N   UNL     1       5.126   3.758  17.329  0.00  0.00    +0.000 NA
ATOM     20  H   UNL     1       5.361   3.065  16.621  0.00  0.00    +0.000 HD
BRANCH  19  21
ATOM     21  C   UNL     1       6.290   4.521  17.837  0.00  0.00    +0.000 C 
BRANCH  21  22
ATOM     22  C   UNL     1       7.441   4.519  16.826  0.00  0.00    +0.000 C 
BRANCH  22  24
ATOM     23  C   UNL     1       7.047   4.883  14.527  0.00  0.00    +0.000 C 
ATOM     24  O   UNL     1       7.200   5.485  15.804  0.00  0.00    +0.000 OA
ENDBRANCH  22  24
ENDBRANCH  21  22
ENDBRANCH  19  21
ENDBRANCH  16  19
ENDBRANCH   1  16
BRANCH  12  25
ATOM     25  S   UNL     1      -0.549  12.243  21.710  0.00  0.00    +0.000 S 
ATOM     26  O   UNL     1      -0.675  12.174  23.148  0.00  0.00    +0.000 OA
ATOM     27  O   UNL     1       0.150  13.325  21.052  0.00  0.00    +0.000 OA
BRANCH  25  28
ATOM     28  N   UNL     1      -2.112  12.159  21.081  0.00  0.00    +0.000 NA
ATOM     29  H   UNL     1      -2.803  12.441  21.784  0.00  0.00    +0.000 HD
BRANCH  28  30
ATOM     30  C   UNL     1      -2.323  12.773  19.754  0.00  0.00    +0.000 C 
BRANCH  30  31
ATOM     31  C   UNL     1      -2.940  11.764  18.780  0.00  0.00    +0.000 C 
BRANCH  31  32
ATOM     32  O   UNL     1      -2.080  11.608  17.644  0.00  0.00    +0.000 OA
ATOM     33  C   UNL     1      -1.829  10.234  17.367  0.00  0.00    +0.000 C 
ENDBRANCH  31  32
ENDBRANCH  30  31
ENDBRANCH  28  30
ENDBRANCH  25  28
ENDBRANCH  12  25
TORSDOF 10
ENDMDL
MODEL 2
REMARK VINA RESULT:      -7.5      2.139      3.434
REMARK  Name = 
REMARK  12 active torsions:
REMARK  status: ('A' for Active; 'I' for Inactive)
REMARK    1  A    between atoms: C_1  and  O_2
REMARK    2  A    between atoms: O_2  and  C_3
REMARK    3  A    between atoms: C_3  and  C_4
REMARK    4  A    between atoms: C_4  and  N_5
REMARK    5  A    between atoms: N_5  and  S_6
REMARK    6  A    between atoms: S_6  and  C_9
REMARK    7  A    between atoms: C_20  and  S_21
REMARK    8  A    between atoms: S_21  and  N_24
REMARK    9  A    between atoms: N_24  and  C_25
REMARK   10  A    between atoms: C_25  and  C_26
REMARK   11  A    between atoms: C_26  and  O_27
REMARK   12  A    between atoms: O_27  and  C_28
REMARK                            x       y       z     vdW  Elec       q    Type
REMARK                         _______ _______ _______ _____ _____    ______ ____
ROOT
ATOM      1  C   UNL     1       4.195   5.565  18.512  0.00  0.00    +0.000 A 
ATOM      2  C   UNL     1       4.210   6.525  17.499  0.00  0.00    +0.000 A 
ATOM      3  C   UNL     1       3.357   7.631  17.577  0.00  0.00    +0.000 A 
ATOM      4  C   UNL     1       2.489   7.814  18.671  0.00  0.00    +0.000 A 
ATOM      5  C   UNL     1       2.522   6.833  19.669  0.00  0.00    +0.000 A 
ATOM      6  C   UNL     1       3.355   5.714  19.613  0.00  0.00    +0.000 A 
ATOM      7  O   UNL     1       1.700   6.937  20.813  0.00  0.00    +0.000 OA
ATOM      8  C   UNL     1       0.831   7.996  21.029  0.00  0.00    +0.000 A 
ATOM      9  O   UNL     1       0.144   8.068  22.043  0.00  0.00    +0.000 OA
ATOM     10  C   UNL     1       0.765   9.043  19.972  0.00  0.00    +0.000 A 
ATOM     11  C   UNL     1      -0.128  10.116  20.154  0.00  0.00    +0.000 A 
ATOM     12  C   UNL     1      -0.204  11.122  19.187  0.00  0.00    +0.000 A 
ATOM     13  C   UNL     1       0.585  11.056  18.041  0.00  0.00    +0.000 A 
ATOM     14  C   UNL     1       1.464   9.981  17.869  0.00  0.00    +0.000 A 
ATOM     15  C   UNL     1       1.576   8.953  18.827  0.00  0.00    +0.000 A 
ENDROOT
BRANCH   1  16
ATOM     16  S   UNL     1       5.304   4.179  18.403  0.00  0.00    +0.000 S 
ATOM     17  O   UNL     1       5.281   3.488  19.673  0.00  0.00    +0.000 OA
ATOM     18  O   UNL     1       6.522   4.688  17.817  0.00  0.00    +0.000 OA
BRANCH  16  19
ATOM     19  N   UNL     1       4.531   3.216  17.250  0.00  0.00    +0.000 NA
ATOM     20  H   UNL     1       4.738   3.499  16.294  0.00  0.00    +0.000 HD
BRANCH  19  21
ATOM     21  C   UNL     1       3.098   2.930  17.496  0.00  0.00    +0.000 C 
BRANCH  21  22
ATOM     22  C   UNL     1       2.921   1.671  18.353  0.00  0.00    +0.000 C 
BRANCH  22  24
ATOM     23  C   UNL     1       0.863   2.710  18.868  0.00  0.00    +0.000 C 
ATOM     24  O   UNL     1       1.919   1.890  19.346  0.00  0.00    +0.000 OA
ENDBRANCH  22  24
ENDBRANCH  21  22
ENDBRANCH  19  21
ENDBRANCH  16  19
ENDBRANCH   1  16
BRANCH  12  25
ATOM     25  S   UNL     1      -1.353  12.467  19.350  0.00  0.00    +0.000 S 
ATOM     26  O   UNL     1      -2.185  12.166  20.492  0.00  0.00    +0.000 OA
ATOM     27  O   UNL     1      -0.622  13.712  19.240  0.00  0.00    +0.000 OA
BRANCH  25  28
ATOM     28  N   UNL     1      -2.327  12.300  17.983  0.00  0.00    +0.000 NA
ATOM     29  H   UNL     1      -1.755  12.183  17.141  0.00  0.00    +0.000 HD
BRANCH  28  30
ATOM     30  C   UNL     1      -3.446  11.341  18.083  0.00  0.00    +0.000 C 
BRANCH  30  31
ATOM     31  C   UNL     1      -3.162  10.084  17.256  0.00  0.00    +0.000 C 
BRANCH  31  32
ATOM     32  O   UNL     1      -2.339  10.425  16.133  0.00  0.00    +0.000 OA
ATOM     33  C   UNL     1      -3.061  10.327  14.910  0.00  0.00    +0.000 C 
ENDBRANCH  31  32
ENDBRANCH  30  31
ENDBRANCH  28  30
ENDBRANCH  25  28
ENDBRANCH  12  25
TORSDOF 10
ENDMDL
MODEL 3
REMARK VINA RESULT:      -7.4      0.729      1.048
REMARK  Name = 
REMARK  12 active torsions:
REMARK  status: ('A' for Active; 'I' for Inactive)
REMARK    1  A    between atoms: C_1  and  O_2
REMARK    2  A    between atoms: O_2  and  C_3
REMARK    3  A    between atoms: C_3  and  C_4
REMARK    4  A    between atoms: C_4  and  N_5
REMARK    5  A    between atoms: N_5  and  S_6
REMARK    6  A    between atoms: S_6  and  C_9
REMARK    7  A    between atoms: C_20  and  S_21
REMARK    8  A    between atoms: S_21  and  N_24
REMARK    9  A    between atoms: N_24  and  C_25
REMARK   10  A    between atoms: C_25  and  C_26
REMARK   11  A    between atoms: C_26  and  O_27
REMARK   12  A    between atoms: O_27  and  C_28
REMARK                            x       y       z     vdW  Elec       q    Type
REMARK                         _______ _______ _______ _____ _____    ______ ____
ROOT
ATOM      1  C   UNL     1       3.263   4.583  19.120  0.00  0.00    +0.000 A 
ATOM      2  C   UNL     1       2.683   4.613  20.389  0.00  0.00    +0.000 A 
ATOM      3  C   UNL     1       2.066   5.784  20.845  0.00  0.00    +0.000 A 
ATOM      4  C   UNL     1       1.997   6.938  20.040  0.00  0.00    +0.000 A 
ATOM      5  C   UNL     1       2.579   6.853  18.770  0.00  0.00    +0.000 A 
ATOM      6  C   UNL     1       3.210   5.702  18.293  0.00  0.00    +0.000 A 
ATOM      7  O   UNL     1       2.546   7.953  17.885  0.00  0.00    +0.000 OA
ATOM      8  C   UNL     1       1.941   9.162  18.198  0.00  0.00    +0.000 A 
ATOM      9  O   UNL     1       1.912  10.093  17.400  0.00  0.00    +0.000 OA
ATOM     10  C   UNL     1       1.332   9.282  19.552  0.00  0.00    +0.000 A 
ATOM     11  C   UNL     1       0.734  10.507  19.905  0.00  0.00    +0.000 A 
ATOM     12  C   UNL     1       0.141  10.647  21.163  0.00  0.00    +0.000 A 
ATOM     13  C   UNL     1       0.156   9.589  22.069  0.00  0.00    +0.000 A 
ATOM     14  C   UNL     1       0.758   8.379  21.707  0.00  0.00    +0.000 A 
ATOM     15  C   UNL     1       1.357   8.196  20.445  0.00  0.00    +0.000 A 
ENDROOT
BRANCH   1  16
ATOM     16  S   UNL     1       4.022   3.077  18.554  0.00  0.00    +0.000 S 
ATOM     17  O   UNL     1       2.981   2.227  18.020  0.00  0.00    +0.000 OA
ATOM     18  O   UNL     1       4.905   2.653  19.615  0.00  0.00    +0.000 OA
BRANCH  16  19
ATOM     19  N   UNL     1       4.973   3.637  17.274  0.00  0.00    +0.000 NA
ATOM     20  H   UNL     1       5.097   2.944  16.539  0.00  0.00    +0.000 HD
BRANCH  19  21
ATOM     21  C   UNL     1       6.218   4.345  17.652  0.00  0.00    +0.000 C 
BRANCH  21  22
ATOM     22  C   UNL     1       7.021   4.760  16.413  0.00  0.00    +0.000 C 
BRANCH  22  24
ATOM     23  C   UNL     1       6.573   6.934  17.220  0.00  0.00    +0.000 C 
ATOM     24  O   UNL     1       7.513   6.091  16.569  0.00  0.00    +0.000 OA
ENDBRANCH  22  24
ENDBRANCH  21  22
ENDBRANCH  19  21
ENDBRANCH  16  19
ENDBRANCH   1  16
BRANCH  12  25
ATOM     25  S   UNL     1      -0.579  12.190  21.672  0.00  0.00    +0.000 S 
ATOM     26  O   UNL     1      -0.512  12.223  23.114  0.00  0.00    +0.000 OA
ATOM     27  O   UNL     1      -0.024  13.247  20.853  0.00  0.00    +0.000 OA
BRANCH  25  28
ATOM     28  N   UNL     1      -2.204  12.000  21.264  0.00  0.00    +0.000 NA
ATOM     29  H   UNL     1      -2.805  12.160  22.079  0.00  0.00    +0.000 HD
BRANCH  28  30
ATOM     30  C   UNL     1      -2.663  12.688  20.040  0.00  0.00    +0.000 C 
BRANCH  30  31
ATOM     31  C   UNL     1      -2.632  11.739  18.838  0.00  0.00    +0.000 C 
BRANCH  31  32
ATOM     32  O   UNL     1      -3.919  11.723  18.208  0.00  0.00    +0.000 OA
ATOM     33  C   UNL     1      -4.937  12.184  19.091  0.00  0.00    +0.000 C 
ENDBRANCH  31  32
ENDBRANCH  30  31
ENDBRANCH  28  30
ENDBRANCH  25  28
ENDBRANCH  12  25
TORSDOF 10
ENDMDL
MODEL 4
REMARK VINA RESULT:      -7.4      1.907      2.753
REMARK  Name = 
REMARK  12 active torsions:
REMARK  status: ('A' for Active; 'I' for Inactive)
REMARK    1  A    between atoms: C_1  and  O_2
REMARK    2  A    between atoms: O_2  and  C_3
REMARK    3  A    between atoms: C_3  and  C_4
REMARK    4  A    between atoms: C_4  and  N_5
REMARK    5  A    between atoms: N_5  and  S_6
REMARK    6  A    between atoms: S_6  and  C_9
REMARK    7  A    between atoms: C_20  and  S_21
REMARK    8  A    between atoms: S_21  and  N_24
REMARK    9  A    between atoms: N_24  and  C_25
REMARK   10  A    between atoms: C_25  and  C_26
REMARK   11  A    between atoms: C_26  and  O_27
REMARK   12  A    between atoms: O_27  and  C_28
REMARK                            x       y       z     vdW  Elec       q    Type
REMARK                         _______ _______ _______ _____ _____    ______ ____
ROOT
ATOM      1  C   UNL     1       3.115   4.797  19.111  0.00  0.00    +0.000 A 
ATOM      2  C   UNL     1       2.518   4.837  20.373  0.00  0.00    +0.000 A 
ATOM      3  C   UNL     1       1.928   6.022  20.826  0.00  0.00    +0.000 A 
ATOM      4  C   UNL     1       1.902   7.182  20.027  0.00  0.00    +0.000 A 
ATOM      5  C   UNL     1       2.499   7.088  18.765  0.00  0.00    +0.000 A 
ATOM      6  C   UNL     1       3.104   5.922  18.290  0.00  0.00    +0.000 A 
ATOM      7  O   UNL     1       2.509   8.193  17.885  0.00  0.00    +0.000 OA
ATOM      8  C   UNL     1       1.934   9.416  18.197  0.00  0.00    +0.000 A 
ATOM      9  O   UNL     1       1.941  10.352  17.404  0.00  0.00    +0.000 OA
ATOM     10  C   UNL     1       1.309   9.546  19.543  0.00  0.00    +0.000 A 
ATOM     11  C   UNL     1       0.740  10.785  19.895  0.00  0.00    +0.000 A 
ATOM     12  C   UNL     1       0.134  10.935  21.145  0.00  0.00    +0.000 A 
ATOM     13  C   UNL     1       0.107   9.872  22.045  0.00  0.00    +0.000 A 
ATOM     14  C   UNL     1       0.680   8.648  21.685  0.00  0.00    +0.000 A 
ATOM     15  C   UNL     1       1.292   8.455  20.430  0.00  0.00    +0.000 A 
ENDROOT
BRANCH   1  16
ATOM     16  S   UNL     1       3.839   3.274  18.548  0.00  0.00    +0.000 S 
ATOM     17  O   UNL     1       3.750   3.245  17.105  0.00  0.00    +0.000 OA
ATOM     18  O   UNL     1       3.282   2.235  19.382  0.00  0.00    +0.000 OA
BRANCH  16  19
ATOM     19  N   UNL     1       5.458   3.486  18.986  0.00  0.00    +0.000 NA
ATOM     20  H   UNL     1       5.583   3.619  19.988  0.00  0.00    +0.000 HD
BRANCH  19  21
ATOM     21  C   UNL     1       6.239   4.427  18.151  0.00  0.00    +0.000 C 
BRANCH  21  22
ATOM     22  C   UNL     1       6.770   5.601  18.981  0.00  0.00    +0.000 C 
BRANCH  22  24
ATOM     23  C   UNL     1       7.509   7.380  17.616  0.00  0.00    +0.000 C 
ATOM     24  O   UNL     1       7.882   6.206  18.323  0.00  0.00    +0.000 OA
ENDBRANCH  22  24
ENDBRANCH  21  22
ENDBRANCH  19  21
ENDBRANCH  16  19
ENDBRANCH   1  16
BRANCH  12  25
ATOM     25  S   UNL     1      -0.550  12.495  21.652  0.00  0.00    +0.000 S 
ATOM     26  O   UNL     1       0.566  13.390  21.853  0.00  0.00    +0.000 OA
ATOM     27  O   UNL     1      -1.649  12.823  20.769  0.00  0.00    +0.000 OA
BRANCH  25  28
ATOM     28  N   UNL     1      -1.179  12.153  23.179  0.00  0.00    +0.000 NA
ATOM     29  H   UNL     1      -0.689  12.687  23.903  0.00  0.00    +0.000 HD
BRANCH  28  30
ATOM     30  C   UNL     1      -2.651  12.181  23.308  0.00  0.00    +0.000 C 
BRANCH  30  31
ATOM     31  C   UNL     1      -3.125  13.538  23.836  0.00  0.00    +0.000 C 
BRANCH  31  32
ATOM     32  O   UNL     1      -2.015  14.248  24.399  0.00  0.00    +0.000 OA
ATOM     33  C   UNL     1      -2.442  15.195  25.373  0.00  0.00    +0.000 C 
ENDBRANCH  31  32
ENDBRANCH  30  31
ENDBRANCH  28  30
ENDBRANCH  25  28
ENDBRANCH  12  25
TORSDOF 10
ENDMDL
MODEL 5
REMARK VINA RESULT:      -7.3      1.231      1.426
REMARK  Name = 
REMARK  12 active torsions:
REMARK  status: ('A' for Active; 'I' for Inactive)
REMARK    1  A    between atoms: C_1  and  O_2
REMARK    2  A    between atoms: O_2  and  C_3
REMARK    3  A    between atoms: C_3  and  C_4
REMARK    4  A    between atoms: C_4  and  N_5
REMARK    5  A    between atoms: N_5  and  S_6
REMARK    6  A    between atoms: S_6  and  C_9
REMARK    7  A    between atoms: C_20  and  S_21
REMARK    8  A    between atoms: S_21  and  N_24
REMARK    9  A    between atoms: N_24  and  C_25
REMARK   10  A    between atoms: C_25  and  C_26
REMARK   11  A    between atoms: C_26  and  O_27
REMARK   12  A    between atoms: O_27  and  C_28
REMARK                            x       y       z     vdW  Elec       q    Type
REMARK                         _______ _______ _______ _____ _____    ______ ____
ROOT
ATOM      1  C   UNL     1       3.301   4.790  19.033  0.00  0.00    +0.000 A 
ATOM      2  C   UNL     1       2.730   4.748  20.307  0.00  0.00    +0.000 A 
ATOM      3  C   UNL     1       2.070   5.875  20.810  0.00  0.00    +0.000 A 
ATOM      4  C   UNL     1       1.949   7.055  20.051  0.00  0.00    +0.000 A 
ATOM      5  C   UNL     1       2.524   7.042  18.775  0.00  0.00    +0.000 A 
ATOM      6  C   UNL     1       3.196   5.937  18.251  0.00  0.00    +0.000 A 
ATOM      7  O   UNL     1       2.440   8.173  17.933  0.00  0.00    +0.000 OA
ATOM      8  C   UNL     1       1.789   9.343  18.296  0.00  0.00    +0.000 A 
ATOM      9  O   UNL     1       1.716  10.302  17.534  0.00  0.00    +0.000 OA
ATOM     10  C   UNL     1       1.186   9.387  19.657  0.00  0.00    +0.000 A 
ATOM     11  C   UNL     1       0.543  10.572  20.061  0.00  0.00    +0.000 A 
ATOM     12  C   UNL     1      -0.045  10.641  21.327  0.00  0.00    +0.000 A 
ATOM     13  C   UNL     1       0.019   9.550  22.192  0.00  0.00    +0.000 A 
ATOM     14  C   UNL     1       0.666   8.381  21.780  0.00  0.00    +0.000 A 
ATOM     15  C   UNL     1       1.262   8.270  20.507  0.00  0.00    +0.000 A 
ENDROOT
BRANCH   1  16
ATOM     16  S   UNL     1       4.115   3.339  18.405  0.00  0.00    +0.000 S 
ATOM     17  O   UNL     1       3.975   3.336  16.966  0.00  0.00    +0.000 OA
ATOM     18  O   UNL     1       3.667   2.242  19.232  0.00  0.00    +0.000 OA
BRANCH  16  19
ATOM     19  N   UNL     1       5.728   3.661  18.792  0.00  0.00    +0.000 NA
ATOM     20  H   UNL     1       5.922   3.574  19.788  0.00  0.00    +0.000 HD
BRANCH  19  21
ATOM     21  C   UNL     1       6.318   4.867  18.166  0.00  0.00    +0.000 C 
BRANCH  21  22
ATOM     22  C   UNL     1       7.618   4.531  17.427  0.00  0.00    +0.000 C 
BRANCH  22  24
ATOM     23  C   UNL     1       6.747   4.546  15.232  0.00  0.00    +0.000 C 
ATOM     24  O   UNL     1       7.636   5.167  16.149  0.00  0.00    +0.000 OA
ENDBRANCH  22  24
ENDBRANCH  21  22
ENDBRANCH  19  21
ENDBRANCH  16  19
ENDBRANCH   1  16
BRANCH  12  25
ATOM     25  S   UNL     1      -0.823  12.133  21.899  0.00  0.00    +0.000 S 
ATOM     26  O   UNL     1      -1.814  11.737  22.872  0.00  0.00    +0.000 OA
ATOM     27  O   UNL     1       0.210  13.100  22.204  0.00  0.00    +0.000 OA
BRANCH  25  28
ATOM     28  N   UNL     1      -1.664  12.666  20.538  0.00  0.00    +0.000 NA
ATOM     29  H   UNL     1      -2.538  12.144  20.422  0.00  0.00    +0.000 HD
BRANCH  28  30
ATOM     30  C   UNL     1      -1.816  14.128  20.385  0.00  0.00    +0.000 C 
BRANCH  30  31
ATOM     31  C   UNL     1      -0.619  14.724  19.638  0.00  0.00    +0.000 C 
BRANCH  31  32
ATOM     32  O   UNL     1      -0.171  13.802  18.637  0.00  0.00    +0.000 OA
ATOM     33  C   UNL     1       1.251  13.766  18.562  0.00  0.00    +0.000 C 
ENDBRANCH  31  32
ENDBRANCH  30  31
ENDBRANCH  28  30
ENDBRANCH  25  28
ENDBRANCH  12  25
TORSDOF 10
ENDMDL
MODEL 6
REMARK VINA RESULT:      -7.3      2.837      4.670
REMARK  Name = 
REMARK  12 active torsions:
REMARK  status: ('A' for Active; 'I' for Inactive)
REMARK    1  A    between atoms: C_1  and  O_2
REMARK    2  A    between atoms: O_2  and  C_3
REMARK    3  A    between atoms: C_3  and  C_4
REMARK    4  A    between atoms: C_4  and  N_5
REMARK    5  A    between atoms: N_5  and  S_6
REMARK    6  A    between atoms: S_6  and  C_9
REMARK    7  A    between atoms: C_20  and  S_21
REMARK    8  A    between atoms: S_21  and  N_24
REMARK    9  A    between atoms: N_24  and  C_25
REMARK   10  A    between atoms: C_25  and  C_26
REMARK   11  A    between atoms: C_26  and  O_27
REMARK   12  A    between atoms: O_27  and  C_28
REMARK                            x       y       z     vdW  Elec       q    Type
REMARK                         _______ _______ _______ _____ _____    ______ ____
ROOT
ATOM      1  C   UNL     1       2.517   7.151  18.809  0.00  0.00    +0.000 A 
ATOM      2  C   UNL     1       2.085   8.095  17.877  0.00  0.00    +0.000 A 
ATOM      3  C   UNL     1       1.321   9.190  18.298  0.00  0.00    +0.000 A 
ATOM      4  C   UNL     1       0.991   9.376  19.655  0.00  0.00    +0.000 A 
ATOM      5  C   UNL     1       1.460   8.411  20.553  0.00  0.00    +0.000 A 
ATOM      6  C   UNL     1       2.215   7.304  20.160  0.00  0.00    +0.000 A 
ATOM      7  O   UNL     1       1.195   8.520  21.936  0.00  0.00    +0.000 OA
ATOM      8  C   UNL     1       0.476   9.570  22.490  0.00  0.00    +0.000 A 
ATOM      9  O   UNL     1       0.278   9.647  23.698  0.00  0.00    +0.000 OA
ATOM     10  C   UNL     1      -0.051  10.599  21.551  0.00  0.00    +0.000 A 
ATOM     11  C   UNL     1      -0.805  11.661  22.084  0.00  0.00    +0.000 A 
ATOM     12  C   UNL     1      -1.302  12.650  21.231  0.00  0.00    +0.000 A 
ATOM     13  C   UNL     1      -1.067  12.579  19.859  0.00  0.00    +0.000 A 
ATOM     14  C   UNL     1      -0.320  11.515  19.342  0.00  0.00    +0.000 A 
ATOM     15  C   UNL     1       0.205  10.504  20.172  0.00  0.00    +0.000 A 
ENDROOT
BRANCH   1  16
ATOM     16  S   UNL     1       3.505   5.780  18.254  0.00  0.00    +0.000 S 
ATOM     17  O   UNL     1       4.205   5.242  19.399  0.00  0.00    +0.000 OA
ATOM     18  O   UNL     1       4.190   6.238  17.068  0.00  0.00    +0.000 OA
BRANCH  16  19
ATOM     19  N   UNL     1       2.316   4.677  17.779  0.00  0.00    +0.000 NA
ATOM     20  H   UNL     1       1.788   4.989  16.967  0.00  0.00    +0.000 HD
BRANCH  19  21
ATOM     21  C   UNL     1       1.479   4.116  18.865  0.00  0.00    +0.000 C 
BRANCH  21  22
ATOM     22  C   UNL     1       1.806   2.640  19.116  0.00  0.00    +0.000 C 
BRANCH  22  24
ATOM     23  C   UNL     1       1.878   3.409  21.348  0.00  0.00    +0.000 C 
ATOM     24  O   UNL     1       1.590   2.315  20.489  0.00  0.00    +0.000 OA
ENDBRANCH  22  24
ENDBRANCH  21  22
ENDBRANCH  19  21
ENDBRANCH  16  19
ENDBRANCH   1  16
BRANCH  12  25
ATOM     25  S   UNL     1      -2.303  13.981  21.852  0.00  0.00    +0.000 S 
ATOM     26  O   UNL     1      -1.688  14.422  23.083  0.00  0.00    +0.000 OA
ATOM     27  O   UNL     1      -2.582  14.893  20.764  0.00  0.00    +0.000 OA
BRANCH  25  28
ATOM     28  N   UNL     1      -3.739  13.206  22.277  0.00  0.00    +0.000 NA
ATOM     29  H   UNL     1      -3.629  12.187  22.236  0.00  0.00    +0.000 HD
BRANCH  28  30
ATOM     30  C   UNL     1      -4.410  13.685  23.503  0.00  0.00    +0.000 C 
BRANCH  30  31
ATOM     31  C   UNL     1      -4.485  12.572  24.553  0.00  0.00    +0.000 C 
BRANCH  31  32
ATOM     32  O   UNL     1      -5.727  11.869  24.419  0.00  0.00    +0.000 OA
ATOM     33  C   UNL     1      -6.797  12.758  24.113  0.00  0.00    +0.000 C 
ENDBRANCH  31  32
ENDBRANCH  30  31
ENDBRANCH  28  30
ENDBRANCH  25  28
ENDBRANCH  12  25
TORSDOF 10
ENDMDL
MODEL 7
REMARK VINA RESULT:      -7.2      1.497      2.146
REMARK  Name = 
REMARK  12 active torsions:
REMARK  status: ('A' for Active; 'I' for Inactive)
REMARK    1  A    between atoms: C_1  and  O_2
REMARK    2  A    between atoms: O_2  and  C_3
REMARK    3  A    between atoms: C_3  and  C_4
REMARK    4  A    between atoms: C_4  and  N_5
REMARK    5  A    between atoms: N_5  and  S_6
REMARK    6  A    between atoms: S_6  and  C_9
REMARK    7  A    between atoms: C_20  and  S_21
REMARK    8  A    between atoms: S_21  and  N_24
REMARK    9  A    between atoms: N_24  and  C_25
REMARK   10  A    between atoms: C_25  and  C_26
REMARK   11  A    between atoms: C_26  and  O_27
REMARK   12  A    between atoms: O_27  and  C_28
REMARK                            x       y       z     vdW  Elec       q    Type
REMARK                         _______ _______ _______ _____ _____    ______ ____
ROOT
ATOM      1  C   UNL     1       3.237   4.511  19.186  0.00  0.00    +0.000 A 
ATOM      2  C   UNL     1       2.656   4.573  20.454  0.00  0.00    +0.000 A 
ATOM      3  C   UNL     1       2.056   5.761  20.887  0.00  0.00    +0.000 A 
ATOM      4  C   UNL     1       2.004   6.901  20.061  0.00  0.00    +0.000 A 
ATOM      5  C   UNL     1       2.585   6.784  18.793  0.00  0.00    +0.000 A 
ATOM      6  C   UNL     1       3.199   5.615  18.339  0.00  0.00    +0.000 A 
ATOM      7  O   UNL     1       2.568   7.867  17.887  0.00  0.00    +0.000 OA
ATOM      8  C   UNL     1       1.980   9.090  18.177  0.00  0.00    +0.000 A 
ATOM      9  O   UNL     1       1.965  10.006  17.361  0.00  0.00    +0.000 OA
ATOM     10  C   UNL     1       1.372   9.244  19.528  0.00  0.00    +0.000 A 
ATOM     11  C   UNL     1       0.792  10.484  19.858  0.00  0.00    +0.000 A 
ATOM     12  C   UNL     1       0.200  10.656  21.112  0.00  0.00    +0.000 A 
ATOM     13  C   UNL     1       0.199   9.615  22.038  0.00  0.00    +0.000 A 
ATOM     14  C   UNL     1       0.784   8.390  21.700  0.00  0.00    +0.000 A 
ATOM     15  C   UNL     1       1.382   8.175  20.441  0.00  0.00    +0.000 A 
ENDROOT
BRANCH   1  16
ATOM     16  S   UNL     1       3.974   2.984  18.649  0.00  0.00    +0.000 S 
ATOM     17  O   UNL     1       2.948   2.195  18.005  0.00  0.00    +0.000 OA
ATOM     18  O   UNL     1       4.741   2.496  19.772  0.00  0.00    +0.000 OA
BRANCH  16  19
ATOM     19  N   UNL     1       5.058   3.527  17.472  0.00  0.00    +0.000 NA
ATOM     20  H   UNL     1       5.496   2.767  16.956  0.00  0.00    +0.000 HD
BRANCH  19  21
ATOM     21  C   UNL     1       5.999   4.589  17.896  0.00  0.00    +0.000 C 
BRANCH  21  22
ATOM     22  C   UNL     1       7.372   4.413  17.237  0.00  0.00    +0.000 C 
BRANCH  22  24
ATOM     23  C   UNL     1       7.054   4.950  14.959  0.00  0.00    +0.000 C 
ATOM     24  O   UNL     1       7.555   5.391  16.213  0.00  0.00    +0.000 OA
ENDBRANCH  22  24
ENDBRANCH  21  22
ENDBRANCH  19  21
ENDBRANCH  16  19
ENDBRANCH   1  16
BRANCH  12  25
ATOM     25  S   UNL     1      -0.498  12.219  21.591  0.00  0.00    +0.000 S 
ATOM     26  O   UNL     1       0.609  13.131  21.765  0.00  0.00    +0.000 OA
ATOM     27  O   UNL     1      -1.606  12.516  20.709  0.00  0.00    +0.000 OA
BRANCH  25  28
ATOM     28  N   UNL     1      -1.113  11.902  23.129  0.00  0.00    +0.000 NA
ATOM     29  H   UNL     1      -0.631  12.465  23.837  0.00  0.00    +0.000 HD
BRANCH  28  30
ATOM     30  C   UNL     1      -2.584  11.901  23.265  0.00  0.00    +0.000 C 
BRANCH  30  31
ATOM     31  C   UNL     1      -3.079  13.236  23.832  0.00  0.00    +0.000 C 
BRANCH  31  32
ATOM     32  O   UNL     1      -4.356  13.553  23.267  0.00  0.00    +0.000 OA
ATOM     33  C   UNL     1      -4.229  14.433  22.154  0.00  0.00    +0.000 C 
ENDBRANCH  31  32
ENDBRANCH  30  31
ENDBRANCH  28  30
ENDBRANCH  25  28
ENDBRANCH  12  25
TORSDOF 10
ENDMDL
MODEL 8
REMARK VINA RESULT:      -7.2      2.716      3.935
REMARK  Name = 
REMARK  12 active torsions:
REMARK  status: ('A' for Active; 'I' for Inactive)
REMARK    1  A    between atoms: C_1  and  O_2
REMARK    2  A    between atoms: O_2  and  C_3
REMARK    3  A    between atoms: C_3  and  C_4
REMARK    4  A    between atoms: C_4  and  N_5
REMARK    5  A    between atoms: N_5  and  S_6
REMARK    6  A    between atoms: S_6  and  C_9
REMARK    7  A    between atoms: C_20  and  S_21
REMARK    8  A    between atoms: S_21  and  N_24
REMARK    9  A    between atoms: N_24  and  C_25
REMARK   10  A    between atoms: C_25  and  C_26
REMARK   11  A    between atoms: C_26  and  O_27
REMARK   12  A    between atoms: O_27  and  C_28
REMARK                            x       y       z     vdW  Elec       q    Type
REMARK                         _______ _______ _______ _____ _____    ______ ____
ROOT
ATOM      1  C   UNL     1       2.518   7.282  18.764  0.00  0.00    +0.000 A 
ATOM      2  C   UNL     1       2.073   8.230  17.841  0.00  0.00    +0.000 A 
ATOM      3  C   UNL     1       1.289   9.307  18.273  0.00  0.00    +0.000 A 
ATOM      4  C   UNL     1       0.950   9.470  19.630  0.00  0.00    +0.000 A 
ATOM      5  C   UNL     1       1.432   8.502  20.518  0.00  0.00    +0.000 A 
ATOM      6  C   UNL     1       2.208   7.413  20.115  0.00  0.00    +0.000 A 
ATOM      7  O   UNL     1       1.158   8.589  21.901  0.00  0.00    +0.000 OA
ATOM      8  C   UNL     1       0.419   9.619  22.465  0.00  0.00    +0.000 A 
ATOM      9  O   UNL     1       0.214   9.678  23.673  0.00  0.00    +0.000 OA
ATOM     10  C   UNL     1      -0.121  10.651  21.536  0.00  0.00    +0.000 A 
ATOM     11  C   UNL     1      -0.896  11.693  22.079  0.00  0.00    +0.000 A 
ATOM     12  C   UNL     1      -1.405  12.685  21.236  0.00  0.00    +0.000 A 
ATOM     13  C   UNL     1      -1.163  12.634  19.865  0.00  0.00    +0.000 A 
ATOM     14  C   UNL     1      -0.396  11.590  19.338  0.00  0.00    +0.000 A 
ATOM     15  C   UNL     1       0.143  10.578  20.158  0.00  0.00    +0.000 A 
ENDROOT
BRANCH   1  16
ATOM     16  S   UNL     1       3.531   5.936  18.196  0.00  0.00    +0.000 S 
ATOM     17  O   UNL     1       2.665   4.951  17.588  0.00  0.00    +0.000 OA
ATOM     18  O   UNL     1       4.421   5.619  19.289  0.00  0.00    +0.000 OA
BRANCH  16  19
ATOM     19  N   UNL     1       4.439   6.683  16.982  0.00  0.00    +0.000 NA
ATOM     20  H   UNL     1       4.026   6.578  16.058  0.00  0.00    +0.000 HD
BRANCH  19  21
ATOM     21  C   UNL     1       5.900   6.443  17.022  0.00  0.00    +0.000 C 
BRANCH  21  22
ATOM     22  C   UNL     1       6.325   5.419  15.963  0.00  0.00    +0.000 C 
BRANCH  22  24
ATOM     23  C   UNL     1       7.605   4.646  17.791  0.00  0.00    +0.000 C 
ATOM     24  O   UNL     1       7.515   4.748  16.377  0.00  0.00    +0.000 OA
ENDBRANCH  22  24
ENDBRANCH  21  22
ENDBRANCH  19  21
ENDBRANCH  16  19
ENDBRANCH   1  16
BRANCH  12  25
ATOM     25  S   UNL     1      -2.432  13.990  21.870  0.00  0.00    +0.000 S 
ATOM     26  O   UNL     1      -1.950  14.288  23.199  0.00  0.00    +0.000 OA
ATOM     27  O   UNL     1      -2.557  15.011  20.852  0.00  0.00    +0.000 OA
BRANCH  25  28
ATOM     28  N   UNL     1      -3.929  13.237  22.054  0.00  0.00    +0.000 NA
ATOM     29  H   UNL     1      -4.111  12.592  21.278  0.00  0.00    +0.000 HD
BRANCH  28  30
ATOM     30  C   UNL     1      -4.222  12.666  23.385  0.00  0.00    +0.000 C 
BRANCH  30  31
ATOM     31  C   UNL     1      -5.529  13.235  23.946  0.00  0.00    +0.000 C 
BRANCH  31  32
ATOM     32  O   UNL     1      -6.451  12.166  24.192  0.00  0.00    +0.000 OA
ATOM     33  C   UNL     1      -7.584  12.249  23.332  0.00  0.00    +0.000 C 
ENDBRANCH  31  32
ENDBRANCH  30  31
ENDBRANCH  28  30
ENDBRANCH  25  28
ENDBRANCH  12  25
TORSDOF 10
ENDMDL
MODEL 9
REMARK VINA RESULT:      -7.2      2.867      4.621
REMARK  Name = 
REMARK  12 active torsions:
REMARK  status: ('A' for Active; 'I' for Inactive)
REMARK    1  A    between atoms: C_1  and  O_2
REMARK    2  A    between atoms: O_2  and  C_3
REMARK    3  A    between atoms: C_3  and  C_4
REMARK    4  A    between atoms: C_4  and  N_5
REMARK    5  A    between atoms: N_5  and  S_6
REMARK    6  A    between atoms: S_6  and  C_9
REMARK    7  A    between atoms: C_20  and  S_21
REMARK    8  A    between atoms: S_21  and  N_24
REMARK    9  A    between atoms: N_24  and  C_25
REMARK   10  A    between atoms: C_25  and  C_26
REMARK   11  A    between atoms: C_26  and  O_27
REMARK   12  A    between atoms: O_27  and  C_28
REMARK                            x       y       z     vdW  Elec       q    Type
REMARK                         _______ _______ _______ _____ _____    ______ ____
ROOT
ATOM      1  C   UNL     1       2.414   7.371  18.805  0.00  0.00    +0.000 A 
ATOM      2  C   UNL     1       2.032   8.255  17.795  0.00  0.00    +0.000 A 
ATOM      3  C   UNL     1       1.241   9.368  18.106  0.00  0.00    +0.000 A 
ATOM      4  C   UNL     1       0.833   9.631  19.428  0.00  0.00    +0.000 A 
ATOM      5  C   UNL     1       1.254   8.725  20.408  0.00  0.00    +0.000 A 
ATOM      6  C   UNL     1       2.035   7.602  20.125  0.00  0.00    +0.000 A 
ATOM      7  O   UNL     1       0.909   8.914  21.764  0.00  0.00    +0.000 OA
ATOM      8  C   UNL     1       0.155   9.989  22.213  0.00  0.00    +0.000 A 
ATOM      9  O   UNL     1      -0.112  10.137  23.401  0.00  0.00    +0.000 OA
ATOM     10  C   UNL     1      -0.320  10.957  21.186  0.00  0.00    +0.000 A 
ATOM     11  C   UNL     1      -1.108  12.043  21.611  0.00  0.00    +0.000 A 
ATOM     12  C   UNL     1      -1.559  12.977  20.673  0.00  0.00    +0.000 A 
ATOM     13  C   UNL     1      -1.245  12.826  19.324  0.00  0.00    +0.000 A 
ATOM     14  C   UNL     1      -0.466  11.739  18.914  0.00  0.00    +0.000 A 
ATOM     15  C   UNL     1       0.015  10.782  19.832  0.00  0.00    +0.000 A 
ENDROOT
BRANCH   1  16
ATOM     16  S   UNL     1       3.437   5.977  18.390  0.00  0.00    +0.000 S 
ATOM     17  O   UNL     1       4.688   6.482  17.869  0.00  0.00    +0.000 OA
ATOM     18  O   UNL     1       2.593   5.071  17.647  0.00  0.00    +0.000 OA
BRANCH  16  19
ATOM     19  N   UNL     1       3.720   5.299  19.912  0.00  0.00    +0.000 NA
ATOM     20  H   UNL     1       4.692   5.374  20.205  0.00  0.00    +0.000 HD
BRANCH  19  21
ATOM     21  C   UNL     1       3.118   3.967  20.152  0.00  0.00    +0.000 C 
BRANCH  21  22
ATOM     22  C   UNL     1       2.120   4.008  21.315  0.00  0.00    +0.000 C 
BRANCH  22  24
ATOM     23  C   UNL     1       0.888   2.853  19.663  0.00  0.00    +0.000 C 
ATOM     24  O   UNL     1       1.018   3.139  21.048  0.00  0.00    +0.000 OA
ENDBRANCH  22  24
ENDBRANCH  21  22
ENDBRANCH  19  21
ENDBRANCH  16  19
ENDBRANCH   1  16
BRANCH  12  25
ATOM     25  S   UNL     1      -2.599  14.334  21.156  0.00  0.00    +0.000 S 
ATOM     26  O   UNL     1      -2.810  14.208  22.580  0.00  0.00    +0.000 OA
ATOM     27  O   UNL     1      -2.077  15.547  20.562  0.00  0.00    +0.000 OA
BRANCH  25  28
ATOM     28  N   UNL     1      -4.067  13.968  20.413  0.00  0.00    +0.000 NA
ATOM     29  H   UNL     1      -3.999  14.081  19.396  0.00  0.00    +0.000 HD
BRANCH  28  30
ATOM     30  C   UNL     1      -4.724  12.712  20.831  0.00  0.00    +0.000 C 
BRANCH  30  31
ATOM     31  C   UNL     1      -5.980  13.005  21.659  0.00  0.00    +0.000 C 
BRANCH  31  32
ATOM     32  O   UNL     1      -5.854  12.399  22.951  0.00  0.00    +0.000 OA
ATOM     33  C   UNL     1      -6.921  12.784  23.813  0.00  0.00    +0.000 C 
ENDBRANCH  31  32
ENDBRANCH  30  31
ENDBRANCH  28  30
ENDBRANCH  25  28
ENDBRANCH  12  25
TORSDOF 10
ENDMDL
