MODEL 1
REMARK VINA RESULT:      -7.7      0.000      0.000
REMARK  Name = 
REMARK  12 active torsions:
REMARK  status: ('A' for Active; 'I' for Inactive)
REMARK    1  A    between atoms: C_1  and  O_2
REMARK    2  A    between atoms: O_2  and  C_3
REMARK    3  A    between atoms: C_3  and  C_4
REMARK    4  A    between atoms: C_9  and  C_10
REMARK    5  A    between atoms: N_12  and  C_13
REMARK    6  A    between atoms: C_13  and  C_14
REMARK    7  A    between atoms: C_14  and  C_15
REMARK    8  A    between atoms: C_15  and  C_16
REMARK    9  A    between atoms: C_16  and  C_17
REMARK   10  A    between atoms: C_17  and  C_18
REMARK   11  A    between atoms: N_20  and  C_21
REMARK   12  A    between atoms: C_26  and  N_27
REMARK                            x       y       z     vdW  Elec       q    Type
REMARK                         _______ _______ _______ _____ _____    ______ ____
ROOT
ATOM      1  C   UNL     1       7.460   7.263  17.248  0.00  0.00    +0.000 C 
ENDROOT
BRANCH   1   2
ATOM      2  C   UNL     1       7.627   6.278  18.407  0.00  0.00    +0.000 C 
BRANCH   2   3
ATOM      3  C   UNL     1       7.460   4.823  17.981  0.00  0.00    +0.000 C 
BRANCH   3   6
ATOM      4  C   UNL     1       5.062   4.388  17.585  0.00  0.00    +0.000 C 
ATOM      5  O   UNL     1       5.074   4.890  16.468  0.00  0.00    +0.000 OA
ATOM      6  N   UNL     1       6.177   4.306  18.396  0.00  0.00    +0.000 N 
ATOM      7  H   UNL     1       6.075   3.995  19.353  0.00  0.00    +0.000 HD
BRANCH   4  13
ATOM      8  C   UNL     1       2.870   4.554  18.864  0.00  0.00    +0.000 A 
ATOM      9  C   UNL     1       1.700   3.906  19.311  0.00  0.00    +0.000 A 
ATOM     10  C   UNL     1       1.482   2.548  19.066  0.00  0.00    +0.000 A 
ATOM     11  C   UNL     1       2.423   1.806  18.361  0.00  0.00    +0.000 A 
ATOM     12  C   UNL     1       3.581   2.427  17.901  0.00  0.00    +0.000 A 
ATOM     13  C   UNL     1       3.818   3.793  18.150  0.00  0.00    +0.000 A 
BRANCH   8  14
ATOM     14  C   UNL     1       3.023   6.028  19.160  0.00  0.00    +0.000 C 
BRANCH  14  16
ATOM     15  C   UNL     1       3.091   7.918  17.761  0.00  0.00    +0.000 C 
ATOM     16  O   UNL     1       2.327   6.788  18.165  0.00  0.00    +0.000 OA
ENDBRANCH  14  16
ENDBRANCH   8  14
ENDBRANCH   4  13
ENDBRANCH   3   6
ENDBRANCH   2   3
ENDBRANCH   1   2
BRANCH   1  17
ATOM     17  C   UNL     1       7.862   8.684  17.637  0.00  0.00    +0.000 C 
BRANCH  17  18
ATOM     18  C   UNL     1       8.720   8.711  18.896  0.00  0.00    +0.000 C 
BRANCH  18  19
ATOM     19  C   UNL     1       9.238  10.115  19.144  0.00  0.00    +0.000 C 
ATOM     20  O   UNL     1       9.311  10.544  20.294  0.00  0.00    +0.000 OA
ATOM     21  N   UNL     1       9.598  10.783  17.989  0.00  0.00    +0.000 N 
ATOM     22  H   UNL     1       9.230  10.431  17.116  0.00  0.00    +0.000 HD
BRANCH  21  23
ATOM     23  C   UNL     1      10.269  12.028  17.912  0.00  0.00    +0.000 A 
ATOM     24  C   UNL     1      11.645  12.135  18.143  0.00  0.00    +0.000 A 
ATOM     25  C   UNL     1      12.284  13.378  18.120  0.00  0.00    +0.000 A 
ATOM     26  C   UNL     1      11.546  14.527  17.875  0.00  0.00    +0.000 A 
ATOM     27  C   UNL     1      10.177  14.434  17.618  0.00  0.00    +0.000 A 
ATOM     28  C   UNL     1       9.534  13.188  17.565  0.00  0.00    +0.000 A 
BRANCH  28  29
ATOM     29  N   UNL     1       8.130  13.165  17.382  0.00  0.00    +0.000 N 
ATOM     30  H   UNL     1       7.658  12.641  18.117  0.00  0.00    +0.000 HD
ATOM     31  H   UNL     1       7.723  14.087  17.290  0.00  0.00    +0.000 HD
ENDBRANCH  28  29
ENDBRANCH  21  23
ENDBRANCH  18  19
ENDBRANCH  17  18
ENDBRANCH   1  17
TORSDOF 11
ENDMDL
MODEL 2
REMARK VINA RESULT:      -7.7      5.427      7.790
REMARK  Name = 
REMARK  12 active torsions:
REMARK  status: ('A' for Active; 'I' for Inactive)
REMARK    1  A    between atoms: C_1  and  O_2
REMARK    2  A    between atoms: O_2  and  C_3
REMARK    3  A    between atoms: C_3  and  C_4
REMARK    4  A    between atoms: C_9  and  C_10
REMARK    5  A    between atoms: N_12  and  C_13
REMARK    6  A    between atoms: C_13  and  C_14
REMARK    7  A    between atoms: C_14  and  C_15
REMARK    8  A    between atoms: C_15  and  C_16
REMARK    9  A    between atoms: C_16  and  C_17
REMARK   10  A    between atoms: C_17  and  C_18
REMARK   11  A    between atoms: N_20  and  C_21
REMARK   12  A    between atoms: C_26  and  N_27
REMARK                            x       y       z     vdW  Elec       q    Type
REMARK                         _______ _______ _______ _____ _____    ______ ____
ROOT
ATOM      1  C   UNL     1       0.646   3.201  20.077  0.00  0.00    +0.000 C 
ENDROOT
BRANCH   1   2
ATOM      2  C   UNL     1       1.730   2.837  21.094  0.00  0.00    +0.000 C 
BRANCH   2   3
ATOM      3  C   UNL     1       2.361   4.059  21.754  0.00  0.00    +0.000 C 
BRANCH   3   6
ATOM      4  C   UNL     1       2.935   5.796  20.095  0.00  0.00    +0.000 C 
ATOM      5  O   UNL     1       4.021   5.297  19.831  0.00  0.00    +0.000 OA
ATOM      6  N   UNL     1       2.054   5.263  21.016  0.00  0.00    +0.000 N 
ATOM      7  H   UNL     1       1.230   5.787  21.281  0.00  0.00    +0.000 HD
BRANCH   4  13
ATOM      8  C   UNL     1       1.675   8.005  20.049  0.00  0.00    +0.000 A 
ATOM      9  C   UNL     1       1.327   9.162  19.322  0.00  0.00    +0.000 A 
ATOM     10  C   UNL     1       1.738   9.342  17.999  0.00  0.00    +0.000 A 
ATOM     11  C   UNL     1       2.514   8.374  17.372  0.00  0.00    +0.000 A 
ATOM     12  C   UNL     1       2.879   7.227  18.073  0.00  0.00    +0.000 A 
ATOM     13  C   UNL     1       2.463   7.030  19.404  0.00  0.00    +0.000 A 
BRANCH   8  14
ATOM     14  C   UNL     1       1.200   7.894  21.479  0.00  0.00    +0.000 C 
BRANCH  14  16
ATOM     15  C   UNL     1      -0.069   9.377  22.793  0.00  0.00    +0.000 C 
ATOM     16  O   UNL     1      -0.052   8.575  21.618  0.00  0.00    +0.000 OA
ENDBRANCH  14  16
ENDBRANCH   8  14
ENDBRANCH   4  13
ENDBRANCH   3   6
ENDBRANCH   2   3
ENDBRANCH   1   2
BRANCH   1  17
ATOM     17  C   UNL     1       0.788   2.411  18.777  0.00  0.00    +0.000 C 
BRANCH  17  18
ATOM     18  C   UNL     1       2.238   2.038  18.490  0.00  0.00    +0.000 C 
BRANCH  18  19
ATOM     19  C   UNL     1       2.849   3.031  17.520  0.00  0.00    +0.000 C 
ATOM     20  O   UNL     1       2.122   3.805  16.900  0.00  0.00    +0.000 OA
ATOM     21  N   UNL     1       4.227   2.957  17.449  0.00  0.00    +0.000 N 
ATOM     22  H   UNL     1       4.664   2.110  17.787  0.00  0.00    +0.000 HD
BRANCH  21  23
ATOM     23  C   UNL     1       5.085   3.859  16.773  0.00  0.00    +0.000 A 
ATOM     24  C   UNL     1       4.901   4.171  15.421  0.00  0.00    +0.000 A 
ATOM     25  C   UNL     1       5.790   5.018  14.751  0.00  0.00    +0.000 A 
ATOM     26  C   UNL     1       6.877   5.551  15.429  0.00  0.00    +0.000 A 
ATOM     27  C   UNL     1       7.059   5.268  16.784  0.00  0.00    +0.000 A 
ATOM     28  C   UNL     1       6.138   4.480  17.489  0.00  0.00    +0.000 A 
BRANCH  28  29
ATOM     29  N   UNL     1       6.422   4.161  18.839  0.00  0.00    +0.000 N 
ATOM     30  H   UNL     1       6.142   4.908  19.474  0.00  0.00    +0.000 HD
ATOM     31  H   UNL     1       6.024   3.280  19.135  0.00  0.00    +0.000 HD
ENDBRANCH  28  29
ENDBRANCH  21  23
ENDBRANCH  18  19
ENDBRANCH  17  18
ENDBRANCH   1  17
TORSDOF 11
ENDMDL
MODEL 3
REMARK VINA RESULT:      -7.4      1.640     10.429
REMARK  Name = 
REMARK  12 active torsions:
REMARK  status: ('A' for Active; 'I' for Inactive)
REMARK    1  A    between atoms: C_1  and  O_2
REMARK    2  A    between atoms: O_2  and  C_3
REMARK    3  A    between atoms: C_3  and  C_4
REMARK    4  A    between atoms: C_9  and  C_10
REMARK    5  A    between atoms: N_12  and  C_13
REMARK    6  A    between atoms: C_13  and  C_14
REMARK    7  A    between atoms: C_14  and  C_15
REMARK    8  A    between atoms: C_15  and  C_16
REMARK    9  A    between atoms: C_16  and  C_17
REMARK   10  A    between atoms: C_17  and  C_18
REMARK   11  A    between atoms: N_20  and  C_21
REMARK   12  A    between atoms: C_26  and  N_27
REMARK                            x       y       z     vdW  Elec       q    Type
REMARK                         _______ _______ _______ _____ _____    ______ ____
ROOT
ATOM      1  C   UNL     1       7.203   6.772  17.861  0.00  0.00    +0.000 C 
ENDROOT
BRANCH   1   2
ATOM      2  C   UNL     1       7.685   8.171  17.473  0.00  0.00    +0.000 C 
BRANCH   2   3
ATOM      3  C   UNL     1       8.482   8.855  18.580  0.00  0.00    +0.000 C 
BRANCH   3   6
ATOM      4  C   UNL     1       9.636  11.004  18.964  0.00  0.00    +0.000 C 
ATOM      5  O   UNL     1       9.644  10.873  20.182  0.00  0.00    +0.000 OA
ATOM      6  N   UNL     1       9.096  10.071  18.100  0.00  0.00    +0.000 N 
ATOM      7  H   UNL     1       9.009  10.294  17.117  0.00  0.00    +0.000 HD
BRANCH   4  13
ATOM      8  C   UNL     1       9.579  13.432  18.213  0.00  0.00    +0.000 A 
ATOM      9  C   UNL     1      10.268  14.513  17.625  0.00  0.00    +0.000 A 
ATOM     10  C   UNL     1      11.572  14.371  17.145  0.00  0.00    +0.000 A 
ATOM     11  C   UNL     1      12.223  13.147  17.246  0.00  0.00    +0.000 A 
ATOM     12  C   UNL     1      11.567  12.068  17.833  0.00  0.00    +0.000 A 
ATOM     13  C   UNL     1      10.249  12.196  18.313  0.00  0.00    +0.000 A 
BRANCH   8  14
ATOM     14  C   UNL     1       8.176  13.674  18.719  0.00  0.00    +0.000 C 
BRANCH  14  16
ATOM     15  C   UNL     1       6.253  14.750  17.894  0.00  0.00    +0.000 C 
ATOM     16  O   UNL     1       7.288  13.817  17.604  0.00  0.00    +0.000 OA
ENDBRANCH  14  16
ENDBRANCH   8  14
ENDBRANCH   4  13
ENDBRANCH   3   6
ENDBRANCH   2   3
ENDBRANCH   1   2
BRANCH   1  17
ATOM     17  C   UNL     1       7.252   5.799  16.684  0.00  0.00    +0.000 C 
BRANCH  17  18
ATOM     18  C   UNL     1       6.747   4.413  17.066  0.00  0.00    +0.000 C 
BRANCH  18  19
ATOM     19  C   UNL     1       5.283   4.480  17.456  0.00  0.00    +0.000 C 
ATOM     20  O   UNL     1       4.484   5.062  16.725  0.00  0.00    +0.000 OA
ATOM     21  N   UNL     1       4.998   3.835  18.644  0.00  0.00    +0.000 N 
ATOM     22  H   UNL     1       5.771   3.649  19.268  0.00  0.00    +0.000 HD
BRANCH  21  23
ATOM     23  C   UNL     1       3.710   3.579  19.174  0.00  0.00    +0.000 A 
ATOM     24  C   UNL     1       3.034   4.529  19.950  0.00  0.00    +0.000 A 
ATOM     25  C   UNL     1       1.789   4.241  20.515  0.00  0.00    +0.000 A 
ATOM     26  C   UNL     1       1.213   2.994  20.317  0.00  0.00    +0.000 A 
ATOM     27  C   UNL     1       1.863   2.045  19.526  0.00  0.00    +0.000 A 
ATOM     28  C   UNL     1       3.079   2.343  18.891  0.00  0.00    +0.000 A 
BRANCH  28  29
ATOM     29  N   UNL     1       3.729   1.312  18.170  0.00  0.00    +0.000 N 
ATOM     30  H   UNL     1       4.701   1.542  17.966  0.00  0.00    +0.000 HD
ATOM     31  H   UNL     1       3.669   0.409  18.621  0.00  0.00    +0.000 HD
ENDBRANCH  28  29
ENDBRANCH  21  23
ENDBRANCH  18  19
ENDBRANCH  17  18
ENDBRANCH   1  17
TORSDOF 11
ENDMDL
MODEL 4
REMARK VINA RESULT:      -7.3      1.420      1.700
REMARK  Name = 
REMARK  12 active torsions:
REMARK  status: ('A' for Active; 'I' for Inactive)
REMARK    1  A    between atoms: C_1  and  O_2
REMARK    2  A    between atoms: O_2  and  C_3
REMARK    3  A    between atoms: C_3  and  C_4
REMARK    4  A    between atoms: C_9  and  C_10
REMARK    5  A    between atoms: N_12  and  C_13
REMARK    6  A    between atoms: C_13  and  C_14
REMARK    7  A    between atoms: C_14  and  C_15
REMARK    8  A    between atoms: C_15  and  C_16
REMARK    9  A    between atoms: C_16  and  C_17
REMARK   10  A    between atoms: C_17  and  C_18
REMARK   11  A    between atoms: N_20  and  C_21
REMARK   12  A    between atoms: C_26  and  N_27
REMARK                            x       y       z     vdW  Elec       q    Type
REMARK                         _______ _______ _______ _____ _____    ______ ____
ROOT
ATOM      1  C   UNL     1       7.078   7.015  17.754  0.00  0.00    +0.000 C 
ENDROOT
BRANCH   1   2
ATOM      2  C   UNL     1       7.264   5.983  16.639  0.00  0.00    +0.000 C 
BRANCH   2   3
ATOM      3  C   UNL     1       7.203   4.544  17.143  0.00  0.00    +0.000 C 
BRANCH   3   6
ATOM      4  C   UNL     1       4.769   4.134  17.054  0.00  0.00    +0.000 C 
ATOM      5  O   UNL     1       4.719   4.221  15.834  0.00  0.00    +0.000 OA
ATOM      6  N   UNL     1       5.936   4.273  17.782  0.00  0.00    +0.000 N 
ATOM      7  H   UNL     1       5.892   4.315  18.792  0.00  0.00    +0.000 HD
BRANCH   4  13
ATOM      8  C   UNL     1       2.962   4.787  18.720  0.00  0.00    +0.000 A 
ATOM      9  C   UNL     1       1.778   4.425  19.395  0.00  0.00    +0.000 A 
ATOM     10  C   UNL     1       1.201   3.164  19.228  0.00  0.00    +0.000 A 
ATOM     11  C   UNL     1       1.789   2.235  18.377  0.00  0.00    +0.000 A 
ATOM     12  C   UNL     1       2.953   2.573  17.691  0.00  0.00    +0.000 A 
ATOM     13  C   UNL     1       3.550   3.839  17.858  0.00  0.00    +0.000 A 
BRANCH   8  14
ATOM     14  C   UNL     1       3.513   6.175  18.947  0.00  0.00    +0.000 C 
BRANCH  14  16
ATOM     15  C   UNL     1       2.361   8.009  18.027  0.00  0.00    +0.000 C 
ATOM     16  O   UNL     1       3.299   6.969  17.774  0.00  0.00    +0.000 OA
ENDBRANCH  14  16
ENDBRANCH   8  14
ENDBRANCH   4  13
ENDBRANCH   3   6
ENDBRANCH   2   3
ENDBRANCH   1   2
BRANCH   1  17
ATOM     17  C   UNL     1       7.870   8.294  17.493  0.00  0.00    +0.000 C 
BRANCH  17  18
ATOM     18  C   UNL     1       8.663   8.736  18.717  0.00  0.00    +0.000 C 
BRANCH  18  19
ATOM     19  C   UNL     1       9.035  10.201  18.596  0.00  0.00    +0.000 C 
ATOM     20  O   UNL     1       8.409  10.928  17.825  0.00  0.00    +0.000 OA
ATOM     21  N   UNL     1      10.081  10.575  19.417  0.00  0.00    +0.000 N 
ATOM     22  H   UNL     1      10.674   9.840  19.777  0.00  0.00    +0.000 HD
BRANCH  21  23
ATOM     23  C   UNL     1      10.535  11.896  19.653  0.00  0.00    +0.000 A 
ATOM     24  C   UNL     1      10.032  12.668  20.706  0.00  0.00    +0.000 A 
ATOM     25  C   UNL     1      10.447  13.990  20.892  0.00  0.00    +0.000 A 
ATOM     26  C   UNL     1      11.363  14.554  20.016  0.00  0.00    +0.000 A 
ATOM     27  C   UNL     1      11.893  13.789  18.975  0.00  0.00    +0.000 A 
ATOM     28  C   UNL     1      11.542  12.439  18.818  0.00  0.00    +0.000 A 
BRANCH  28  29
ATOM     29  N   UNL     1      12.049  11.741  17.695  0.00  0.00    +0.000 N 
ATOM     30  H   UNL     1      12.985  11.374  17.864  0.00  0.00    +0.000 HD
ATOM     31  H   UNL     1      11.436  11.005  17.371  0.00  0.00    +0.000 HD
ENDBRANCH  28  29
ENDBRANCH  21  23
ENDBRANCH  18  19
ENDBRANCH  17  18
ENDBRANCH   1  17
TORSDOF 11
ENDMDL
MODEL 5
REMARK VINA RESULT:      -7.2      4.928      7.601
REMARK  Name = 
REMARK  12 active torsions:
REMARK  status: ('A' for Active; 'I' for Inactive)
REMARK    1  A    between atoms: C_1  and  O_2
REMARK    2  A    between atoms: O_2  and  C_3
REMARK    3  A    between atoms: C_3  and  C_4
REMARK    4  A    between atoms: C_9  and  C_10
REMARK    5  A    between atoms: N_12  and  C_13
REMARK    6  A    between atoms: C_13  and  C_14
REMARK    7  A    between atoms: C_14  and  C_15
REMARK    8  A    between atoms: C_15  and  C_16
REMARK    9  A    between atoms: C_16  and  C_17
REMARK   10  A    between atoms: C_17  and  C_18
REMARK   11  A    between atoms: N_20  and  C_21
REMARK   12  A    between atoms: C_26  and  N_27
REMARK                            x       y       z     vdW  Elec       q    Type
REMARK                         _______ _______ _______ _____ _____    ______ ____
ROOT
ATOM      1  C   UNL     1       2.094   2.590  20.304  0.00  0.00    +0.000 C 
ENDROOT
BRANCH   1   2
ATOM      2  C   UNL     1       1.984   2.070  18.869  0.00  0.00    +0.000 C 
BRANCH   2   3
ATOM      3  C   UNL     1       3.305   1.530  18.328  0.00  0.00    +0.000 C 
BRANCH   3   6
ATOM      4  C   UNL     1       4.409   3.585  17.520  0.00  0.00    +0.000 C 
ATOM      5  O   UNL     1       3.602   3.758  16.615  0.00  0.00    +0.000 OA
ATOM      6  N   UNL     1       4.345   2.529  18.409  0.00  0.00    +0.000 N 
ATOM      7  H   UNL     1       5.109   2.372  19.053  0.00  0.00    +0.000 HD
BRANCH   4  13
ATOM      8  C   UNL     1       6.153   5.241  16.694  0.00  0.00    +0.000 A 
ATOM      9  C   UNL     1       7.170   6.162  17.021  0.00  0.00    +0.000 A 
ATOM     10  C   UNL     1       7.562   6.374  18.345  0.00  0.00    +0.000 A 
ATOM     11  C   UNL     1       6.942   5.676  19.376  0.00  0.00    +0.000 A 
ATOM     12  C   UNL     1       5.929   4.769  19.078  0.00  0.00    +0.000 A 
ATOM     13  C   UNL     1       5.531   4.540  17.747  0.00  0.00    +0.000 A 
BRANCH   8  14
ATOM     14  C   UNL     1       5.781   5.081  15.239  0.00  0.00    +0.000 C 
BRANCH  14  16
ATOM     15  C   UNL     1       6.160   3.763  13.327  0.00  0.00    +0.000 C 
ATOM     16  O   UNL     1       6.594   4.059  14.650  0.00  0.00    +0.000 OA
ENDBRANCH  14  16
ENDBRANCH   8  14
ENDBRANCH   4  13
ENDBRANCH   3   6
ENDBRANCH   2   3
ENDBRANCH   1   2
BRANCH   1  17
ATOM     17  C   UNL     1       1.474   3.977  20.463  0.00  0.00    +0.000 C 
BRANCH  17  18
ATOM     18  C   UNL     1       2.528   5.051  20.698  0.00  0.00    +0.000 C 
BRANCH  18  19
ATOM     19  C   UNL     1       2.252   6.255  19.818  0.00  0.00    +0.000 C 
ATOM     20  O   UNL     1       2.374   6.159  18.598  0.00  0.00    +0.000 OA
ATOM     21  N   UNL     1       1.863   7.377  20.524  0.00  0.00    +0.000 N 
ATOM     22  H   UNL     1       2.073   7.400  21.512  0.00  0.00    +0.000 HD
BRANCH  21  23
ATOM     23  C   UNL     1       1.375   8.589  19.975  0.00  0.00    +0.000 A 
ATOM     24  C   UNL     1       1.794   9.047  18.720  0.00  0.00    +0.000 A 
ATOM     25  C   UNL     1       1.349  10.272  18.217  0.00  0.00    +0.000 A 
ATOM     26  C   UNL     1       0.488  11.056  18.972  0.00  0.00    +0.000 A 
ATOM     27  C   UNL     1       0.042  10.602  20.214  0.00  0.00    +0.000 A 
ATOM     28  C   UNL     1       0.421   9.342  20.702  0.00  0.00    +0.000 A 
BRANCH  28  29
ATOM     29  N   UNL     1       0.003   8.974  22.004  0.00  0.00    +0.000 N 
ATOM     30  H   UNL     1      -0.175   9.787  22.592  0.00  0.00    +0.000 HD
ATOM     31  H   UNL     1      -0.797   8.355  22.007  0.00  0.00    +0.000 HD
ENDBRANCH  28  29
ENDBRANCH  21  23
ENDBRANCH  18  19
ENDBRANCH  17  18
ENDBRANCH   1  17
TORSDOF 11
ENDMDL
MODEL 6
REMARK VINA RESULT:      -7.1      1.774     10.421
REMARK  Name = 
REMARK  12 active torsions:
REMARK  status: ('A' for Active; 'I' for Inactive)
REMARK    1  A    between atoms: C_1  and  O_2
REMARK    2  A    between atoms: O_2  and  C_3
REMARK    3  A    between atoms: C_3  and  C_4
REMARK    4  A    between atoms: C_9  and  C_10
REMARK    5  A    between atoms: N_12  and  C_13
REMARK    6  A    between atoms: C_13  and  C_14
REMARK    7  A    between atoms: C_14  and  C_15
REMARK    8  A    between atoms: C_15  and  C_16
REMARK    9  A    between atoms: C_16  and  C_17
REMARK   10  A    between atoms: C_17  and  C_18
REMARK   11  A    between atoms: N_20  and  C_21
REMARK   12  A    between atoms: C_26  and  N_27
REMARK                            x       y       z     vdW  Elec       q    Type
REMARK                         _______ _______ _______ _____ _____    ______ ____
ROOT
ATOM      1  C   UNL     1       7.915   7.040  17.673  0.00  0.00    +0.000 C 
ENDROOT
BRANCH   1   2
ATOM      2  C   UNL     1       7.749   8.561  17.634  0.00  0.00    +0.000 C 
BRANCH   2   3
ATOM      3  C   UNL     1       8.566   9.276  18.706  0.00  0.00    +0.000 C 
BRANCH   3   6
ATOM      4  C   UNL     1       9.805  11.392  19.001  0.00  0.00    +0.000 C 
ATOM      5  O   UNL     1       9.918  11.249  20.212  0.00  0.00    +0.000 OA
ATOM      6  N   UNL     1       9.166  10.481  18.181  0.00  0.00    +0.000 N 
ATOM      7  H   UNL     1       8.997  10.716  17.212  0.00  0.00    +0.000 HD
BRANCH   4  13
ATOM      8  C   UNL     1       9.708  13.805  18.206  0.00  0.00    +0.000 A 
ATOM      9  C   UNL     1      10.369  14.878  17.573  0.00  0.00    +0.000 A 
ATOM     10  C   UNL     1      11.656  14.733  17.050  0.00  0.00    +0.000 A 
ATOM     11  C   UNL     1      12.318  13.514  17.153  0.00  0.00    +0.000 A 
ATOM     12  C   UNL     1      11.689  12.443  17.782  0.00  0.00    +0.000 A 
ATOM     13  C   UNL     1      10.388  12.574  18.305  0.00  0.00    +0.000 A 
BRANCH   8  14
ATOM     14  C   UNL     1       8.322  14.049  18.755  0.00  0.00    +0.000 C 
BRANCH  14  16
ATOM     15  C   UNL     1       6.260  14.770  17.881  0.00  0.00    +0.000 C 
ATOM     16  O   UNL     1       7.359  13.883  17.707  0.00  0.00    +0.000 OA
ENDBRANCH  14  16
ENDBRANCH   8  14
ENDBRANCH   4  13
ENDBRANCH   3   6
ENDBRANCH   2   3
ENDBRANCH   1   2
BRANCH   1  17
ATOM     17  C   UNL     1       6.611   6.328  18.031  0.00  0.00    +0.000 C 
BRANCH  17  18
ATOM     18  C   UNL     1       5.472   6.717  17.097  0.00  0.00    +0.000 C 
BRANCH  18  19
ATOM     19  C   UNL     1       4.142   6.300  17.694  0.00  0.00    +0.000 C 
ATOM     20  O   UNL     1       3.191   7.078  17.669  0.00  0.00    +0.000 OA
ATOM     21  N   UNL     1       4.148   5.020  18.215  0.00  0.00    +0.000 N 
ATOM     22  H   UNL     1       5.048   4.607  18.421  0.00  0.00    +0.000 HD
BRANCH  21  23
ATOM     23  C   UNL     1       3.024   4.294  18.678  0.00  0.00    +0.000 A 
ATOM     24  C   UNL     1       2.544   3.170  17.996  0.00  0.00    +0.000 A 
ATOM     25  C   UNL     1       1.398   2.499  18.433  0.00  0.00    +0.000 A 
ATOM     26  C   UNL     1       0.717   2.955  19.552  0.00  0.00    +0.000 A 
ATOM     27  C   UNL     1       1.197   4.059  20.258  0.00  0.00    +0.000 A 
ATOM     28  C   UNL     1       2.385   4.701  19.876  0.00  0.00    +0.000 A 
BRANCH  28  29
ATOM     29  N   UNL     1       2.775   5.864  20.581  0.00  0.00    +0.000 N 
ATOM     30  H   UNL     1       3.456   6.417  20.061  0.00  0.00    +0.000 HD
ATOM     31  H   UNL     1       1.995   6.443  20.862  0.00  0.00    +0.000 HD
ENDBRANCH  28  29
ENDBRANCH  21  23
ENDBRANCH  18  19
ENDBRANCH  17  18
ENDBRANCH   1  17
TORSDOF 11
ENDMDL
MODEL 7
REMARK VINA RESULT:      -7.0      1.829      2.691
REMARK  Name = 
REMARK  12 active torsions:
REMARK  status: ('A' for Active; 'I' for Inactive)
REMARK    1  A    between atoms: C_1  and  O_2
REMARK    2  A    between atoms: O_2  and  C_3
REMARK    3  A    between atoms: C_3  and  C_4
REMARK    4  A    between atoms: C_9  and  C_10
REMARK    5  A    between atoms: N_12  and  C_13
REMARK    6  A    between atoms: C_13  and  C_14
REMARK    7  A    between atoms: C_14  and  C_15
REMARK    8  A    between atoms: C_15  and  C_16
REMARK    9  A    between atoms: C_16  and  C_17
REMARK   10  A    between atoms: C_17  and  C_18
REMARK   11  A    between atoms: N_20  and  C_21
REMARK   12  A    between atoms: C_26  and  N_27
REMARK                            x       y       z     vdW  Elec       q    Type
REMARK                         _______ _______ _______ _____ _____    ______ ____
ROOT
ATOM      1  C   UNL     1       6.845   6.883  17.425  0.00  0.00    +0.000 C 
ENDROOT
BRANCH   1   2
ATOM      2  C   UNL     1       7.498   5.727  18.185  0.00  0.00    +0.000 C 
BRANCH   2   3
ATOM      3  C   UNL     1       6.797   5.410  19.503  0.00  0.00    +0.000 C 
BRANCH   3   6
ATOM      4  C   UNL     1       4.354   5.105  19.309  0.00  0.00    +0.000 C 
ATOM      5  O   UNL     1       4.111   6.289  19.508  0.00  0.00    +0.000 OA
ATOM      6  N   UNL     1       5.633   4.582  19.284  0.00  0.00    +0.000 N 
ATOM      7  H   UNL     1       5.761   3.580  19.239  0.00  0.00    +0.000 HD
BRANCH   4  13
ATOM      8  C   UNL     1       3.298   3.220  17.968  0.00  0.00    +0.000 A 
ATOM      9  C   UNL     1       2.239   2.298  17.840  0.00  0.00    +0.000 A 
ATOM     10  C   UNL     1       1.175   2.282  18.745  0.00  0.00    +0.000 A 
ATOM     11  C   UNL     1       1.147   3.180  19.805  0.00  0.00    +0.000 A 
ATOM     12  C   UNL     1       2.188   4.093  19.958  0.00  0.00    +0.000 A 
ATOM     13  C   UNL     1       3.261   4.126  19.047  0.00  0.00    +0.000 A 
BRANCH   8  14
ATOM     14  C   UNL     1       4.416   3.163  16.953  0.00  0.00    +0.000 C 
BRANCH  14  16
ATOM     15  C   UNL     1       5.427   4.353  15.193  0.00  0.00    +0.000 C 
ATOM     16  O   UNL     1       4.514   4.425  16.282  0.00  0.00    +0.000 OA
ENDBRANCH  14  16
ENDBRANCH   8  14
ENDBRANCH   4  13
ENDBRANCH   3   6
ENDBRANCH   2   3
ENDBRANCH   1   2
BRANCH   1  17
ATOM     17  C   UNL     1       7.777   8.086  17.295  0.00  0.00    +0.000 C 
BRANCH  17  18
ATOM     18  C   UNL     1       8.504   8.390  18.600  0.00  0.00    +0.000 C 
BRANCH  18  19
ATOM     19  C   UNL     1       8.856   9.863  18.670  0.00  0.00    +0.000 C 
ATOM     20  O   UNL     1       8.423  10.635  17.816  0.00  0.00    +0.000 OA
ATOM     21  N   UNL     1       9.655  10.189  19.749  0.00  0.00    +0.000 N 
ATOM     22  H   UNL     1      10.158   9.436  20.197  0.00  0.00    +0.000 HD
BRANCH  21  23
ATOM     23  C   UNL     1      10.002  11.495  20.174  0.00  0.00    +0.000 A 
ATOM     24  C   UNL     1       9.217  12.200  21.094  0.00  0.00    +0.000 A 
ATOM     25  C   UNL     1       9.540  13.509  21.461  0.00  0.00    +0.000 A 
ATOM     26  C   UNL     1      10.648  14.129  20.901  0.00  0.00    +0.000 A 
ATOM     27  C   UNL     1      11.455  13.430  20.001  0.00  0.00    +0.000 A 
ATOM     28  C   UNL     1      11.187  12.091  19.677  0.00  0.00    +0.000 A 
BRANCH  28  29
ATOM     29  N   UNL     1      11.993  11.465  18.696  0.00  0.00    +0.000 N 
ATOM     30  H   UNL     1      12.783  12.047  18.422  0.00  0.00    +0.000 HD
ATOM     31  H   UNL     1      12.312  10.544  18.969  0.00  0.00    +0.000 HD
ENDBRANCH  28  29
ENDBRANCH  21  23
ENDBRANCH  18  19
ENDBRANCH  17  18
ENDBRANCH   1  17
TORSDOF 11
ENDMDL
MODEL 8
REMARK VINA RESULT:      -6.9      1.634      2.740
REMARK  Name = 
REMARK  12 active torsions:
REMARK  status: ('A' for Active; 'I' for Inactive)
REMARK    1  A    between atoms: C_1  and  O_2
REMARK    2  A    between atoms: O_2  and  C_3
REMARK    3  A    between atoms: C_3  and  C_4
REMARK    4  A    between atoms: C_9  and  C_10
REMARK    5  A    between atoms: N_12  and  C_13
REMARK    6  A    between atoms: C_13  and  C_14
REMARK    7  A    between atoms: C_14  and  C_15
REMARK    8  A    between atoms: C_15  and  C_16
REMARK    9  A    between atoms: C_16  and  C_17
REMARK   10  A    between atoms: C_17  and  C_18
REMARK   11  A    between atoms: N_20  and  C_21
REMARK   12  A    between atoms: C_26  and  N_27
REMARK                            x       y       z     vdW  Elec       q    Type
REMARK                         _______ _______ _______ _____ _____    ______ ____
ROOT
ATOM      1  C   UNL     1       7.557   7.248  17.843  0.00  0.00    +0.000 C 
ENDROOT
BRANCH   1   2
ATOM      2  C   UNL     1       6.338   6.949  16.968  0.00  0.00    +0.000 C 
BRANCH   2   3
ATOM      3  C   UNL     1       5.021   7.360  17.619  0.00  0.00    +0.000 C 
BRANCH   3   6
ATOM      4  C   UNL     1       2.971   6.245  18.427  0.00  0.00    +0.000 C 
ATOM      5  O   UNL     1       2.268   7.231  18.245  0.00  0.00    +0.000 OA
ATOM      6  N   UNL     1       4.324   6.211  18.148  0.00  0.00    +0.000 N 
ATOM      7  H   UNL     1       4.872   5.411  18.436  0.00  0.00    +0.000 HD
BRANCH   4  13
ATOM      8  C   UNL     1       2.532   3.746  18.272  0.00  0.00    +0.000 A 
ATOM      9  C   UNL     1       1.997   2.591  18.880  0.00  0.00    +0.000 A 
ATOM     10  C   UNL     1       1.343   2.653  20.112  0.00  0.00    +0.000 A 
ATOM     11  C   UNL     1       1.214   3.870  20.773  0.00  0.00    +0.000 A 
ATOM     12  C   UNL     1       1.743   5.022  20.198  0.00  0.00    +0.000 A 
ATOM     13  C   UNL     1       2.397   4.974  18.950  0.00  0.00    +0.000 A 
BRANCH   8  14
ATOM     14  C   UNL     1       3.235   3.589  16.944  0.00  0.00    +0.000 C 
BRANCH  14  16
ATOM     15  C   UNL     1       5.359   3.646  15.935  0.00  0.00    +0.000 C 
ATOM     16  O   UNL     1       4.648   3.511  17.160  0.00  0.00    +0.000 OA
ENDBRANCH  14  16
ENDBRANCH   8  14
ENDBRANCH   4  13
ENDBRANCH   3   6
ENDBRANCH   2   3
ENDBRANCH   1   2
BRANCH   1  17
ATOM     17  C   UNL     1       8.096   8.659  17.616  0.00  0.00    +0.000 C 
BRANCH  17  18
ATOM     18  C   UNL     1       8.743   9.234  18.870  0.00  0.00    +0.000 C 
BRANCH  18  19
ATOM     19  C   UNL     1       9.161  10.671  18.629  0.00  0.00    +0.000 C 
ATOM     20  O   UNL     1       8.494  11.383  17.880  0.00  0.00    +0.000 OA
ATOM     21  N   UNL     1      10.296  11.040  19.325  0.00  0.00    +0.000 N 
ATOM     22  H   UNL     1      10.890  10.299  19.670  0.00  0.00    +0.000 HD
BRANCH  21  23
ATOM     23  C   UNL     1      10.825  12.349  19.439  0.00  0.00    +0.000 A 
ATOM     24  C   UNL     1      10.399  13.228  20.442  0.00  0.00    +0.000 A 
ATOM     25  C   UNL     1      10.887  14.536  20.507  0.00  0.00    +0.000 A 
ATOM     26  C   UNL     1      11.799  14.979  19.560  0.00  0.00    +0.000 A 
ATOM     27  C   UNL     1      12.252  14.107  18.569  0.00  0.00    +0.000 A 
ATOM     28  C   UNL     1      11.828  12.770  18.532  0.00  0.00    +0.000 A 
BRANCH  28  29
ATOM     29  N   UNL     1      12.259  11.959  17.454  0.00  0.00    +0.000 N 
ATOM     30  H   UNL     1      11.593  11.216  17.245  0.00  0.00    +0.000 HD
ATOM     31  H   UNL     1      12.473  12.486  16.618  0.00  0.00    +0.000 HD
ENDBRANCH  28  29
ENDBRANCH  21  23
ENDBRANCH  18  19
ENDBRANCH  17  18
ENDBRANCH   1  17
TORSDOF 11
ENDMDL
MODEL 9
REMARK VINA RESULT:      -6.9      4.669      6.635
REMARK  Name = 
REMARK  12 active torsions:
REMARK  status: ('A' for Active; 'I' for Inactive)
REMARK    1  A    between atoms: C_1  and  O_2
REMARK    2  A    between atoms: O_2  and  C_3
REMARK    3  A    between atoms: C_3  and  C_4
REMARK    4  A    between atoms: C_9  and  C_10
REMARK    5  A    between atoms: N_12  and  C_13
REMARK    6  A    between atoms: C_13  and  C_14
REMARK    7  A    between atoms: C_14  and  C_15
REMARK    8  A    between atoms: C_15  and  C_16
REMARK    9  A    between atoms: C_16  and  C_17
REMARK   10  A    between atoms: C_17  and  C_18
REMARK   11  A    between atoms: N_20  and  C_21
REMARK   12  A    between atoms: C_26  and  N_27
REMARK                            x       y       z     vdW  Elec       q    Type
REMARK                         _______ _______ _______ _____ _____    ______ ____
ROOT
ATOM      1  C   UNL     1       5.006   6.542  17.716  0.00  0.00    +0.000 C 
ENDROOT
BRANCH   1   2
ATOM      2  C   UNL     1       3.836   7.366  17.175  0.00  0.00    +0.000 C 
BRANCH   2   3
ATOM      3  C   UNL     1       2.674   7.469  18.159  0.00  0.00    +0.000 C 
BRANCH   3   6
ATOM      4  C   UNL     1       2.098   5.137  18.730  0.00  0.00    +0.000 C 
ATOM      5  O   UNL     1       1.571   4.918  17.647  0.00  0.00    +0.000 OA
ATOM      6  N   UNL     1       2.668   6.349  19.071  0.00  0.00    +0.000 N 
ATOM      7  H   UNL     1       2.975   6.506  20.022  0.00  0.00    +0.000 HD
BRANCH   4  13
ATOM      8  C   UNL     1       3.296   3.211  19.879  0.00  0.00    +0.000 A 
ATOM      9  C   UNL     1       3.308   2.275  20.934  0.00  0.00    +0.000 A 
ATOM     10  C   UNL     1       2.254   2.195  21.848  0.00  0.00    +0.000 A 
ATOM     11  C   UNL     1       1.165   3.053  21.734  0.00  0.00    +0.000 A 
ATOM     12  C   UNL     1       1.136   3.992  20.706  0.00  0.00    +0.000 A 
ATOM     13  C   UNL     1       2.189   4.076  19.773  0.00  0.00    +0.000 A 
BRANCH   8  14
ATOM     14  C   UNL     1       4.481   3.239  18.943  0.00  0.00    +0.000 C 
BRANCH  14  16
ATOM     15  C   UNL     1       4.422   3.325  16.592  0.00  0.00    +0.000 C 
ATOM     16  O   UNL     1       4.156   2.530  17.742  0.00  0.00    +0.000 OA
ENDBRANCH  14  16
ENDBRANCH   8  14
ENDBRANCH   4  13
ENDBRANCH   3   6
ENDBRANCH   2   3
ENDBRANCH   1   2
BRANCH   1  17
ATOM     17  C   UNL     1       6.348   7.237  17.499  0.00  0.00    +0.000 C 
BRANCH  17  18
ATOM     18  C   UNL     1       7.523   6.286  17.689  0.00  0.00    +0.000 C 
BRANCH  18  19
ATOM     19  C   UNL     1       7.556   5.267  16.566  0.00  0.00    +0.000 C 
ATOM     20  O   UNL     1       7.926   4.117  16.797  0.00  0.00    +0.000 OA
ATOM     21  N   UNL     1       7.132   5.770  15.351  0.00  0.00    +0.000 N 
ATOM     22  H   UNL     1       7.128   6.775  15.242  0.00  0.00    +0.000 HD
BRANCH  21  23
ATOM     23  C   UNL     1       6.889   5.026  14.171  0.00  0.00    +0.000 A 
ATOM     24  C   UNL     1       5.794   4.160  14.062  0.00  0.00    +0.000 A 
ATOM     25  C   UNL     1       5.599   3.389  12.913  0.00  0.00    +0.000 A 
ATOM     26  C   UNL     1       6.506   3.471  11.866  0.00  0.00    +0.000 A 
ATOM     27  C   UNL     1       7.589   4.348  11.949  0.00  0.00    +0.000 A 
ATOM     28  C   UNL     1       7.759   5.183  13.064  0.00  0.00    +0.000 A 
BRANCH  28  29
ATOM     29  N   UNL     1       8.921   5.990  13.127  0.00  0.00    +0.000 N 
ATOM     30  H   UNL     1       9.715   5.487  13.521  0.00  0.00    +0.000 HD
ATOM     31  H   UNL     1       9.171   6.401  12.237  0.00  0.00    +0.000 HD
ENDBRANCH  28  29
ENDBRANCH  21  23
ENDBRANCH  18  19
ENDBRANCH  17  18
ENDBRANCH   1  17
TORSDOF 11
ENDMDL
