MODEL 1
REMARK VINA RESULT:      -6.7      0.000      0.000
REMARK  Name = 
REMARK  7 active torsions:
REMARK  status: ('A' for Active; 'I' for Inactive)
REMARK    1  A    between atoms: C_1  and  C_2
REMARK    2  A    between atoms: C_2  and  C_3
REMARK    3  A    between atoms: C_3  and  C_4
REMARK    4  A    between atoms: C_4  and  O_5
REMARK    5  A    between atoms: O_5  and  C_6
REMARK    6  A    between atoms: C_10  and  C_11
REMARK    7  A    between atoms: N_15  and  C_16
REMARK                            x       y       z     vdW  Elec       q    Type
REMARK                         _______ _______ _______ _____ _____    ______ ____
ROOT
ATOM      1  C   UNL     1       6.688   5.539  17.360  0.00  0.00    +0.000 A 
ATOM      2  N   UNL     1       7.870   5.773  17.918  0.00  0.00    +0.000 NA
ATOM      3  O   UNL     1       7.689   5.463  19.256  0.00  0.00    +0.000 OA
ATOM      4  N   UNL     1       6.387   5.045  19.504  0.00  0.00    +0.000 NA
ATOM      5  C   UNL     1       5.750   5.109  18.324  0.00  0.00    +0.000 A 
ENDROOT
BRANCH   5   6
ATOM      6  C   UNL     1       4.367   4.741  18.153  0.00  0.00    +0.000 C 
ATOM      7  C   UNL     1       3.996   3.670  17.431  0.00  0.00    +0.000 C 
ATOM      8  C   UNL     1       2.573   3.250  17.278  0.00  0.00    +0.000 C 
ATOM      9  C   UNL     1       1.535   4.139  17.981  0.00  0.00    +0.000 C 
ATOM     10  N   UNL     1       1.988   5.089  18.998  0.00  0.00    +0.000 NA
ATOM     11  C   UNL     1       1.643   4.707  20.358  0.00  0.00    +0.000 C 
ATOM     12  C   UNL     1       3.352   5.613  18.855  0.00  0.00    +0.000 C 
ENDBRANCH   5   6
BRANCH   1  13
ATOM     13  O   UNL     1       6.499   5.757  16.034  0.00  0.00    +0.000 OA
BRANCH  13  14
ATOM     14  C   UNL     1       6.992   4.694  15.211  0.00  0.00    +0.000 C 
BRANCH  14  15
ATOM     15  C   UNL     1       5.862   4.203  14.309  0.00  0.00    +0.000 C 
BRANCH  15  17
ATOM     16  C   UNL     1       5.312   3.186  12.066  0.00  0.00    +0.000 C 
ATOM     17  C   UNL     1       6.390   3.822  12.928  0.00  0.00    +0.000 C 
ENDBRANCH  15  17
ENDBRANCH  14  15
ENDBRANCH  13  14
ENDBRANCH   1  13
TORSDOF 5
ENDMDL
MODEL 2
REMARK VINA RESULT:      -6.7      1.080      1.552
REMARK  Name = 
REMARK  7 active torsions:
REMARK  status: ('A' for Active; 'I' for Inactive)
REMARK    1  A    between atoms: C_1  and  C_2
REMARK    2  A    between atoms: C_2  and  C_3
REMARK    3  A    between atoms: C_3  and  C_4
REMARK    4  A    between atoms: C_4  and  O_5
REMARK    5  A    between atoms: O_5  and  C_6
REMARK    6  A    between atoms: C_10  and  C_11
REMARK    7  A    between atoms: N_15  and  C_16
REMARK                            x       y       z     vdW  Elec       q    Type
REMARK                         _______ _______ _______ _____ _____    ______ ____
ROOT
ATOM      1  C   UNL     1       6.872   4.420  17.650  0.00  0.00    +0.000 A 
ATOM      2  N   UNL     1       8.132   4.631  18.009  0.00  0.00    +0.000 NA
ATOM      3  O   UNL     1       8.044   5.194  19.272  0.00  0.00    +0.000 OA
ATOM      4  N   UNL     1       6.720   5.326  19.671  0.00  0.00    +0.000 NA
ATOM      5  C   UNL     1       5.980   4.862  18.652  0.00  0.00    +0.000 A 
ENDROOT
BRANCH   5   6
ATOM      6  C   UNL     1       4.540   4.815  18.679  0.00  0.00    +0.000 C 
ATOM      7  C   UNL     1       3.782   5.823  18.211  0.00  0.00    +0.000 C 
ATOM      8  C   UNL     1       2.292   5.774  18.192  0.00  0.00    +0.000 C 
ATOM      9  C   UNL     1       1.659   4.498  18.770  0.00  0.00    +0.000 C 
ATOM     10  N   UNL     1       2.498   3.317  18.970  0.00  0.00    +0.000 NA
ATOM     11  C   UNL     1       2.249   2.247  18.019  0.00  0.00    +0.000 C 
ATOM     12  C   UNL     1       3.923   3.555  19.238  0.00  0.00    +0.000 C 
ENDBRANCH   5   6
BRANCH   1  13
ATOM     13  O   UNL     1       6.583   3.882  16.438  0.00  0.00    +0.000 OA
BRANCH  13  14
ATOM     14  C   UNL     1       6.902   4.750  15.344  0.00  0.00    +0.000 C 
BRANCH  14  15
ATOM     15  C   UNL     1       5.869   4.550  14.238  0.00  0.00    +0.000 C 
BRANCH  15  17
ATOM     16  C   UNL     1       5.489   3.191  12.146  0.00  0.00    +0.000 C 
ATOM     17  C   UNL     1       6.508   3.929  12.998  0.00  0.00    +0.000 C 
ENDBRANCH  15  17
ENDBRANCH  14  15
ENDBRANCH  13  14
ENDBRANCH   1  13
TORSDOF 5
ENDMDL
MODEL 3
REMARK VINA RESULT:      -6.7      1.484      1.988
REMARK  Name = 
REMARK  7 active torsions:
REMARK  status: ('A' for Active; 'I' for Inactive)
REMARK    1  A    between atoms: C_1  and  C_2
REMARK    2  A    between atoms: C_2  and  C_3
REMARK    3  A    between atoms: C_3  and  C_4
REMARK    4  A    between atoms: C_4  and  O_5
REMARK    5  A    between atoms: O_5  and  C_6
REMARK    6  A    between atoms: C_10  and  C_11
REMARK    7  A    between atoms: N_15  and  C_16
REMARK                            x       y       z     vdW  Elec       q    Type
REMARK                         _______ _______ _______ _____ _____    ______ ____
ROOT
ATOM      1  C   UNL     1       6.465   4.705  15.474  0.00  0.00    +0.000 A 
ATOM      2  N   UNL     1       7.606   5.364  15.311  0.00  0.00    +0.000 NA
ATOM      3  O   UNL     1       7.559   6.378  16.254  0.00  0.00    +0.000 OA
ATOM      4  N   UNL     1       6.377   6.331  16.983  0.00  0.00    +0.000 NA
ATOM      5  C   UNL     1       5.678   5.298  16.487  0.00  0.00    +0.000 A 
ENDROOT
BRANCH   5   6
ATOM      6  C   UNL     1       4.386   4.905  16.988  0.00  0.00    +0.000 C 
ATOM      7  C   UNL     1       3.946   3.636  16.916  0.00  0.00    +0.000 C 
ATOM      8  C   UNL     1       2.630   3.204  17.468  0.00  0.00    +0.000 C 
ATOM      9  C   UNL     1       1.779   4.311  18.110  0.00  0.00    +0.000 C 
ATOM     10  N   UNL     1       2.412   5.586  18.449  0.00  0.00    +0.000 NA
ATOM     11  C   UNL     1       2.606   5.788  19.875  0.00  0.00    +0.000 C 
ATOM     12  C   UNL     1       3.559   5.995  17.628  0.00  0.00    +0.000 C 
ENDBRANCH   5   6
BRANCH   1  13
ATOM     13  O   UNL     1       6.168   3.639  14.688  0.00  0.00    +0.000 OA
BRANCH  13  14
ATOM     14  C   UNL     1       5.556   4.005  13.447  0.00  0.00    +0.000 C 
BRANCH  14  15
ATOM     15  C   UNL     1       6.364   3.402  12.301  0.00  0.00    +0.000 C 
BRANCH  15  17
ATOM     16  C   UNL     1       6.463   1.198  11.076  0.00  0.00    +0.000 C 
ATOM     17  C   UNL     1       5.567   2.317  11.579  0.00  0.00    +0.000 C 
ENDBRANCH  15  17
ENDBRANCH  14  15
ENDBRANCH  13  14
ENDBRANCH   1  13
TORSDOF 5
ENDMDL
MODEL 4
REMARK VINA RESULT:      -6.6      2.151      3.721
REMARK  Name = 
REMARK  7 active torsions:
REMARK  status: ('A' for Active; 'I' for Inactive)
REMARK    1  A    between atoms: C_1  and  C_2
REMARK    2  A    between atoms: C_2  and  C_3
REMARK    3  A    between atoms: C_3  and  C_4
REMARK    4  A    between atoms: C_4  and  O_5
REMARK    5  A    between atoms: O_5  and  C_6
REMARK    6  A    between atoms: C_10  and  C_11
REMARK    7  A    between atoms: N_15  and  C_16
REMARK                            x       y       z     vdW  Elec       q    Type
REMARK                         _______ _______ _______ _____ _____    ______ ____
ROOT
ATOM      1  C   UNL     1       6.858   4.461  16.863  0.00  0.00    +0.000 A 
ATOM      2  N   UNL     1       7.710   4.606  15.855  0.00  0.00    +0.000 NA
ATOM      3  O   UNL     1       6.922   4.517  14.719  0.00  0.00    +0.000 OA
ATOM      4  N   UNL     1       5.588   4.312  15.048  0.00  0.00    +0.000 NA
ATOM      5  C   UNL     1       5.543   4.256  16.388  0.00  0.00    +0.000 A 
ENDROOT
BRANCH   5   6
ATOM      6  C   UNL     1       4.323   4.065  17.131  0.00  0.00    +0.000 C 
ATOM      7  C   UNL     1       3.885   2.844  17.486  0.00  0.00    +0.000 C 
ATOM      8  C   UNL     1       2.648   2.631  18.291  0.00  0.00    +0.000 C 
ATOM      9  C   UNL     1       1.874   3.902  18.675  0.00  0.00    +0.000 C 
ATOM     10  N   UNL     1       2.535   5.201  18.548  0.00  0.00    +0.000 NA
ATOM     11  C   UNL     1       2.899   5.805  19.819  0.00  0.00    +0.000 C 
ATOM     12  C   UNL     1       3.572   5.318  17.515  0.00  0.00    +0.000 C 
ENDBRANCH   5   6
BRANCH   1  13
ATOM     13  O   UNL     1       7.300   4.480  18.146  0.00  0.00    +0.000 OA
BRANCH  13  14
ATOM     14  C   UNL     1       6.942   5.675  18.849  0.00  0.00    +0.000 C 
BRANCH  14  15
ATOM     15  C   UNL     1       8.071   6.691  18.704  0.00  0.00    +0.000 C 
BRANCH  15  17
ATOM     16  C   UNL     1       8.243   9.126  18.063  0.00  0.00    +0.000 C 
ATOM     17  C   UNL     1       7.720   7.756  17.666  0.00  0.00    +0.000 C 
ENDBRANCH  15  17
ENDBRANCH  14  15
ENDBRANCH  13  14
ENDBRANCH   1  13
TORSDOF 5
ENDMDL
MODEL 5
REMARK VINA RESULT:      -6.6      1.294      1.554
REMARK  Name = 
REMARK  7 active torsions:
REMARK  status: ('A' for Active; 'I' for Inactive)
REMARK    1  A    between atoms: C_1  and  C_2
REMARK    2  A    between atoms: C_2  and  C_3
REMARK    3  A    between atoms: C_3  and  C_4
REMARK    4  A    between atoms: C_4  and  O_5
REMARK    5  A    between atoms: O_5  and  C_6
REMARK    6  A    between atoms: C_10  and  C_11
REMARK    7  A    between atoms: N_15  and  C_16
REMARK                            x       y       z     vdW  Elec       q    Type
REMARK                         _______ _______ _______ _____ _____    ______ ____
ROOT
ATOM      1  C   UNL     1       6.461   4.114  15.931  0.00  0.00    +0.000 A 
ATOM      2  N   UNL     1       7.734   4.468  16.064  0.00  0.00    +0.000 NA
ATOM      3  O   UNL     1       7.828   4.939  17.364  0.00  0.00    +0.000 OA
ATOM      4  N   UNL     1       6.601   4.872  18.013  0.00  0.00    +0.000 NA
ATOM      5  C   UNL     1       5.736   4.375  17.115  0.00  0.00    +0.000 A 
ENDROOT
BRANCH   5   6
ATOM      6  C   UNL     1       4.345   4.138  17.406  0.00  0.00    +0.000 C 
ATOM      7  C   UNL     1       3.822   2.899  17.438  0.00  0.00    +0.000 C 
ATOM      8  C   UNL     1       2.395   2.633  17.779  0.00  0.00    +0.000 C 
ATOM      9  C   UNL     1       1.535   3.873  18.069  0.00  0.00    +0.000 C 
ATOM     10  N   UNL     1       2.198   5.150  18.332  0.00  0.00    +0.000 NA
ATOM     11  C   UNL     1       2.140   5.570  19.722  0.00  0.00    +0.000 C 
ATOM     12  C   UNL     1       3.507   5.359  17.701  0.00  0.00    +0.000 C 
ENDBRANCH   5   6
BRANCH   1  13
ATOM     13  O   UNL     1       6.007   3.616  14.753  0.00  0.00    +0.000 OA
BRANCH  13  14
ATOM     14  C   UNL     1       6.192   4.511  13.651  0.00  0.00    +0.000 C 
BRANCH  14  15
ATOM     15  C   UNL     1       6.646   3.709  12.434  0.00  0.00    +0.000 C 
BRANCH  15  17
ATOM     16  C   UNL     1       4.348   3.350  11.455  0.00  0.00    +0.000 C 
ATOM     17  C   UNL     1       5.589   2.685  12.028  0.00  0.00    +0.000 C 
ENDBRANCH  15  17
ENDBRANCH  14  15
ENDBRANCH  13  14
ENDBRANCH   1  13
TORSDOF 5
ENDMDL
MODEL 6
REMARK VINA RESULT:      -6.6      1.327      1.871
REMARK  Name = 
REMARK  7 active torsions:
REMARK  status: ('A' for Active; 'I' for Inactive)
REMARK    1  A    between atoms: C_1  and  C_2
REMARK    2  A    between atoms: C_2  and  C_3
REMARK    3  A    between atoms: C_3  and  C_4
REMARK    4  A    between atoms: C_4  and  O_5
REMARK    5  A    between atoms: O_5  and  C_6
REMARK    6  A    between atoms: C_10  and  C_11
REMARK    7  A    between atoms: N_15  and  C_16
REMARK                            x       y       z     vdW  Elec       q    Type
REMARK                         _______ _______ _______ _____ _____    ______ ____
ROOT
ATOM      1  C   UNL     1       6.447   4.721  16.217  0.00  0.00    +0.000 A 
ATOM      2  N   UNL     1       7.768   4.590  16.182  0.00  0.00    +0.000 NA
ATOM      3  O   UNL     1       8.130   4.383  17.504  0.00  0.00    +0.000 OA
ATOM      4  N   UNL     1       7.019   4.396  18.337  0.00  0.00    +0.000 NA
ATOM      5  C   UNL     1       5.964   4.627  17.541  0.00  0.00    +0.000 A 
ENDROOT
BRANCH   5   6
ATOM      6  C   UNL     1       4.609   4.703  18.027  0.00  0.00    +0.000 C 
ATOM      7  C   UNL     1       3.818   5.762  17.778  0.00  0.00    +0.000 C 
ATOM      8  C   UNL     1       2.401   5.838  18.237  0.00  0.00    +0.000 C 
ATOM      9  C   UNL     1       1.895   4.633  19.044  0.00  0.00    +0.000 C 
ATOM     10  N   UNL     1       2.665   3.389  19.021  0.00  0.00    +0.000 NA
ATOM     11  C   UNL     1       2.045   2.325  18.250  0.00  0.00    +0.000 C 
ATOM     12  C   UNL     1       4.114   3.511  18.811  0.00  0.00    +0.000 C 
ENDBRANCH   5   6
BRANCH   1  13
ATOM     13  O   UNL     1       5.750   4.955  15.076  0.00  0.00    +0.000 OA
BRANCH  13  14
ATOM     14  C   UNL     1       5.434   3.761  14.352  0.00  0.00    +0.000 C 
BRANCH  14  15
ATOM     15  C   UNL     1       6.160   3.791  13.010  0.00  0.00    +0.000 C 
BRANCH  15  17
ATOM     16  C   UNL     1       5.816   1.858  11.425  0.00  0.00    +0.000 C 
ATOM     17  C   UNL     1       5.290   3.201  11.902  0.00  0.00    +0.000 C 
ENDBRANCH  15  17
ENDBRANCH  14  15
ENDBRANCH  13  14
ENDBRANCH   1  13
TORSDOF 5
ENDMDL
MODEL 7
REMARK VINA RESULT:      -6.5      1.538      2.179
REMARK  Name = 
REMARK  7 active torsions:
REMARK  status: ('A' for Active; 'I' for Inactive)
REMARK    1  A    between atoms: C_1  and  C_2
REMARK    2  A    between atoms: C_2  and  C_3
REMARK    3  A    between atoms: C_3  and  C_4
REMARK    4  A    between atoms: C_4  and  O_5
REMARK    5  A    between atoms: O_5  and  C_6
REMARK    6  A    between atoms: C_10  and  C_11
REMARK    7  A    between atoms: N_15  and  C_16
REMARK                            x       y       z     vdW  Elec       q    Type
REMARK                         _______ _______ _______ _____ _____    ______ ____
ROOT
ATOM      1  C   UNL     1       6.102   5.186  15.723  0.00  0.00    +0.000 A 
ATOM      2  N   UNL     1       7.239   5.792  15.404  0.00  0.00    +0.000 NA
ATOM      3  O   UNL     1       7.588   6.497  16.545  0.00  0.00    +0.000 OA
ATOM      4  N   UNL     1       6.651   6.316  17.554  0.00  0.00    +0.000 NA
ATOM      5  C   UNL     1       5.707   5.512  17.039  0.00  0.00    +0.000 A 
ENDROOT
BRANCH   5   6
ATOM      6  C   UNL     1       4.554   5.071  17.783  0.00  0.00    +0.000 C 
ATOM      7  C   UNL     1       3.379   5.725  17.736  0.00  0.00    +0.000 C 
ATOM      8  C   UNL     1       2.165   5.259  18.465  0.00  0.00    +0.000 C 
ATOM      9  C   UNL     1       2.339   3.986  19.308  0.00  0.00    +0.000 C 
ATOM     10  N   UNL     1       3.514   3.143  19.085  0.00  0.00    +0.000 NA
ATOM     11  C   UNL     1       3.223   1.891  18.408  0.00  0.00    +0.000 C 
ATOM     12  C   UNL     1       4.728   3.813  18.601  0.00  0.00    +0.000 C 
ENDBRANCH   5   6
BRANCH   1  13
ATOM     13  O   UNL     1       5.459   4.408  14.815  0.00  0.00    +0.000 OA
BRANCH  13  14
ATOM     14  C   UNL     1       6.351   3.674  13.968  0.00  0.00    +0.000 C 
BRANCH  14  15
ATOM     15  C   UNL     1       6.009   3.977  12.511  0.00  0.00    +0.000 C 
BRANCH  15  17
ATOM     16  C   UNL     1       4.007   3.185  11.194  0.00  0.00    +0.000 C 
ATOM     17  C   UNL     1       5.317   2.785  11.853  0.00  0.00    +0.000 C 
ENDBRANCH  15  17
ENDBRANCH  14  15
ENDBRANCH  13  14
ENDBRANCH   1  13
TORSDOF 5
ENDMDL
MODEL 8
REMARK VINA RESULT:      -6.5      1.739      2.264
REMARK  Name = 
REMARK  7 active torsions:
REMARK  status: ('A' for Active; 'I' for Inactive)
REMARK    1  A    between atoms: C_1  and  C_2
REMARK    2  A    between atoms: C_2  and  C_3
REMARK    3  A    between atoms: C_3  and  C_4
REMARK    4  A    between atoms: C_4  and  O_5
REMARK    5  A    between atoms: O_5  and  C_6
REMARK    6  A    between atoms: C_10  and  C_11
REMARK    7  A    between atoms: N_15  and  C_16
REMARK                            x       y       z     vdW  Elec       q    Type
REMARK                         _______ _______ _______ _____ _____    ______ ____
ROOT
ATOM      1  C   UNL     1       6.528   4.684  15.507  0.00  0.00    +0.000 A 
ATOM      2  N   UNL     1       7.556   5.486  15.258  0.00  0.00    +0.000 NA
ATOM      3  O   UNL     1       7.616   6.324  16.360  0.00  0.00    +0.000 OA
ATOM      4  N   UNL     1       6.614   6.025  17.274  0.00  0.00    +0.000 NA
ATOM      5  C   UNL     1       5.916   5.012  16.738  0.00  0.00    +0.000 A 
ENDROOT
BRANCH   5   6
ATOM      6  C   UNL     1       4.788   4.397  17.390  0.00  0.00    +0.000 C 
ATOM      7  C   UNL     1       3.734   3.924  16.702  0.00  0.00    +0.000 C 
ATOM      8  C   UNL     1       2.578   3.247  17.357  0.00  0.00    +0.000 C 
ATOM      9  C   UNL     1       2.646   3.142  18.889  0.00  0.00    +0.000 C 
ATOM     10  N   UNL     1       3.925   3.375  19.560  0.00  0.00    +0.000 NA
ATOM     11  C   UNL     1       4.545   2.170  20.085  0.00  0.00    +0.000 C 
ATOM     12  C   UNL     1       4.866   4.286  18.895  0.00  0.00    +0.000 C 
ENDBRANCH   5   6
BRANCH   1  13
ATOM     13  O   UNL     1       6.167   3.730  14.611  0.00  0.00    +0.000 OA
BRANCH  13  14
ATOM     14  C   UNL     1       6.485   4.077  13.259  0.00  0.00    +0.000 C 
BRANCH  14  15
ATOM     15  C   UNL     1       5.806   3.082  12.322  0.00  0.00    +0.000 C 
BRANCH  15  17
ATOM     16  C   UNL     1       6.320   0.975  11.030  0.00  0.00    +0.000 C 
ATOM     17  C   UNL     1       6.836   2.332  11.479  0.00  0.00    +0.000 C 
ENDBRANCH  15  17
ENDBRANCH  14  15
ENDBRANCH  13  14
ENDBRANCH   1  13
TORSDOF 5
ENDMDL
MODEL 9
REMARK VINA RESULT:      -6.4      1.668      2.355
REMARK  Name = 
REMARK  7 active torsions:
REMARK  status: ('A' for Active; 'I' for Inactive)
REMARK    1  A    between atoms: C_1  and  C_2
REMARK    2  A    between atoms: C_2  and  C_3
REMARK    3  A    between atoms: C_3  and  C_4
REMARK    4  A    between atoms: C_4  and  O_5
REMARK    5  A    between atoms: O_5  and  C_6
REMARK    6  A    between atoms: C_10  and  C_11
REMARK    7  A    between atoms: N_15  and  C_16
REMARK                            x       y       z     vdW  Elec       q    Type
REMARK                         _______ _______ _______ _____ _____    ______ ____
ROOT
ATOM      1  C   UNL     1       6.533   4.670  15.455  0.00  0.00    +0.000 A 
ATOM      2  N   UNL     1       7.445   5.571  15.108  0.00  0.00    +0.000 NA
ATOM      3  O   UNL     1       7.565   6.389  16.220  0.00  0.00    +0.000 OA
ATOM      4  N   UNL     1       6.715   5.979  17.240  0.00  0.00    +0.000 NA
ATOM      5  C   UNL     1       6.052   4.915  16.760  0.00  0.00    +0.000 A 
ENDROOT
BRANCH   5   6
ATOM      6  C   UNL     1       5.074   4.184  17.525  0.00  0.00    +0.000 C 
ATOM      7  C   UNL     1       5.275   3.851  18.812  0.00  0.00    +0.000 C 
ATOM      8  C   UNL     1       4.256   3.132  19.631  0.00  0.00    +0.000 C 
ATOM      9  C   UNL     1       2.954   2.763  18.903  0.00  0.00    +0.000 C 
ATOM     10  N   UNL     1       2.648   3.408  17.626  0.00  0.00    +0.000 NA
ATOM     11  C   UNL     1       1.580   4.391  17.702  0.00  0.00    +0.000 C 
ATOM     12  C   UNL     1       3.791   3.834  16.808  0.00  0.00    +0.000 C 
ENDBRANCH   5   6
BRANCH   1  13
ATOM     13  O   UNL     1       6.153   3.705  14.580  0.00  0.00    +0.000 OA
BRANCH  13  14
ATOM     14  C   UNL     1       6.595   3.951  13.240  0.00  0.00    +0.000 C 
BRANCH  14  15
ATOM     15  C   UNL     1       5.781   3.083  12.285  0.00  0.00    +0.000 C 
BRANCH  15  17
ATOM     16  C   UNL     1       3.698   2.964  10.864  0.00  0.00    +0.000 C 
ATOM     17  C   UNL     1       4.512   3.804  11.835  0.00  0.00    +0.000 C 
ENDBRANCH  15  17
ENDBRANCH  14  15
ENDBRANCH  13  14
ENDBRANCH   1  13
TORSDOF 5
ENDMDL
