MODEL 1
REMARK VINA RESULT:      -6.8      0.000      0.000
REMARK  Name = 
REMARK  9 active torsions:
REMARK  status: ('A' for Active; 'I' for Inactive)
REMARK    1  A    between atoms: C_2  and  C_3
REMARK    2  A    between atoms: C_2  and  C_4
REMARK    3  A    between atoms: C_9  and  O_10
REMARK    4  A    between atoms: O_10  and  C_11
REMARK    5  A    between atoms: C_12  and  C_13
REMARK    6  A    between atoms: C_13  and  C_14
REMARK    7  A    between atoms: C_13  and  O_15
REMARK    8  A    between atoms: C_16  and  O_17
REMARK    9  A    between atoms: O_17  and  C_18
REMARK                            x       y       z     vdW  Elec       q    Type
REMARK                         _______ _______ _______ _____ _____    ______ ____
ROOT
ATOM      1  C   UNL     1       5.833   6.058  17.011  0.00  0.00    +0.000 C 
ATOM      2  C   UNL     1       5.362   4.615  17.286  0.00  0.00    +0.000 C 
ATOM      3  C   UNL     1       4.286   4.889  18.269  0.00  0.00    +0.000 A 
ATOM      4  C   UNL     1       3.961   6.229  18.215  0.00  0.00    +0.000 A 
ATOM      5  C   UNL     1       2.969   6.766  18.999  0.00  0.00    +0.000 A 
ATOM      6  C   UNL     1       2.339   5.934  19.937  0.00  0.00    +0.000 A 
ATOM      7  C   UNL     1       2.663   4.544  20.036  0.00  0.00    +0.000 A 
ATOM      8  C   UNL     1       3.633   4.019  19.140  0.00  0.00    +0.000 A 
ATOM      9  O   UNL     1       4.768   6.972  17.393  0.00  0.00    +0.000 OA
ENDROOT
BRANCH   1  11
ATOM     10  C   UNL     1       7.778   5.577  18.520  0.00  0.00    +0.000 C 
ATOM     11  C   UNL     1       7.134   6.441  17.715  0.00  0.00    +0.000 C 
ATOM     12  C   UNL     1       7.675   7.830  17.500  0.00  0.00    +0.000 C 
ENDBRANCH   1  11
BRANCH   6  13
ATOM     13  O   UNL     1       1.401   6.445  20.805  0.00  0.00    +0.000 OA
ATOM     14  C   UNL     1       1.375   7.870  20.910  0.00  0.00    +0.000 C 
ENDBRANCH   6  13
BRANCH   7  15
ATOM     15  C   UNL     1       2.061   3.650  21.108  0.00  0.00    +0.000 C 
ATOM     16  C   UNL     1       0.830   2.813  20.763  0.00  0.00    +0.000 C 
BRANCH  15  17
ATOM     17  O   UNL     1       3.074   2.799  21.647  0.00  0.00    +0.000 OA
ATOM     18  H   UNL     1       2.643   2.240  22.317  0.00  0.00    +0.000 HD
ENDBRANCH  15  17
ENDBRANCH   7  15
BRANCH   8  19
ATOM     19  O   UNL     1       4.149   2.749  19.161  0.00  0.00    +0.000 OA
ATOM     20  C   UNL     1       3.506   1.784  18.331  0.00  0.00    +0.000 C 
ENDBRANCH   8  19
TORSDOF 5
ENDMDL
MODEL 2
REMARK VINA RESULT:      -6.8      1.164      1.217
REMARK  Name = 
REMARK  9 active torsions:
REMARK  status: ('A' for Active; 'I' for Inactive)
REMARK    1  A    between atoms: C_2  and  C_3
REMARK    2  A    between atoms: C_2  and  C_4
REMARK    3  A    between atoms: C_9  and  O_10
REMARK    4  A    between atoms: O_10  and  C_11
REMARK    5  A    between atoms: C_12  and  C_13
REMARK    6  A    between atoms: C_13  and  C_14
REMARK    7  A    between atoms: C_13  and  O_15
REMARK    8  A    between atoms: C_16  and  O_17
REMARK    9  A    between atoms: O_17  and  C_18
REMARK                            x       y       z     vdW  Elec       q    Type
REMARK                         _______ _______ _______ _____ _____    ______ ____
ROOT
ATOM      1  C   UNL     1       5.470   5.839  16.370  0.00  0.00    +0.000 C 
ATOM      2  C   UNL     1       4.706   4.499  16.349  0.00  0.00    +0.000 C 
ATOM      3  C   UNL     1       3.790   4.719  17.495  0.00  0.00    +0.000 A 
ATOM      4  C   UNL     1       3.773   6.065  17.803  0.00  0.00    +0.000 A 
ATOM      5  C   UNL     1       2.985   6.567  18.810  0.00  0.00    +0.000 A 
ATOM      6  C   UNL     1       2.250   5.664  19.593  0.00  0.00    +0.000 A 
ATOM      7  C   UNL     1       2.257   4.260  19.316  0.00  0.00    +0.000 A 
ATOM      8  C   UNL     1       3.019   3.802  18.207  0.00  0.00    +0.000 A 
ATOM      9  O   UNL     1       4.669   6.818  17.089  0.00  0.00    +0.000 OA
ENDROOT
BRANCH   1  11
ATOM     10  C   UNL     1       7.510   4.582  17.109  0.00  0.00    +0.000 C 
ATOM     11  C   UNL     1       6.869   5.757  16.978  0.00  0.00    +0.000 C 
ATOM     12  C   UNL     1       7.516   7.033  17.450  0.00  0.00    +0.000 C 
ENDBRANCH   1  11
BRANCH   6  13
ATOM     13  O   UNL     1       1.514   6.109  20.667  0.00  0.00    +0.000 OA
ATOM     14  C   UNL     1       1.490   7.527  20.848  0.00  0.00    +0.000 C 
ENDBRANCH   6  13
BRANCH   7  15
ATOM     15  C   UNL     1       1.545   3.259  20.209  0.00  0.00    +0.000 C 
ATOM     16  C   UNL     1       2.082   3.015  21.618  0.00  0.00    +0.000 C 
BRANCH  15  17
ATOM     17  O   UNL     1       0.156   3.586  20.284  0.00  0.00    +0.000 OA
ATOM     18  H   UNL     1      -0.131   3.383  21.192  0.00  0.00    +0.000 HD
ENDBRANCH  15  17
ENDBRANCH   7  15
BRANCH   8  19
ATOM     19  O   UNL     1       3.235   2.494  17.860  0.00  0.00    +0.000 OA
ATOM     20  C   UNL     1       4.022   1.716  18.761  0.00  0.00    +0.000 C 
ENDBRANCH   8  19
TORSDOF 5
ENDMDL
MODEL 3
REMARK VINA RESULT:      -6.2      1.220      1.294
REMARK  Name = 
REMARK  9 active torsions:
REMARK  status: ('A' for Active; 'I' for Inactive)
REMARK    1  A    between atoms: C_2  and  C_3
REMARK    2  A    between atoms: C_2  and  C_4
REMARK    3  A    between atoms: C_9  and  O_10
REMARK    4  A    between atoms: O_10  and  C_11
REMARK    5  A    between atoms: C_12  and  C_13
REMARK    6  A    between atoms: C_13  and  C_14
REMARK    7  A    between atoms: C_13  and  O_15
REMARK    8  A    between atoms: C_16  and  O_17
REMARK    9  A    between atoms: O_17  and  C_18
REMARK                            x       y       z     vdW  Elec       q    Type
REMARK                         _______ _______ _______ _____ _____    ______ ____
ROOT
ATOM      1  C   UNL     1       6.626   6.223  17.090  0.00  0.00    +0.000 C 
ATOM      2  C   UNL     1       6.023   4.926  17.670  0.00  0.00    +0.000 C 
ATOM      3  C   UNL     1       4.727   5.453  18.163  0.00  0.00    +0.000 A 
ATOM      4  C   UNL     1       4.499   6.688  17.589  0.00  0.00    +0.000 A 
ATOM      5  C   UNL     1       3.354   7.404  17.842  0.00  0.00    +0.000 A 
ATOM      6  C   UNL     1       2.443   6.891  18.778  0.00  0.00    +0.000 A 
ATOM      7  C   UNL     1       2.654   5.624  19.407  0.00  0.00    +0.000 A 
ATOM      8  C   UNL     1       3.811   4.882  19.043  0.00  0.00    +0.000 A 
ATOM      9  O   UNL     1       5.544   7.162  16.838  0.00  0.00    +0.000 OA
ENDROOT
BRANCH   1  11
ATOM     10  C   UNL     1       8.250   6.209  19.000  0.00  0.00    +0.000 C 
ATOM     11  C   UNL     1       7.690   6.872  17.973  0.00  0.00    +0.000 C 
ATOM     12  C   UNL     1       8.091   8.293  17.674  0.00  0.00    +0.000 C 
ENDBRANCH   1  11
BRANCH   6  13
ATOM     13  O   UNL     1       1.325   7.611  19.129  0.00  0.00    +0.000 OA
ATOM     14  C   UNL     1       1.445   9.031  19.007  0.00  0.00    +0.000 C 
ENDBRANCH   6  13
BRANCH   7  15
ATOM     15  C   UNL     1       1.728   5.097  20.491  0.00  0.00    +0.000 C 
ATOM     16  C   UNL     1       0.785   3.944  20.157  0.00  0.00    +0.000 C 
BRANCH  15  17
ATOM     17  O   UNL     1       2.491   4.762  21.652  0.00  0.00    +0.000 OA
ATOM     18  H   UNL     1       3.098   4.047  21.392  0.00  0.00    +0.000 HD
ENDBRANCH  15  17
ENDBRANCH   7  15
BRANCH   8  19
ATOM     19  O   UNL     1       4.235   3.712  19.618  0.00  0.00    +0.000 OA
ATOM     20  C   UNL     1       3.863   2.505  18.958  0.00  0.00    +0.000 C 
ENDBRANCH   8  19
TORSDOF 5
ENDMDL
MODEL 4
REMARK VINA RESULT:      -6.1      1.822      5.942
REMARK  Name = 
REMARK  9 active torsions:
REMARK  status: ('A' for Active; 'I' for Inactive)
REMARK    1  A    between atoms: C_2  and  C_3
REMARK    2  A    between atoms: C_2  and  C_4
REMARK    3  A    between atoms: C_9  and  O_10
REMARK    4  A    between atoms: O_10  and  C_11
REMARK    5  A    between atoms: C_12  and  C_13
REMARK    6  A    between atoms: C_13  and  C_14
REMARK    7  A    between atoms: C_13  and  O_15
REMARK    8  A    between atoms: C_16  and  O_17
REMARK    9  A    between atoms: O_17  and  C_18
REMARK                            x       y       z     vdW  Elec       q    Type
REMARK                         _______ _______ _______ _____ _____    ______ ____
ROOT
ATOM      1  C   UNL     1       1.560   3.002  19.441  0.00  0.00    +0.000 C 
ATOM      2  C   UNL     1       1.522   4.523  19.188  0.00  0.00    +0.000 C 
ATOM      3  C   UNL     1       2.706   4.658  18.305  0.00  0.00    +0.000 A 
ATOM      4  C   UNL     1       3.059   3.409  17.836  0.00  0.00    +0.000 A 
ATOM      5  C   UNL     1       4.109   3.230  16.967  0.00  0.00    +0.000 A 
ATOM      6  C   UNL     1       4.887   4.348  16.627  0.00  0.00    +0.000 A 
ATOM      7  C   UNL     1       4.563   5.655  17.109  0.00  0.00    +0.000 A 
ATOM      8  C   UNL     1       3.414   5.799  17.932  0.00  0.00    +0.000 A 
ATOM      9  O   UNL     1       2.339   2.377  18.382  0.00  0.00    +0.000 OA
ENDROOT
BRANCH   1  11
ATOM     10  C   UNL     1       1.332   2.562  21.899  0.00  0.00    +0.000 C 
ATOM     11  C   UNL     1       2.116   2.603  20.807  0.00  0.00    +0.000 C 
ATOM     12  C   UNL     1       3.582   2.271  20.908  0.00  0.00    +0.000 C 
ENDBRANCH   1  11
BRANCH   6  13
ATOM     13  O   UNL     1       6.000   4.207  15.831  0.00  0.00    +0.000 OA
ATOM     14  C   UNL     1       5.738   3.932  14.453  0.00  0.00    +0.000 C 
ENDBRANCH   6  13
BRANCH   7  15
ATOM     15  C   UNL     1       5.448   6.859  16.829  0.00  0.00    +0.000 C 
ATOM     16  C   UNL     1       6.860   6.887  17.409  0.00  0.00    +0.000 C 
BRANCH  15  17
ATOM     17  O   UNL     1       5.512   7.089  15.420  0.00  0.00    +0.000 OA
ATOM     18  H   UNL     1       4.610   6.970  15.075  0.00  0.00    +0.000 HD
ENDBRANCH  15  17
ENDBRANCH   7  15
BRANCH   8  19
ATOM     19  O   UNL     1       3.017   6.944  18.574  0.00  0.00    +0.000 OA
ATOM     20  C   UNL     1       2.266   7.880  17.803  0.00  0.00    +0.000 C 
ENDBRANCH   8  19
TORSDOF 5
ENDMDL
MODEL 5
REMARK VINA RESULT:      -6.0      2.064      5.979
REMARK  Name = 
REMARK  9 active torsions:
REMARK  status: ('A' for Active; 'I' for Inactive)
REMARK    1  A    between atoms: C_2  and  C_3
REMARK    2  A    between atoms: C_2  and  C_4
REMARK    3  A    between atoms: C_9  and  O_10
REMARK    4  A    between atoms: O_10  and  C_11
REMARK    5  A    between atoms: C_12  and  C_13
REMARK    6  A    between atoms: C_13  and  C_14
REMARK    7  A    between atoms: C_13  and  O_15
REMARK    8  A    between atoms: C_16  and  O_17
REMARK    9  A    between atoms: O_17  and  C_18
REMARK                            x       y       z     vdW  Elec       q    Type
REMARK                         _______ _______ _______ _____ _____    ______ ____
ROOT
ATOM      1  C   UNL     1       1.403   3.562  18.007  0.00  0.00    +0.000 C 
ATOM      2  C   UNL     1       1.695   5.068  18.172  0.00  0.00    +0.000 C 
ATOM      3  C   UNL     1       3.104   5.099  17.709  0.00  0.00    +0.000 A 
ATOM      4  C   UNL     1       3.380   3.926  17.035  0.00  0.00    +0.000 A 
ATOM      5  C   UNL     1       4.608   3.690  16.467  0.00  0.00    +0.000 A 
ATOM      6  C   UNL     1       5.624   4.638  16.661  0.00  0.00    +0.000 A 
ATOM      7  C   UNL     1       5.381   5.856  17.370  0.00  0.00    +0.000 A 
ATOM      8  C   UNL     1       4.068   6.093  17.861  0.00  0.00    +0.000 A 
ATOM      9  O   UNL     1       2.366   3.004  17.070  0.00  0.00    +0.000 OA
ENDROOT
BRANCH   1  11
ATOM     10  C   UNL     1       1.931   1.526  19.373  0.00  0.00    +0.000 C 
ATOM     11  C   UNL     1       1.422   2.770  19.314  0.00  0.00    +0.000 C 
ATOM     12  C   UNL     1       0.835   3.412  20.543  0.00  0.00    +0.000 C 
ENDBRANCH   1  11
BRANCH   6  13
ATOM     13  O   UNL     1       6.894   4.406  16.187  0.00  0.00    +0.000 OA
ATOM     14  C   UNL     1       7.036   4.450  14.765  0.00  0.00    +0.000 C 
ENDBRANCH   6  13
BRANCH   7  15
ATOM     15  C   UNL     1       6.492   6.849  17.672  0.00  0.00    +0.000 C 
ATOM     16  C   UNL     1       7.649   6.410  18.566  0.00  0.00    +0.000 C 
BRANCH  15  17
ATOM     17  O   UNL     1       7.012   7.372  16.449  0.00  0.00    +0.000 OA
ATOM     18  H   UNL     1       6.817   8.325  16.445  0.00  0.00    +0.000 HD
ENDBRANCH  15  17
ENDBRANCH   7  15
BRANCH   8  19
ATOM     19  O   UNL     1       3.679   7.141  18.655  0.00  0.00    +0.000 OA
ATOM     20  C   UNL     1       2.979   8.203  18.011  0.00  0.00    +0.000 C 
ENDBRANCH   8  19
TORSDOF 5
ENDMDL
MODEL 6
REMARK VINA RESULT:      -5.6      1.769      5.869
REMARK  Name = 
REMARK  9 active torsions:
REMARK  status: ('A' for Active; 'I' for Inactive)
REMARK    1  A    between atoms: C_2  and  C_3
REMARK    2  A    between atoms: C_2  and  C_4
REMARK    3  A    between atoms: C_9  and  O_10
REMARK    4  A    between atoms: O_10  and  C_11
REMARK    5  A    between atoms: C_12  and  C_13
REMARK    6  A    between atoms: C_13  and  C_14
REMARK    7  A    between atoms: C_13  and  O_15
REMARK    8  A    between atoms: C_16  and  O_17
REMARK    9  A    between atoms: O_17  and  C_18
REMARK                            x       y       z     vdW  Elec       q    Type
REMARK                         _______ _______ _______ _____ _____    ______ ____
ROOT
ATOM      1  C   UNL     1       1.806   2.519  19.349  0.00  0.00    +0.000 C 
ATOM      2  C   UNL     1       1.425   3.929  18.851  0.00  0.00    +0.000 C 
ATOM      3  C   UNL     1       2.650   4.261  18.084  0.00  0.00    +0.000 A 
ATOM      4  C   UNL     1       3.367   3.102  17.862  0.00  0.00    +0.000 A 
ATOM      5  C   UNL     1       4.540   3.102  17.146  0.00  0.00    +0.000 A 
ATOM      6  C   UNL     1       5.053   4.333  16.712  0.00  0.00    +0.000 A 
ATOM      7  C   UNL     1       4.349   5.557  16.939  0.00  0.00    +0.000 A 
ATOM      8  C   UNL     1       3.095   5.492  17.606  0.00  0.00    +0.000 A 
ATOM      9  O   UNL     1       2.858   1.995  18.491  0.00  0.00    +0.000 OA
ENDROOT
BRANCH   1  11
ATOM     10  C   UNL     1       3.517   2.190  21.152  0.00  0.00    +0.000 C 
ATOM     11  C   UNL     1       2.245   2.465  20.811  0.00  0.00    +0.000 C 
ATOM     12  C   UNL     1       1.208   2.710  21.875  0.00  0.00    +0.000 C 
ENDBRANCH   1  11
BRANCH   6  13
ATOM     13  O   UNL     1       6.267   4.394  16.067  0.00  0.00    +0.000 OA
ATOM     14  C   UNL     1       7.416   4.363  16.918  0.00  0.00    +0.000 C 
ENDBRANCH   6  13
BRANCH   7  15
ATOM     15  C   UNL     1       4.934   6.907  16.560  0.00  0.00    +0.000 C 
ATOM     16  C   UNL     1       6.095   7.463  17.382  0.00  0.00    +0.000 C 
BRANCH  15  17
ATOM     17  O   UNL     1       5.294   6.902  15.177  0.00  0.00    +0.000 OA
ATOM     18  H   UNL     1       5.997   7.566  15.069  0.00  0.00    +0.000 HD
ENDBRANCH  15  17
ENDBRANCH   7  15
BRANCH   8  19
ATOM     19  O   UNL     1       2.338   6.561  18.010  0.00  0.00    +0.000 OA
ATOM     20  C   UNL     1       2.592   7.066  19.319  0.00  0.00    +0.000 C 
ENDBRANCH   8  19
TORSDOF 5
ENDMDL
MODEL 7
REMARK VINA RESULT:      -5.6      2.456      4.438
REMARK  Name = 
REMARK  9 active torsions:
REMARK  status: ('A' for Active; 'I' for Inactive)
REMARK    1  A    between atoms: C_2  and  C_3
REMARK    2  A    between atoms: C_2  and  C_4
REMARK    3  A    between atoms: C_9  and  O_10
REMARK    4  A    between atoms: O_10  and  C_11
REMARK    5  A    between atoms: C_12  and  C_13
REMARK    6  A    between atoms: C_13  and  C_14
REMARK    7  A    between atoms: C_13  and  O_15
REMARK    8  A    between atoms: C_16  and  O_17
REMARK    9  A    between atoms: O_17  and  C_18
REMARK                            x       y       z     vdW  Elec       q    Type
REMARK                         _______ _______ _______ _____ _____    ______ ____
ROOT
ATOM      1  C   UNL     1       6.722   3.846  14.970  0.00  0.00    +0.000 C 
ATOM      2  C   UNL     1       7.018   5.092  15.831  0.00  0.00    +0.000 C 
ATOM      3  C   UNL     1       5.724   5.212  16.546  0.00  0.00    +0.000 A 
ATOM      4  C   UNL     1       5.027   4.028  16.413  0.00  0.00    +0.000 A 
ATOM      5  C   UNL     1       3.801   3.839  17.001  0.00  0.00    +0.000 A 
ATOM      6  C   UNL     1       3.215   4.919  17.679  0.00  0.00    +0.000 A 
ATOM      7  C   UNL     1       3.899   6.168  17.822  0.00  0.00    +0.000 A 
ATOM      8  C   UNL     1       5.204   6.281  17.271  0.00  0.00    +0.000 A 
ATOM      9  O   UNL     1       5.620   3.116  15.577  0.00  0.00    +0.000 OA
ENDROOT
BRANCH   1  11
ATOM     10  C   UNL     1       5.316   3.646  12.904  0.00  0.00    +0.000 C 
ATOM     11  C   UNL     1       6.407   4.151  13.507  0.00  0.00    +0.000 C 
ATOM     12  C   UNL     1       7.365   5.026  12.740  0.00  0.00    +0.000 C 
ENDBRANCH   1  11
BRANCH   6  13
ATOM     13  O   UNL     1       1.951   4.807  18.210  0.00  0.00    +0.000 OA
ATOM     14  C   UNL     1       1.677   3.580  18.891  0.00  0.00    +0.000 C 
ENDBRANCH   6  13
BRANCH   7  15
ATOM     15  C   UNL     1       3.243   7.376  18.469  0.00  0.00    +0.000 C 
ATOM     16  C   UNL     1       2.190   8.153  17.682  0.00  0.00    +0.000 C 
BRANCH  15  17
ATOM     17  O   UNL     1       2.705   7.007  19.740  0.00  0.00    +0.000 OA
ATOM     18  H   UNL     1       3.342   6.394  20.147  0.00  0.00    +0.000 HD
ENDBRANCH  15  17
ENDBRANCH   7  15
BRANCH   8  19
ATOM     19  O   UNL     1       5.959   7.424  17.211  0.00  0.00    +0.000 OA
ATOM     20  C   UNL     1       7.240   7.377  17.837  0.00  0.00    +0.000 C 
ENDBRANCH   8  19
TORSDOF 5
ENDMDL
MODEL 8
REMARK VINA RESULT:      -5.5      1.889      3.547
REMARK  Name = 
REMARK  9 active torsions:
REMARK  status: ('A' for Active; 'I' for Inactive)
REMARK    1  A    between atoms: C_2  and  C_3
REMARK    2  A    between atoms: C_2  and  C_4
REMARK    3  A    between atoms: C_9  and  O_10
REMARK    4  A    between atoms: O_10  and  C_11
REMARK    5  A    between atoms: C_12  and  C_13
REMARK    6  A    between atoms: C_13  and  C_14
REMARK    7  A    between atoms: C_13  and  O_15
REMARK    8  A    between atoms: C_16  and  O_17
REMARK    9  A    between atoms: O_17  and  C_18
REMARK                            x       y       z     vdW  Elec       q    Type
REMARK                         _______ _______ _______ _____ _____    ______ ____
ROOT
ATOM      1  C   UNL     1       6.371   5.785  16.210  0.00  0.00    +0.000 C 
ATOM      2  C   UNL     1       5.105   6.560  16.629  0.00  0.00    +0.000 C 
ATOM      3  C   UNL     1       4.570   5.627  17.651  0.00  0.00    +0.000 A 
ATOM      4  C   UNL     1       5.565   4.740  18.012  0.00  0.00    +0.000 A 
ATOM      5  C   UNL     1       5.363   3.775  18.968  0.00  0.00    +0.000 A 
ATOM      6  C   UNL     1       4.079   3.645  19.520  0.00  0.00    +0.000 A 
ATOM      7  C   UNL     1       3.018   4.534  19.158  0.00  0.00    +0.000 A 
ATOM      8  C   UNL     1       3.304   5.572  18.230  0.00  0.00    +0.000 A 
ATOM      9  O   UNL     1       6.715   4.852  17.273  0.00  0.00    +0.000 OA
ENDROOT
BRANCH   1  11
ATOM     10  C   UNL     1       5.134   4.359  14.560  0.00  0.00    +0.000 C 
ATOM     11  C   UNL     1       6.246   5.044  14.880  0.00  0.00    +0.000 C 
ATOM     12  C   UNL     1       7.416   5.082  13.932  0.00  0.00    +0.000 C 
ENDBRANCH   1  11
BRANCH   6  13
ATOM     13  O   UNL     1       3.804   2.639  20.417  0.00  0.00    +0.000 OA
ATOM     14  C   UNL     1       4.834   1.660  20.577  0.00  0.00    +0.000 C 
ENDBRANCH   6  13
BRANCH   7  15
ATOM     15  C   UNL     1       1.600   4.349  19.673  0.00  0.00    +0.000 C 
ATOM     16  C   UNL     1       0.782   3.162  19.169  0.00  0.00    +0.000 C 
BRANCH  15  17
ATOM     17  O   UNL     1       1.606   4.346  21.102  0.00  0.00    +0.000 OA
ATOM     18  H   UNL     1       1.619   5.277  21.384  0.00  0.00    +0.000 HD
ENDBRANCH  15  17
ENDBRANCH   7  15
BRANCH   8  19
ATOM     19  O   UNL     1       2.395   6.439  17.682  0.00  0.00    +0.000 OA
ATOM     20  C   UNL     1       2.276   7.716  18.306  0.00  0.00    +0.000 C 
ENDBRANCH   8  19
TORSDOF 5
ENDMDL
MODEL 9
REMARK VINA RESULT:      -5.5      1.916      3.521
REMARK  Name = 
REMARK  9 active torsions:
REMARK  status: ('A' for Active; 'I' for Inactive)
REMARK    1  A    between atoms: C_2  and  C_3
REMARK    2  A    between atoms: C_2  and  C_4
REMARK    3  A    between atoms: C_9  and  O_10
REMARK    4  A    between atoms: O_10  and  C_11
REMARK    5  A    between atoms: C_12  and  C_13
REMARK    6  A    between atoms: C_13  and  C_14
REMARK    7  A    between atoms: C_13  and  O_15
REMARK    8  A    between atoms: C_16  and  O_17
REMARK    9  A    between atoms: O_17  and  C_18
REMARK                            x       y       z     vdW  Elec       q    Type
REMARK                         _______ _______ _______ _____ _____    ______ ____
ROOT
ATOM      1  C   UNL     1       4.879   5.755  17.486  0.00  0.00    +0.000 C 
ATOM      2  C   UNL     1       3.897   5.174  18.524  0.00  0.00    +0.000 C 
ATOM      3  C   UNL     1       3.095   6.388  18.813  0.00  0.00    +0.000 A 
ATOM      4  C   UNL     1       3.325   7.323  17.823  0.00  0.00    +0.000 A 
ATOM      5  C   UNL     1       2.689   8.540  17.815  0.00  0.00    +0.000 A 
ATOM      6  C   UNL     1       1.854   8.861  18.896  0.00  0.00    +0.000 A 
ATOM      7  C   UNL     1       1.606   7.926  19.950  0.00  0.00    +0.000 A 
ATOM      8  C   UNL     1       2.218   6.646  19.864  0.00  0.00    +0.000 A 
ATOM      9  O   UNL     1       4.297   6.965  16.924  0.00  0.00    +0.000 OA
ENDROOT
BRANCH   1  11
ATOM     10  C   UNL     1       6.727   5.459  19.155  0.00  0.00    +0.000 C 
ATOM     11  C   UNL     1       6.274   6.050  18.035  0.00  0.00    +0.000 C 
ATOM     12  C   UNL     1       7.134   7.042  17.296  0.00  0.00    +0.000 C 
ENDBRANCH   1  11
BRANCH   6  13
ATOM     13  O   UNL     1       1.264  10.101  18.978  0.00  0.00    +0.000 OA
ATOM     14  C   UNL     1       1.933  11.148  18.269  0.00  0.00    +0.000 C 
ENDBRANCH   6  13
BRANCH   7  15
ATOM     15  C   UNL     1       0.781   8.290  21.173  0.00  0.00    +0.000 C 
ATOM     16  C   UNL     1       1.444   9.079  22.300  0.00  0.00    +0.000 C 
BRANCH  15  17
ATOM     17  O   UNL     1      -0.412   8.961  20.765  0.00  0.00    +0.000 OA
ATOM     18  H   UNL     1      -0.388   9.010  19.794  0.00  0.00    +0.000 HD
ENDBRANCH  15  17
ENDBRANCH   7  15
BRANCH   8  19
ATOM     19  O   UNL     1       2.188   5.670  20.826  0.00  0.00    +0.000 OA
ATOM     20  C   UNL     1       1.266   4.601  20.623  0.00  0.00    +0.000 C 
ENDBRANCH   8  19
TORSDOF 5
ENDMDL
