MODEL 1
REMARK VINA RESULT:      -5.1      0.000      0.000
REMARK  Name = 
REMARK  7 active torsions:
REMARK  status: ('A' for Active; 'I' for Inactive)
REMARK    1  A    between atoms: C_1  and  S_2
REMARK    2  A    between atoms: S_2  and  C_3
REMARK    3  A    between atoms: C_5  and  C_6
REMARK    4  A    between atoms: C_8  and  S_9
REMARK    5  A    between atoms: S_9  and  C_10
REMARK    6  A    between atoms: C_10  and  C_11
REMARK    7  A    between atoms: C_11  and  O_12
REMARK                            x       y       z     vdW  Elec       q    Type
REMARK                         _______ _______ _______ _____ _____    ______ ____
ROOT
ATOM      1  C   UNL     1       6.839   5.178  17.649  0.00  0.00    +0.000 A 
ATOM      2  N   UNL     1       7.286   5.251  16.385  0.00  0.00    +0.000 NA
ATOM      3  C   UNL     1       6.530   4.674  15.431  0.00  0.00    +0.000 A 
ATOM      4  C   UNL     1       7.017   4.765  14.018  0.00  0.00    +0.000 C 
ATOM      5  C   UNL     1       5.350   4.028  15.725  0.00  0.00    +0.000 A 
ATOM      6  C   UNL     1       4.969   4.027  17.047  0.00  0.00    +0.000 A 
ATOM      7  N   UNL     1       5.694   4.592  18.024  0.00  0.00    +0.000 NA
ENDROOT
BRANCH   1   9
ATOM      8  C   UNL     1       8.042   7.576  18.173  0.00  0.00    +0.000 C 
ATOM      9  S   UNL     1       7.791   5.952  18.931  0.00  0.00    +0.000 S 
ENDBRANCH   1   9
BRANCH   6  10
ATOM     10  S   UNL     1       3.429   3.242  17.489  0.00  0.00    +0.000 S 
BRANCH  10  11
ATOM     11  C   UNL     1       3.327   3.660  19.272  0.00  0.00    +0.000 C 
BRANCH  11  12
ATOM     12  C   UNL     1       3.761   2.503  20.171  0.00  0.00    +0.000 C 
BRANCH  12  13
ATOM     13  O   UNL     1       5.114   2.127  19.922  0.00  0.00    +0.000 OA
ATOM     14  H   UNL     1       5.362   1.504  20.628  0.00  0.00    +0.000 HD
ENDBRANCH  12  13
ENDBRANCH  11  12
ENDBRANCH  10  11
ENDBRANCH   6  10
TORSDOF 5
ENDMDL
MODEL 2
REMARK VINA RESULT:      -5.0      2.648      4.896
REMARK  Name = 
REMARK  7 active torsions:
REMARK  status: ('A' for Active; 'I' for Inactive)
REMARK    1  A    between atoms: C_1  and  S_2
REMARK    2  A    between atoms: S_2  and  C_3
REMARK    3  A    between atoms: C_5  and  C_6
REMARK    4  A    between atoms: C_8  and  S_9
REMARK    5  A    between atoms: S_9  and  C_10
REMARK    6  A    between atoms: C_10  and  C_11
REMARK    7  A    between atoms: C_11  and  O_12
REMARK                            x       y       z     vdW  Elec       q    Type
REMARK                         _______ _______ _______ _____ _____    ______ ____
ROOT
ATOM      1  C   UNL     1       3.405   4.335  18.938  0.00  0.00    +0.000 A 
ATOM      2  N   UNL     1       2.678   5.463  18.894  0.00  0.00    +0.000 NA
ATOM      3  C   UNL     1       3.151   6.470  18.135  0.00  0.00    +0.000 A 
ATOM      4  C   UNL     1       2.337   7.725  18.071  0.00  0.00    +0.000 C 
ATOM      5  C   UNL     1       4.331   6.364  17.432  0.00  0.00    +0.000 A 
ATOM      6  C   UNL     1       4.990   5.159  17.526  0.00  0.00    +0.000 A 
ATOM      7  N   UNL     1       4.549   4.134  18.271  0.00  0.00    +0.000 NA
ENDROOT
BRANCH   1   9
ATOM      8  C   UNL     1       1.032   3.124  19.551  0.00  0.00    +0.000 C 
ATOM      9  S   UNL     1       2.800   2.973  19.903  0.00  0.00    +0.000 S 
ENDBRANCH   1   9
BRANCH   6  10
ATOM     10  S   UNL     1       6.503   4.943  16.608  0.00  0.00    +0.000 S 
BRANCH  10  11
ATOM     11  C   UNL     1       7.704   4.699  17.972  0.00  0.00    +0.000 C 
BRANCH  11  12
ATOM     12  C   UNL     1       7.760   5.894  18.924  0.00  0.00    +0.000 C 
BRANCH  12  13
ATOM     13  O   UNL     1       7.814   5.474  20.286  0.00  0.00    +0.000 OA
ATOM     14  H   UNL     1       7.199   6.048  20.777  0.00  0.00    +0.000 HD
ENDBRANCH  12  13
ENDBRANCH  11  12
ENDBRANCH  10  11
ENDBRANCH   6  10
TORSDOF 5
ENDMDL
MODEL 3
REMARK VINA RESULT:      -4.9      1.454      1.587
REMARK  Name = 
REMARK  7 active torsions:
REMARK  status: ('A' for Active; 'I' for Inactive)
REMARK    1  A    between atoms: C_1  and  S_2
REMARK    2  A    between atoms: S_2  and  C_3
REMARK    3  A    between atoms: C_5  and  C_6
REMARK    4  A    between atoms: C_8  and  S_9
REMARK    5  A    between atoms: S_9  and  C_10
REMARK    6  A    between atoms: C_10  and  C_11
REMARK    7  A    between atoms: C_11  and  O_12
REMARK                            x       y       z     vdW  Elec       q    Type
REMARK                         _______ _______ _______ _____ _____    ______ ____
ROOT
ATOM      1  C   UNL     1       6.539   4.970  18.217  0.00  0.00    +0.000 A 
ATOM      2  N   UNL     1       6.506   5.027  16.876  0.00  0.00    +0.000 NA
ATOM      3  C   UNL     1       5.522   4.351  16.254  0.00  0.00    +0.000 A 
ATOM      4  C   UNL     1       5.473   4.424  14.759  0.00  0.00    +0.000 C 
ATOM      5  C   UNL     1       4.583   3.621  16.951  0.00  0.00    +0.000 A 
ATOM      6  C   UNL     1       4.691   3.644  18.323  0.00  0.00    +0.000 A 
ATOM      7  N   UNL     1       5.657   4.307  18.976  0.00  0.00    +0.000 NA
ENDROOT
BRANCH   1   9
ATOM      8  C   UNL     1       7.856   7.359  18.043  0.00  0.00    +0.000 C 
ATOM      9  S   UNL     1       7.803   5.873  19.074  0.00  0.00    +0.000 S 
ENDBRANCH   1   9
BRANCH   6  10
ATOM     10  S   UNL     1       3.483   2.752  19.286  0.00  0.00    +0.000 S 
BRANCH  10  11
ATOM     11  C   UNL     1       2.712   4.123  20.229  0.00  0.00    +0.000 C 
BRANCH  11  12
ATOM     12  C   UNL     1       2.077   3.650  21.536  0.00  0.00    +0.000 C 
BRANCH  12  13
ATOM     13  O   UNL     1       2.724   2.484  22.039  0.00  0.00    +0.000 OA
ATOM     14  H   UNL     1       3.530   2.789  22.494  0.00  0.00    +0.000 HD
ENDBRANCH  12  13
ENDBRANCH  11  12
ENDBRANCH  10  11
ENDBRANCH   6  10
TORSDOF 5
ENDMDL
MODEL 4
REMARK VINA RESULT:      -4.9      1.058      1.058
REMARK  Name = 
REMARK  7 active torsions:
REMARK  status: ('A' for Active; 'I' for Inactive)
REMARK    1  A    between atoms: C_1  and  S_2
REMARK    2  A    between atoms: S_2  and  C_3
REMARK    3  A    between atoms: C_5  and  C_6
REMARK    4  A    between atoms: C_8  and  S_9
REMARK    5  A    between atoms: S_9  and  C_10
REMARK    6  A    between atoms: C_10  and  C_11
REMARK    7  A    between atoms: C_11  and  O_12
REMARK                            x       y       z     vdW  Elec       q    Type
REMARK                         _______ _______ _______ _____ _____    ______ ____
ROOT
ATOM      1  C   UNL     1       6.777   5.776  16.926  0.00  0.00    +0.000 A 
ATOM      2  N   UNL     1       7.219   5.593  15.672  0.00  0.00    +0.000 NA
ATOM      3  C   UNL     1       6.507   4.767  14.883  0.00  0.00    +0.000 A 
ATOM      4  C   UNL     1       6.988   4.571  13.478  0.00  0.00    +0.000 C 
ATOM      5  C   UNL     1       5.374   4.123  15.331  0.00  0.00    +0.000 A 
ATOM      6  C   UNL     1       4.993   4.394  16.625  0.00  0.00    +0.000 A 
ATOM      7  N   UNL     1       5.676   5.212  17.440  0.00  0.00    +0.000 NA
ENDROOT
BRANCH   1   9
ATOM      8  C   UNL     1       7.877   5.807  19.429  0.00  0.00    +0.000 C 
ATOM      9  S   UNL     1       7.671   6.882  17.988  0.00  0.00    +0.000 S 
ENDBRANCH   1   9
BRANCH   6  10
ATOM     10  S   UNL     1       3.512   3.624  17.254  0.00  0.00    +0.000 S 
BRANCH  10  11
ATOM     11  C   UNL     1       3.856   3.632  19.056  0.00  0.00    +0.000 C 
BRANCH  11  12
ATOM     12  C   UNL     1       4.140   2.233  19.604  0.00  0.00    +0.000 C 
BRANCH  12  13
ATOM     13  O   UNL     1       4.100   1.250  18.572  0.00  0.00    +0.000 OA
ATOM     14  H   UNL     1       3.356   1.490  17.991  0.00  0.00    +0.000 HD
ENDBRANCH  12  13
ENDBRANCH  11  12
ENDBRANCH  10  11
ENDBRANCH   6  10
TORSDOF 5
ENDMDL
MODEL 5
REMARK VINA RESULT:      -4.9      2.060      2.885
REMARK  Name = 
REMARK  7 active torsions:
REMARK  status: ('A' for Active; 'I' for Inactive)
REMARK    1  A    between atoms: C_1  and  S_2
REMARK    2  A    between atoms: S_2  and  C_3
REMARK    3  A    between atoms: C_5  and  C_6
REMARK    4  A    between atoms: C_8  and  S_9
REMARK    5  A    between atoms: S_9  and  C_10
REMARK    6  A    between atoms: C_10  and  C_11
REMARK    7  A    between atoms: C_11  and  O_12
REMARK                            x       y       z     vdW  Elec       q    Type
REMARK                         _______ _______ _______ _____ _____    ______ ____
ROOT
ATOM      1  C   UNL     1       5.197   5.408  17.135  0.00  0.00    +0.000 A 
ATOM      2  N   UNL     1       4.544   6.548  17.413  0.00  0.00    +0.000 NA
ATOM      3  C   UNL     1       3.264   6.442  17.815  0.00  0.00    +0.000 A 
ATOM      4  C   UNL     1       2.535   7.709  18.140  0.00  0.00    +0.000 C 
ATOM      5  C   UNL     1       2.634   5.222  17.937  0.00  0.00    +0.000 A 
ATOM      6  C   UNL     1       3.397   4.113  17.649  0.00  0.00    +0.000 A 
ATOM      7  N   UNL     1       4.675   4.180  17.247  0.00  0.00    +0.000 NA
ENDROOT
BRANCH   1   9
ATOM      8  C   UNL     1       7.395   6.978  17.555  0.00  0.00    +0.000 C 
ATOM      9  S   UNL     1       6.896   5.505  16.631  0.00  0.00    +0.000 S 
ENDBRANCH   1   9
BRANCH   6  10
ATOM     10  S   UNL     1       2.654   2.501  17.826  0.00  0.00    +0.000 S 
BRANCH  10  11
ATOM     11  C   UNL     1       2.541   2.370  19.652  0.00  0.00    +0.000 C 
BRANCH  11  12
ATOM     12  C   UNL     1       3.894   2.555  20.337  0.00  0.00    +0.000 C 
BRANCH  12  13
ATOM     13  O   UNL     1       4.935   1.890  19.625  0.00  0.00    +0.000 OA
ATOM     14  H   UNL     1       5.747   2.006  20.150  0.00  0.00    +0.000 HD
ENDBRANCH  12  13
ENDBRANCH  11  12
ENDBRANCH  10  11
ENDBRANCH   6  10
TORSDOF 5
ENDMDL
MODEL 6
REMARK VINA RESULT:      -4.8      2.091      3.220
REMARK  Name = 
REMARK  7 active torsions:
REMARK  status: ('A' for Active; 'I' for Inactive)
REMARK    1  A    between atoms: C_1  and  S_2
REMARK    2  A    between atoms: S_2  and  C_3
REMARK    3  A    between atoms: C_5  and  C_6
REMARK    4  A    between atoms: C_8  and  S_9
REMARK    5  A    between atoms: S_9  and  C_10
REMARK    6  A    between atoms: C_10  and  C_11
REMARK    7  A    between atoms: C_11  and  O_12
REMARK                            x       y       z     vdW  Elec       q    Type
REMARK                         _______ _______ _______ _____ _____    ______ ____
ROOT
ATOM      1  C   UNL     1       5.113   5.186  16.795  0.00  0.00    +0.000 A 
ATOM      2  N   UNL     1       4.561   6.358  17.148  0.00  0.00    +0.000 NA
ATOM      3  C   UNL     1       3.343   6.317  17.721  0.00  0.00    +0.000 A 
ATOM      4  C   UNL     1       2.729   7.621  18.130  0.00  0.00    +0.000 C 
ATOM      5  C   UNL     1       2.676   5.132  17.937  0.00  0.00    +0.000 A 
ATOM      6  C   UNL     1       3.336   3.984  17.559  0.00  0.00    +0.000 A 
ATOM      7  N   UNL     1       4.550   3.986  16.987  0.00  0.00    +0.000 NA
ENDROOT
BRANCH   1   9
ATOM      8  C   UNL     1       6.418   4.126  14.640  0.00  0.00    +0.000 C 
ATOM      9  S   UNL     1       6.731   5.195  16.065  0.00  0.00    +0.000 S 
ENDBRANCH   1   9
BRANCH   6  10
ATOM     10  S   UNL     1       2.544   2.412  17.848  0.00  0.00    +0.000 S 
BRANCH  10  11
ATOM     11  C   UNL     1       2.547   2.356  19.681  0.00  0.00    +0.000 C 
BRANCH  11  12
ATOM     12  C   UNL     1       3.944   2.543  20.271  0.00  0.00    +0.000 C 
BRANCH  12  13
ATOM     13  O   UNL     1       4.931   1.858  19.503  0.00  0.00    +0.000 OA
ATOM     14  H   UNL     1       5.280   2.503  18.862  0.00  0.00    +0.000 HD
ENDBRANCH  12  13
ENDBRANCH  11  12
ENDBRANCH  10  11
ENDBRANCH   6  10
TORSDOF 5
ENDMDL
MODEL 7
REMARK VINA RESULT:      -4.8      1.918      3.155
REMARK  Name = 
REMARK  7 active torsions:
REMARK  status: ('A' for Active; 'I' for Inactive)
REMARK    1  A    between atoms: C_1  and  S_2
REMARK    2  A    between atoms: S_2  and  C_3
REMARK    3  A    between atoms: C_5  and  C_6
REMARK    4  A    between atoms: C_8  and  S_9
REMARK    5  A    between atoms: S_9  and  C_10
REMARK    6  A    between atoms: C_10  and  C_11
REMARK    7  A    between atoms: C_11  and  O_12
REMARK                            x       y       z     vdW  Elec       q    Type
REMARK                         _______ _______ _______ _____ _____    ______ ____
ROOT
ATOM      1  C   UNL     1       6.440   5.122  15.371  0.00  0.00    +0.000 A 
ATOM      2  N   UNL     1       7.235   6.027  15.964  0.00  0.00    +0.000 NA
ATOM      3  C   UNL     1       6.820   6.533  17.141  0.00  0.00    +0.000 A 
ATOM      4  C   UNL     1       7.710   7.532  17.814  0.00  0.00    +0.000 C 
ATOM      5  C   UNL     1       5.630   6.153  17.722  0.00  0.00    +0.000 A 
ATOM      6  C   UNL     1       4.899   5.204  17.045  0.00  0.00    +0.000 A 
ATOM      7  N   UNL     1       5.280   4.677  15.872  0.00  0.00    +0.000 NA
ENDROOT
BRANCH   1   9
ATOM      8  C   UNL     1       5.376   3.788  13.236  0.00  0.00    +0.000 C 
ATOM      9  S   UNL     1       6.966   4.409  13.834  0.00  0.00    +0.000 S 
ENDBRANCH   1   9
BRANCH   6  10
ATOM     10  S   UNL     1       3.367   4.638  17.764  0.00  0.00    +0.000 S 
BRANCH  10  11
ATOM     11  C   UNL     1       3.819   2.925  18.237  0.00  0.00    +0.000 C 
BRANCH  11  12
ATOM     12  C   UNL     1       4.219   2.809  19.707  0.00  0.00    +0.000 C 
BRANCH  12  13
ATOM     13  O   UNL     1       5.131   1.734  19.917  0.00  0.00    +0.000 OA
ATOM     14  H   UNL     1       5.860   2.091  20.456  0.00  0.00    +0.000 HD
ENDBRANCH  12  13
ENDBRANCH  11  12
ENDBRANCH  10  11
ENDBRANCH   6  10
TORSDOF 5
ENDMDL
MODEL 8
REMARK VINA RESULT:      -4.8      1.739      1.918
REMARK  Name = 
REMARK  7 active torsions:
REMARK  status: ('A' for Active; 'I' for Inactive)
REMARK    1  A    between atoms: C_1  and  S_2
REMARK    2  A    between atoms: S_2  and  C_3
REMARK    3  A    between atoms: C_5  and  C_6
REMARK    4  A    between atoms: C_8  and  S_9
REMARK    5  A    between atoms: S_9  and  C_10
REMARK    6  A    between atoms: C_10  and  C_11
REMARK    7  A    between atoms: C_11  and  O_12
REMARK                            x       y       z     vdW  Elec       q    Type
REMARK                         _______ _______ _______ _____ _____    ______ ____
ROOT
ATOM      1  C   UNL     1       6.425   4.860  18.324  0.00  0.00    +0.000 A 
ATOM      2  N   UNL     1       6.438   4.904  16.983  0.00  0.00    +0.000 NA
ATOM      3  C   UNL     1       5.450   4.257  16.336  0.00  0.00    +0.000 A 
ATOM      4  C   UNL     1       5.452   4.316  14.839  0.00  0.00    +0.000 C 
ATOM      5  C   UNL     1       4.463   3.570  17.008  0.00  0.00    +0.000 A 
ATOM      6  C   UNL     1       4.527   3.603  18.383  0.00  0.00    +0.000 A 
ATOM      7  N   UNL     1       5.495   4.238  19.061  0.00  0.00    +0.000 NA
ENDROOT
BRANCH   1   9
ATOM      8  C   UNL     1       7.863   7.178  18.149  0.00  0.00    +0.000 C 
ATOM      9  S   UNL     1       7.694   5.726  19.214  0.00  0.00    +0.000 S 
ENDBRANCH   1   9
BRANCH   6  10
ATOM     10  S   UNL     1       3.256   2.767  19.314  0.00  0.00    +0.000 S 
BRANCH  10  11
ATOM     11  C   UNL     1       1.965   4.067  19.381  0.00  0.00    +0.000 C 
BRANCH  11  12
ATOM     12  C   UNL     1       2.164   5.031  20.551  0.00  0.00    +0.000 C 
BRANCH  12  13
ATOM     13  O   UNL     1       3.126   6.036  20.240  0.00  0.00    +0.000 OA
ATOM     14  H   UNL     1       3.166   6.090  19.268  0.00  0.00    +0.000 HD
ENDBRANCH  12  13
ENDBRANCH  11  12
ENDBRANCH  10  11
ENDBRANCH   6  10
TORSDOF 5
ENDMDL
MODEL 9
REMARK VINA RESULT:      -4.8      1.807      1.956
REMARK  Name = 
REMARK  7 active torsions:
REMARK  status: ('A' for Active; 'I' for Inactive)
REMARK    1  A    between atoms: C_1  and  S_2
REMARK    2  A    between atoms: S_2  and  C_3
REMARK    3  A    between atoms: C_5  and  C_6
REMARK    4  A    between atoms: C_8  and  S_9
REMARK    5  A    between atoms: S_9  and  C_10
REMARK    6  A    between atoms: C_10  and  C_11
REMARK    7  A    between atoms: C_11  and  O_12
REMARK                            x       y       z     vdW  Elec       q    Type
REMARK                         _______ _______ _______ _____ _____    ______ ____
ROOT
ATOM      1  C   UNL     1       6.562   5.042  18.138  0.00  0.00    +0.000 A 
ATOM      2  N   UNL     1       6.534   5.052  16.796  0.00  0.00    +0.000 NA
ATOM      3  C   UNL     1       5.566   4.335  16.194  0.00  0.00    +0.000 A 
ATOM      4  C   UNL     1       5.522   4.355  14.697  0.00  0.00    +0.000 C 
ATOM      5  C   UNL     1       4.638   3.613  16.912  0.00  0.00    +0.000 A 
ATOM      6  C   UNL     1       4.739   3.685  18.283  0.00  0.00    +0.000 A 
ATOM      7  N   UNL     1       5.689   4.389  18.917  0.00  0.00    +0.000 NA
ENDROOT
BRANCH   1   9
ATOM      8  C   UNL     1       7.797   7.470  17.916  0.00  0.00    +0.000 C 
ATOM      9  S   UNL     1       7.804   5.998  18.968  0.00  0.00    +0.000 S 
ENDBRANCH   1   9
BRANCH   6  10
ATOM     10  S   UNL     1       3.543   2.804  19.271  0.00  0.00    +0.000 S 
BRANCH  10  11
ATOM     11  C   UNL     1       1.977   3.352  18.489  0.00  0.00    +0.000 C 
BRANCH  11  12
ATOM     12  C   UNL     1       0.757   2.619  19.046  0.00  0.00    +0.000 C 
BRANCH  12  13
ATOM     13  O   UNL     1       0.418   3.087  20.350  0.00  0.00    +0.000 OA
ATOM     14  H   UNL     1       0.083   2.315  20.841  0.00  0.00    +0.000 HD
ENDBRANCH  12  13
ENDBRANCH  11  12
ENDBRANCH  10  11
ENDBRANCH   6  10
TORSDOF 5
ENDMDL
