MODEL 1
REMARK VINA RESULT:      -8.9      0.000      0.000
REMARK  Name = 
REMARK  10 active torsions:
REMARK  status: ('A' for Active; 'I' for Inactive)
REMARK    1  A    between atoms: C_1  and  C_2
REMARK    2  A    between atoms: C_5  and  S_6
REMARK    3  A    between atoms: S_6  and  C_9
REMARK    4  A    between atoms: C_9  and  C_10
REMARK    5  A    between atoms: C_9  and  C_26
REMARK    6  A    between atoms: C_10  and  N_11
REMARK    7  A    between atoms: C_12  and  C_14
REMARK    8  A    between atoms: N_16  and  C_17
REMARK    9  A    between atoms: C_17  and  C_18
REMARK   10  A    between atoms: C_18  and  C_19
REMARK                            x       y       z     vdW  Elec       q    Type
REMARK                         _______ _______ _______ _____ _____    ______ ____
ROOT
ATOM      1  C   UNL     1       3.429   6.509  18.453  0.00  0.00    +0.000 C 
ENDROOT
BRANCH   1   2
ATOM      2  N   UNL     1       2.337   7.408  18.782  0.00  0.00    +0.000 N 
ATOM      3  C   UNL     1       2.066   8.608  18.164  0.00  0.00    +0.000 C 
ATOM      4  O   UNL     1       2.615   9.064  17.176  0.00  0.00    +0.000 OA
ATOM      5  H   UNL     1       1.839   7.288  19.664  0.00  0.00    +0.000 HD
BRANCH   3   6
ATOM      6  C   UNL     1       0.923   9.377  18.877  0.00  0.00    +0.000 C 
ATOM      7  O   UNL     1       0.723   9.161  20.068  0.00  0.00    +0.000 OA
ATOM      8  N   UNL     1       0.194  10.244  18.094  0.00  0.00    +0.000 N 
ATOM      9  H   UNL     1       0.407  10.262  17.099  0.00  0.00    +0.000 HD
BRANCH   8  10
ATOM     10  C   UNL     1      -1.000  10.872  18.633  0.00  0.00    +0.000 C 
BRANCH  10  11
ATOM     11  C   UNL     1      -0.702  12.087  19.516  0.00  0.00    +0.000 C 
BRANCH  11  12
ATOM     12  C   UNL     1      -1.496  12.188  20.805  0.00  0.00    +0.000 A 
ATOM     13  C   UNL     1      -2.766  12.790  20.768  0.00  0.00    +0.000 A 
ATOM     14  C   UNL     1      -3.567  12.855  21.913  0.00  0.00    +0.000 A 
ATOM     15  C   UNL     1      -3.110  12.308  23.107  0.00  0.00    +0.000 A 
ATOM     16 CL   UNL     1      -4.101  12.372  24.512  0.00  0.00    +0.000 Cl
ATOM     17  C   UNL     1      -1.860  11.700  23.166  0.00  0.00    +0.000 A 
ATOM     18  C   UNL     1      -1.059  11.634  22.019  0.00  0.00    +0.000 A 
ENDBRANCH  11  12
ENDBRANCH  10  11
ENDBRANCH   8  10
ENDBRANCH   3   6
ENDBRANCH   1   2
BRANCH   1  19
ATOM     19  C   UNL     1       3.811   5.505  19.550  0.00  0.00    +0.000 C 
BRANCH  19  20
ATOM     20  C   UNL     1       2.709   4.459  19.705  0.00  0.00    +0.000 A 
ATOM     21  C   UNL     1       1.961   3.823  18.726  0.00  0.00    +0.000 A 
ATOM     22  C   UNL     1       1.029   2.888  19.262  0.00  0.00    +0.000 A 
ATOM     23  C   UNL     1       1.083   2.844  20.635  0.00  0.00    +0.000 A 
ATOM     24  S   UNL     1       2.249   3.922  21.269  0.00  0.00    +0.000 S 
ENDBRANCH  19  20
BRANCH  19  25
ATOM     25  S   UNL     1       5.324   4.593  19.198  0.00  0.00    +0.000 S 
ATOM     26  O   UNL     1       5.100   3.194  19.527  0.00  0.00    +0.000 OA
ATOM     27  O   UNL     1       6.452   5.307  19.772  0.00  0.00    +0.000 OA
BRANCH  25  32
ATOM     28  C   UNL     1       6.644   4.156  13.298  0.00  0.00    +0.000 C 
ATOM     29  C   UNL     1       6.235   4.416  14.720  0.00  0.00    +0.000 A 
ATOM     30  C   UNL     1       7.037   5.191  15.569  0.00  0.00    +0.000 A 
ATOM     31  C   UNL     1       6.732   5.309  16.929  0.00  0.00    +0.000 A 
ATOM     32  C   UNL     1       5.609   4.652  17.437  0.00  0.00    +0.000 A 
ATOM     33  C   UNL     1       4.776   3.912  16.591  0.00  0.00    +0.000 A 
ATOM     34  C   UNL     1       5.092   3.793  15.236  0.00  0.00    +0.000 A 
ENDBRANCH  25  32
ENDBRANCH  19  25
ENDBRANCH   1  19
TORSDOF 9
ENDMDL
MODEL 2
REMARK VINA RESULT:      -8.5      1.627      2.107
REMARK  Name = 
REMARK  10 active torsions:
REMARK  status: ('A' for Active; 'I' for Inactive)
REMARK    1  A    between atoms: C_1  and  C_2
REMARK    2  A    between atoms: C_5  and  S_6
REMARK    3  A    between atoms: S_6  and  C_9
REMARK    4  A    between atoms: C_9  and  C_10
REMARK    5  A    between atoms: C_9  and  C_26
REMARK    6  A    between atoms: C_10  and  N_11
REMARK    7  A    between atoms: C_12  and  C_14
REMARK    8  A    between atoms: N_16  and  C_17
REMARK    9  A    between atoms: C_17  and  C_18
REMARK   10  A    between atoms: C_18  and  C_19
REMARK                            x       y       z     vdW  Elec       q    Type
REMARK                         _______ _______ _______ _____ _____    ______ ____
ROOT
ATOM      1  C   UNL     1       3.342   6.500  18.584  0.00  0.00    +0.000 C 
ENDROOT
BRANCH   1   2
ATOM      2  N   UNL     1       2.379   7.511  18.983  0.00  0.00    +0.000 N 
ATOM      3  C   UNL     1       2.004   8.607  18.238  0.00  0.00    +0.000 C 
ATOM      4  O   UNL     1       2.322   8.854  17.088  0.00  0.00    +0.000 OA
ATOM      5  H   UNL     1       2.095   7.573  19.961  0.00  0.00    +0.000 HD
BRANCH   3   6
ATOM      6  C   UNL     1       1.077   9.557  19.041  0.00  0.00    +0.000 C 
ATOM      7  O   UNL     1       0.658   9.187  20.132  0.00  0.00    +0.000 OA
ATOM      8  N   UNL     1       0.775  10.759  18.440  0.00  0.00    +0.000 N 
ATOM      9  H   UNL     1       1.116  10.904  17.492  0.00  0.00    +0.000 HD
BRANCH   8  10
ATOM     10  C   UNL     1      -0.221  11.633  19.037  0.00  0.00    +0.000 C 
BRANCH  10  11
ATOM     11  C   UNL     1      -1.310  12.073  18.055  0.00  0.00    +0.000 C 
BRANCH  11  12
ATOM     12  C   UNL     1      -2.742  11.926  18.536  0.00  0.00    +0.000 A 
ATOM     13  C   UNL     1      -3.103  12.507  19.763  0.00  0.00    +0.000 A 
ATOM     14  C   UNL     1      -4.422  12.456  20.226  0.00  0.00    +0.000 A 
ATOM     15  C   UNL     1      -5.399  11.831  19.458  0.00  0.00    +0.000 A 
ATOM     16 CL   UNL     1      -7.025  11.782  20.017  0.00  0.00    +0.000 Cl
ATOM     17  C   UNL     1      -5.067  11.256  18.236  0.00  0.00    +0.000 A 
ATOM     18  C   UNL     1      -3.746  11.308  17.773  0.00  0.00    +0.000 A 
ENDBRANCH  11  12
ENDBRANCH  10  11
ENDBRANCH   8  10
ENDBRANCH   3   6
ENDBRANCH   1   2
BRANCH   1  19
ATOM     19  C   UNL     1       3.771   5.523  19.689  0.00  0.00    +0.000 C 
BRANCH  19  20
ATOM     20  C   UNL     1       2.667   4.495  19.930  0.00  0.00    +0.000 A 
ATOM     21  C   UNL     1       2.271   3.897  21.116  0.00  0.00    +0.000 A 
ATOM     22  C   UNL     1       1.183   2.993  20.943  0.00  0.00    +0.000 A 
ATOM     23  C   UNL     1       0.785   2.918  19.629  0.00  0.00    +0.000 A 
ATOM     24  S   UNL     1       1.718   3.931  18.615  0.00  0.00    +0.000 S 
ENDBRANCH  19  20
BRANCH  19  25
ATOM     25  S   UNL     1       5.254   4.584  19.286  0.00  0.00    +0.000 S 
ATOM     26  O   UNL     1       5.000   3.182  19.579  0.00  0.00    +0.000 OA
ATOM     27  O   UNL     1       6.408   5.253  19.859  0.00  0.00    +0.000 OA
BRANCH  25  32
ATOM     28  C   UNL     1       6.560   4.341  13.371  0.00  0.00    +0.000 C 
ATOM     29  C   UNL     1       6.135   4.541  14.798  0.00  0.00    +0.000 A 
ATOM     30  C   UNL     1       6.836   5.412  15.643  0.00  0.00    +0.000 A 
ATOM     31  C   UNL     1       6.532   5.485  17.006  0.00  0.00    +0.000 A 
ATOM     32  C   UNL     1       5.510   4.685  17.522  0.00  0.00    +0.000 A 
ATOM     33  C   UNL     1       4.773   3.844  16.680  0.00  0.00    +0.000 A 
ATOM     34  C   UNL     1       5.088   3.772  15.322  0.00  0.00    +0.000 A 
ENDBRANCH  25  32
ENDBRANCH  19  25
ENDBRANCH   1  19
TORSDOF 9
ENDMDL
MODEL 3
REMARK VINA RESULT:      -8.4      2.628      3.500
REMARK  Name = 
REMARK  10 active torsions:
REMARK  status: ('A' for Active; 'I' for Inactive)
REMARK    1  A    between atoms: C_1  and  C_2
REMARK    2  A    between atoms: C_5  and  S_6
REMARK    3  A    between atoms: S_6  and  C_9
REMARK    4  A    between atoms: C_9  and  C_10
REMARK    5  A    between atoms: C_9  and  C_26
REMARK    6  A    between atoms: C_10  and  N_11
REMARK    7  A    between atoms: C_12  and  C_14
REMARK    8  A    between atoms: N_16  and  C_17
REMARK    9  A    between atoms: C_17  and  C_18
REMARK   10  A    between atoms: C_18  and  C_19
REMARK                            x       y       z     vdW  Elec       q    Type
REMARK                         _______ _______ _______ _____ _____    ______ ____
ROOT
ATOM      1  C   UNL     1       3.461   6.322  18.399  0.00  0.00    +0.000 C 
ENDROOT
BRANCH   1   2
ATOM      2  N   UNL     1       2.542   7.364  18.819  0.00  0.00    +0.000 N 
ATOM      3  C   UNL     1       2.220   8.494  18.099  0.00  0.00    +0.000 C 
ATOM      4  O   UNL     1       2.555   8.755  16.957  0.00  0.00    +0.000 OA
ATOM      5  H   UNL     1       2.255   7.415  19.796  0.00  0.00    +0.000 HD
BRANCH   3   6
ATOM      6  C   UNL     1       1.331   9.464  18.920  0.00  0.00    +0.000 C 
ATOM      7  O   UNL     1       1.093   9.194  20.092  0.00  0.00    +0.000 OA
ATOM      8  N   UNL     1       0.853  10.566  18.246  0.00  0.00    +0.000 N 
ATOM      9  H   UNL     1       1.053  10.624  17.250  0.00  0.00    +0.000 HD
BRANCH   8  10
ATOM     10  C   UNL     1      -0.124  11.432  18.883  0.00  0.00    +0.000 C 
BRANCH  10  11
ATOM     11  C   UNL     1      -1.529  10.827  18.936  0.00  0.00    +0.000 C 
BRANCH  11  12
ATOM     12  C   UNL     1      -2.250  10.691  17.609  0.00  0.00    +0.000 A 
ATOM     13  C   UNL     1      -1.766   9.761  16.672  0.00  0.00    +0.000 A 
ATOM     14  C   UNL     1      -2.426   9.550  15.457  0.00  0.00    +0.000 A 
ATOM     15  C   UNL     1      -3.587  10.260  15.170  0.00  0.00    +0.000 A 
ATOM     16 CL   UNL     1      -4.411   9.988  13.684  0.00  0.00    +0.000 Cl
ATOM     17  C   UNL     1      -4.090  11.179  16.085  0.00  0.00    +0.000 A 
ATOM     18  C   UNL     1      -3.429  11.390  17.302  0.00  0.00    +0.000 A 
ENDBRANCH  11  12
ENDBRANCH  10  11
ENDBRANCH   8  10
ENDBRANCH   3   6
ENDBRANCH   1   2
BRANCH   1  19
ATOM     19  C   UNL     1       3.921   5.361  19.506  0.00  0.00    +0.000 C 
BRANCH  19  20
ATOM     20  C   UNL     1       2.895   4.244  19.683  0.00  0.00    +0.000 A 
ATOM     21  C   UNL     1       2.528   3.565  20.835  0.00  0.00    +0.000 A 
ATOM     22  C   UNL     1       1.514   2.592  20.603  0.00  0.00    +0.000 A 
ATOM     23  C   UNL     1       1.142   2.546  19.281  0.00  0.00    +0.000 A 
ATOM     24  S   UNL     1       2.010   3.670  18.328  0.00  0.00    +0.000 S 
ENDBRANCH  19  20
BRANCH  19  25
ATOM     25  S   UNL     1       5.491   4.552  19.153  0.00  0.00    +0.000 S 
ATOM     26  O   UNL     1       5.376   3.151  19.529  0.00  0.00    +0.000 OA
ATOM     27  O   UNL     1       6.572   5.363  19.682  0.00  0.00    +0.000 OA
BRANCH  25  32
ATOM     28  C   UNL     1       6.378   3.898  13.192  0.00  0.00    +0.000 C 
ATOM     29  C   UNL     1       6.150   4.234  14.639  0.00  0.00    +0.000 A 
ATOM     30  C   UNL     1       7.225   4.536  15.485  0.00  0.00    +0.000 A 
ATOM     31  C   UNL     1       7.027   4.702  16.860  0.00  0.00    +0.000 A 
ATOM     32  C   UNL     1       5.740   4.574  17.386  0.00  0.00    +0.000 A 
ATOM     33  C   UNL     1       4.652   4.316  16.544  0.00  0.00    +0.000 A 
ATOM     34  C   UNL     1       4.859   4.144  15.174  0.00  0.00    +0.000 A 
ENDBRANCH  25  32
ENDBRANCH  19  25
ENDBRANCH   1  19
TORSDOF 9
ENDMDL
MODEL 4
REMARK VINA RESULT:      -8.3      0.969      1.222
REMARK  Name = 
REMARK  10 active torsions:
REMARK  status: ('A' for Active; 'I' for Inactive)
REMARK    1  A    between atoms: C_1  and  C_2
REMARK    2  A    between atoms: C_5  and  S_6
REMARK    3  A    between atoms: S_6  and  C_9
REMARK    4  A    between atoms: C_9  and  C_10
REMARK    5  A    between atoms: C_9  and  C_26
REMARK    6  A    between atoms: C_10  and  N_11
REMARK    7  A    between atoms: C_12  and  C_14
REMARK    8  A    between atoms: N_16  and  C_17
REMARK    9  A    between atoms: C_17  and  C_18
REMARK   10  A    between atoms: C_18  and  C_19
REMARK                            x       y       z     vdW  Elec       q    Type
REMARK                         _______ _______ _______ _____ _____    ______ ____
ROOT
ATOM      1  C   UNL     1       3.338   6.431  18.532  0.00  0.00    +0.000 C 
ENDROOT
BRANCH   1   2
ATOM      2  N   UNL     1       2.470   7.524  18.930  0.00  0.00    +0.000 N 
ATOM      3  C   UNL     1       2.160   8.628  18.166  0.00  0.00    +0.000 C 
ATOM      4  O   UNL     1       2.464   8.822  17.002  0.00  0.00    +0.000 OA
ATOM      5  H   UNL     1       2.219   7.632  19.913  0.00  0.00    +0.000 HD
BRANCH   3   6
ATOM      6  C   UNL     1       1.333   9.668  18.968  0.00  0.00    +0.000 C 
ATOM      7  O   UNL     1       1.013   9.401  20.121  0.00  0.00    +0.000 OA
ATOM      8  N   UNL     1       1.001  10.824  18.297  0.00  0.00    +0.000 N 
ATOM      9  H   UNL     1       1.254  10.880  17.313  0.00  0.00    +0.000 HD
BRANCH   8  10
ATOM     10  C   UNL     1       0.085  11.772  18.907  0.00  0.00    +0.000 C 
BRANCH  10  11
ATOM     11  C   UNL     1      -1.389  11.403  18.718  0.00  0.00    +0.000 C 
BRANCH  11  12
ATOM     12  C   UNL     1      -2.358  11.976  19.734  0.00  0.00    +0.000 A 
ATOM     13  C   UNL     1      -3.687  12.206  19.341  0.00  0.00    +0.000 A 
ATOM     14  C   UNL     1      -4.639  12.676  20.252  0.00  0.00    +0.000 A 
ATOM     15  C   UNL     1      -4.273  12.910  21.573  0.00  0.00    +0.000 A 
ATOM     16 CL   UNL     1      -5.445  13.470  22.701  0.00  0.00    +0.000 Cl
ATOM     17  C   UNL     1      -2.964  12.681  21.988  0.00  0.00    +0.000 A 
ATOM     18  C   UNL     1      -2.012  12.210  21.075  0.00  0.00    +0.000 A 
ENDBRANCH  11  12
ENDBRANCH  10  11
ENDBRANCH   8  10
ENDBRANCH   3   6
ENDBRANCH   1   2
BRANCH   1  19
ATOM     19  C   UNL     1       3.783   5.495  19.665  0.00  0.00    +0.000 C 
BRANCH  19  20
ATOM     20  C   UNL     1       2.693   4.461  19.943  0.00  0.00    +0.000 A 
ATOM     21  C   UNL     1       2.312   3.892  21.148  0.00  0.00    +0.000 A 
ATOM     22  C   UNL     1       1.234   2.971  21.008  0.00  0.00    +0.000 A 
ATOM     23  C   UNL     1       0.829   2.854  19.699  0.00  0.00    +0.000 A 
ATOM     24  S   UNL     1       1.743   3.849  18.651  0.00  0.00    +0.000 S 
ENDBRANCH  19  20
BRANCH  19  25
ATOM     25  S   UNL     1       5.277   4.562  19.287  0.00  0.00    +0.000 S 
ATOM     26  O   UNL     1       5.029   3.161  19.591  0.00  0.00    +0.000 OA
ATOM     27  O   UNL     1       6.421   5.244  19.865  0.00  0.00    +0.000 OA
BRANCH  25  32
ATOM     28  C   UNL     1       6.602   4.241  13.380  0.00  0.00    +0.000 C 
ATOM     29  C   UNL     1       6.181   4.466  14.805  0.00  0.00    +0.000 A 
ATOM     30  C   UNL     1       6.933   5.288  15.655  0.00  0.00    +0.000 A 
ATOM     31  C   UNL     1       6.626   5.379  17.016  0.00  0.00    +0.000 A 
ATOM     32  C   UNL     1       5.550   4.648  17.525  0.00  0.00    +0.000 A 
ATOM     33  C   UNL     1       4.765   3.858  16.677  0.00  0.00    +0.000 A 
ATOM     34  C   UNL     1       5.083   3.767  15.321  0.00  0.00    +0.000 A 
ENDBRANCH  25  32
ENDBRANCH  19  25
ENDBRANCH   1  19
TORSDOF 9
ENDMDL
MODEL 5
REMARK VINA RESULT:      -8.1      1.125      1.351
REMARK  Name = 
REMARK  10 active torsions:
REMARK  status: ('A' for Active; 'I' for Inactive)
REMARK    1  A    between atoms: C_1  and  C_2
REMARK    2  A    between atoms: C_5  and  S_6
REMARK    3  A    between atoms: S_6  and  C_9
REMARK    4  A    between atoms: C_9  and  C_10
REMARK    5  A    between atoms: C_9  and  C_26
REMARK    6  A    between atoms: C_10  and  N_11
REMARK    7  A    between atoms: C_12  and  C_14
REMARK    8  A    between atoms: N_16  and  C_17
REMARK    9  A    between atoms: C_17  and  C_18
REMARK   10  A    between atoms: C_18  and  C_19
REMARK                            x       y       z     vdW  Elec       q    Type
REMARK                         _______ _______ _______ _____ _____    ______ ____
ROOT
ATOM      1  C   UNL     1       3.368   6.712  18.209  0.00  0.00    +0.000 C 
ENDROOT
BRANCH   1   2
ATOM      2  N   UNL     1       2.227   7.579  18.443  0.00  0.00    +0.000 N 
ATOM      3  C   UNL     1       2.104   8.884  18.018  0.00  0.00    +0.000 C 
ATOM      4  O   UNL     1       2.868   9.491  17.287  0.00  0.00    +0.000 OA
ATOM      5  H   UNL     1       1.537   7.319  19.147  0.00  0.00    +0.000 HD
BRANCH   3   6
ATOM      6  C   UNL     1       0.824   9.554  18.582  0.00  0.00    +0.000 C 
ATOM      7  O   UNL     1      -0.177   9.597  17.876  0.00  0.00    +0.000 OA
ATOM      8  N   UNL     1       0.924  10.078  19.852  0.00  0.00    +0.000 N 
ATOM      9  H   UNL     1       1.841  10.055  20.293  0.00  0.00    +0.000 HD
BRANCH   8  10
ATOM     10  C   UNL     1      -0.165  10.874  20.391  0.00  0.00    +0.000 C 
BRANCH  10  11
ATOM     11  C   UNL     1      -0.199  10.901  21.921  0.00  0.00    +0.000 C 
BRANCH  11  12
ATOM     12  C   UNL     1      -1.039  11.995  22.553  0.00  0.00    +0.000 A 
ATOM     13  C   UNL     1      -2.274  11.650  23.127  0.00  0.00    +0.000 A 
ATOM     14  C   UNL     1      -3.061  12.606  23.777  0.00  0.00    +0.000 A 
ATOM     15  C   UNL     1      -2.615  13.920  23.868  0.00  0.00    +0.000 A 
ATOM     16 CL   UNL     1      -3.573  15.095  24.682  0.00  0.00    +0.000 Cl
ATOM     17  C   UNL     1      -1.392  14.284  23.314  0.00  0.00    +0.000 A 
ATOM     18  C   UNL     1      -0.604  13.326  22.664  0.00  0.00    +0.000 A 
ENDBRANCH  11  12
ENDBRANCH  10  11
ENDBRANCH   8  10
ENDBRANCH   3   6
ENDBRANCH   1   2
BRANCH   1  19
ATOM     19  C   UNL     1       3.711   5.748  19.354  0.00  0.00    +0.000 C 
BRANCH  19  20
ATOM     20  C   UNL     1       2.608   4.702  19.500  0.00  0.00    +0.000 A 
ATOM     21  C   UNL     1       1.925   4.004  18.515  0.00  0.00    +0.000 A 
ATOM     22  C   UNL     1       0.969   3.092  19.046  0.00  0.00    +0.000 A 
ATOM     23  C   UNL     1       0.939   3.124  20.420  0.00  0.00    +0.000 A 
ATOM     24  S   UNL     1       2.058   4.248  21.062  0.00  0.00    +0.000 S 
ENDBRANCH  19  20
BRANCH  19  25
ATOM     25  S   UNL     1       5.241   4.834  19.094  0.00  0.00    +0.000 S 
ATOM     26  O   UNL     1       5.021   3.453  19.493  0.00  0.00    +0.000 OA
ATOM     27  O   UNL     1       6.346   5.590  19.657  0.00  0.00    +0.000 OA
BRANCH  25  32
ATOM     28  C   UNL     1       6.803   4.139  13.278  0.00  0.00    +0.000 C 
ATOM     29  C   UNL     1       6.315   4.447  14.666  0.00  0.00    +0.000 A 
ATOM     30  C   UNL     1       6.976   5.387  15.468  0.00  0.00    +0.000 A 
ATOM     31  C   UNL     1       6.612   5.564  16.808  0.00  0.00    +0.000 A 
ATOM     32  C   UNL     1       5.573   4.799  17.341  0.00  0.00    +0.000 A 
ATOM     33  C   UNL     1       4.877   3.889  16.537  0.00  0.00    +0.000 A 
ATOM     34  C   UNL     1       5.251   3.713  15.203  0.00  0.00    +0.000 A 
ENDBRANCH  25  32
ENDBRANCH  19  25
ENDBRANCH   1  19
TORSDOF 9
ENDMDL
MODEL 6
REMARK VINA RESULT:      -8.1      1.856      2.442
REMARK  Name = 
REMARK  10 active torsions:
REMARK  status: ('A' for Active; 'I' for Inactive)
REMARK    1  A    between atoms: C_1  and  C_2
REMARK    2  A    between atoms: C_5  and  S_6
REMARK    3  A    between atoms: S_6  and  C_9
REMARK    4  A    between atoms: C_9  and  C_10
REMARK    5  A    between atoms: C_9  and  C_26
REMARK    6  A    between atoms: C_10  and  N_11
REMARK    7  A    between atoms: C_12  and  C_14
REMARK    8  A    between atoms: N_16  and  C_17
REMARK    9  A    between atoms: C_17  and  C_18
REMARK   10  A    between atoms: C_18  and  C_19
REMARK                            x       y       z     vdW  Elec       q    Type
REMARK                         _______ _______ _______ _____ _____    ______ ____
ROOT
ATOM      1  C   UNL     1       3.536   6.288  18.401  0.00  0.00    +0.000 C 
ENDROOT
BRANCH   1   2
ATOM      2  N   UNL     1       2.480   7.248  18.667  0.00  0.00    +0.000 N 
ATOM      3  C   UNL     1       2.283   8.436  18.000  0.00  0.00    +0.000 C 
ATOM      4  O   UNL     1       2.880   8.831  17.014  0.00  0.00    +0.000 OA
ATOM      5  H   UNL     1       1.952   7.183  19.538  0.00  0.00    +0.000 HD
BRANCH   3   6
ATOM      6  C   UNL     1       1.158   9.282  18.653  0.00  0.00    +0.000 C 
ATOM      7  O   UNL     1       0.995   9.207  19.866  0.00  0.00    +0.000 OA
ATOM      8  N   UNL     1       0.403  10.051  17.796  0.00  0.00    +0.000 N 
ATOM      9  H   UNL     1       0.586   9.953  16.800  0.00  0.00    +0.000 HD
BRANCH   8  10
ATOM     10  C   UNL     1      -0.778  10.737  18.294  0.00  0.00    +0.000 C 
BRANCH  10  11
ATOM     11  C   UNL     1      -2.010  10.549  17.405  0.00  0.00    +0.000 C 
BRANCH  11  12
ATOM     12  C   UNL     1      -3.288  11.210  17.885  0.00  0.00    +0.000 A 
ATOM     13  C   UNL     1      -4.454  11.060  17.115  0.00  0.00    +0.000 A 
ATOM     14  C   UNL     1      -5.674  11.596  17.539  0.00  0.00    +0.000 A 
ATOM     15  C   UNL     1      -5.744  12.280  18.748  0.00  0.00    +0.000 A 
ATOM     16 CL   UNL     1      -7.247  12.925  19.282  0.00  0.00    +0.000 Cl
ATOM     17  C   UNL     1      -4.605  12.434  19.532  0.00  0.00    +0.000 A 
ATOM     18  C   UNL     1      -3.383  11.896  19.106  0.00  0.00    +0.000 A 
ENDBRANCH  11  12
ENDBRANCH  10  11
ENDBRANCH   8  10
ENDBRANCH   3   6
ENDBRANCH   1   2
BRANCH   1  19
ATOM     19  C   UNL     1       3.773   5.244  19.503  0.00  0.00    +0.000 C 
BRANCH  19  20
ATOM     20  C   UNL     1       2.670   4.188  19.463  0.00  0.00    +0.000 A 
ATOM     21  C   UNL     1       2.077   3.581  18.366  0.00  0.00    +0.000 A 
ATOM     22  C   UNL     1       1.087   2.624  18.733  0.00  0.00    +0.000 A 
ATOM     23  C   UNL     1       0.944   2.534  20.097  0.00  0.00    +0.000 A 
ATOM     24  S   UNL     1       1.996   3.596  20.927  0.00  0.00    +0.000 S 
ENDBRANCH  19  20
BRANCH  19  25
ATOM     25  S   UNL     1       5.329   4.354  19.330  0.00  0.00    +0.000 S 
ATOM     26  O   UNL     1       5.118   2.979  19.756  0.00  0.00    +0.000 OA
ATOM     27  O   UNL     1       6.396   5.145  19.918  0.00  0.00    +0.000 OA
BRANCH  25  32
ATOM     28  C   UNL     1       6.543   4.815  13.409  0.00  0.00    +0.000 C 
ATOM     29  C   UNL     1       6.287   4.530  14.862  0.00  0.00    +0.000 A 
ATOM     30  C   UNL     1       5.040   4.058  15.294  0.00  0.00    +0.000 A 
ATOM     31  C   UNL     1       4.757   3.936  16.658  0.00  0.00    +0.000 A 
ATOM     32  C   UNL     1       5.735   4.280  17.594  0.00  0.00    +0.000 A 
ATOM     33  C   UNL     1       6.999   4.709  17.173  0.00  0.00    +0.000 A 
ATOM     34  C   UNL     1       7.271   4.837  15.810  0.00  0.00    +0.000 A 
ENDBRANCH  25  32
ENDBRANCH  19  25
ENDBRANCH   1  19
TORSDOF 9
ENDMDL
MODEL 7
REMARK VINA RESULT:      -8.0      3.106      3.873
REMARK  Name = 
REMARK  10 active torsions:
REMARK  status: ('A' for Active; 'I' for Inactive)
REMARK    1  A    between atoms: C_1  and  C_2
REMARK    2  A    between atoms: C_5  and  S_6
REMARK    3  A    between atoms: S_6  and  C_9
REMARK    4  A    between atoms: C_9  and  C_10
REMARK    5  A    between atoms: C_9  and  C_26
REMARK    6  A    between atoms: C_10  and  N_11
REMARK    7  A    between atoms: C_12  and  C_14
REMARK    8  A    between atoms: N_16  and  C_17
REMARK    9  A    between atoms: C_17  and  C_18
REMARK   10  A    between atoms: C_18  and  C_19
REMARK                            x       y       z     vdW  Elec       q    Type
REMARK                         _______ _______ _______ _____ _____    ______ ____
ROOT
ATOM      1  C   UNL     1       3.337   6.470  18.572  0.00  0.00    +0.000 C 
ENDROOT
BRANCH   1   2
ATOM      2  N   UNL     1       2.467   7.551  18.997  0.00  0.00    +0.000 N 
ATOM      3  C   UNL     1       2.113   8.647  18.242  0.00  0.00    +0.000 C 
ATOM      4  O   UNL     1       2.372   8.841  17.067  0.00  0.00    +0.000 OA
ATOM      5  H   UNL     1       2.251   7.659  19.988  0.00  0.00    +0.000 HD
BRANCH   3   6
ATOM      6  C   UNL     1       1.300   9.677  19.069  0.00  0.00    +0.000 C 
ATOM      7  O   UNL     1       0.570   9.267  19.964  0.00  0.00    +0.000 OA
ATOM      8  N   UNL     1       1.452  10.998  18.710  0.00  0.00    +0.000 N 
ATOM      9  H   UNL     1       2.021  11.194  17.890  0.00  0.00    +0.000 HD
BRANCH   8  10
ATOM     10  C   UNL     1       0.601  12.011  19.311  0.00  0.00    +0.000 C 
BRANCH  10  11
ATOM     11  C   UNL     1       0.538  13.310  18.503  0.00  0.00    +0.000 C 
BRANCH  11  12
ATOM     12  C   UNL     1       1.724  14.245  18.646  0.00  0.00    +0.000 A 
ATOM     13  C   UNL     1       2.990  13.794  18.237  0.00  0.00    +0.000 A 
ATOM     14  C   UNL     1       4.107  14.634  18.289  0.00  0.00    +0.000 A 
ATOM     15  C   UNL     1       3.967  15.941  18.742  0.00  0.00    +0.000 A 
ATOM     16 CL   UNL     1       5.336  16.982  18.790  0.00  0.00    +0.000 Cl
ATOM     17  C   UNL     1       2.722  16.413  19.145  0.00  0.00    +0.000 A 
ATOM     18  C   UNL     1       1.603  15.571  19.092  0.00  0.00    +0.000 A 
ENDBRANCH  11  12
ENDBRANCH  10  11
ENDBRANCH   8  10
ENDBRANCH   3   6
ENDBRANCH   1   2
BRANCH   1  19
ATOM     19  C   UNL     1       3.780   5.503  19.680  0.00  0.00    +0.000 C 
BRANCH  19  20
ATOM     20  C   UNL     1       2.692   4.459  19.923  0.00  0.00    +0.000 A 
ATOM     21  C   UNL     1       2.296   3.866  21.112  0.00  0.00    +0.000 A 
ATOM     22  C   UNL     1       1.226   2.942  20.939  0.00  0.00    +0.000 A 
ATOM     23  C   UNL     1       0.840   2.847  19.623  0.00  0.00    +0.000 A 
ATOM     24  S   UNL     1       1.764   3.865  18.606  0.00  0.00    +0.000 S 
ENDBRANCH  19  20
BRANCH  19  25
ATOM     25  S   UNL     1       5.278   4.586  19.282  0.00  0.00    +0.000 S 
ATOM     26  O   UNL     1       5.040   3.178  19.563  0.00  0.00    +0.000 OA
ATOM     27  O   UNL     1       6.420   5.265  19.868  0.00  0.00    +0.000 OA
BRANCH  25  32
ATOM     28  C   UNL     1       6.644   4.412  13.378  0.00  0.00    +0.000 C 
ATOM     29  C   UNL     1       6.199   4.591  14.802  0.00  0.00    +0.000 A 
ATOM     30  C   UNL     1       6.862   5.483  15.656  0.00  0.00    +0.000 A 
ATOM     31  C   UNL     1       6.543   5.540  17.017  0.00  0.00    +0.000 A 
ATOM     32  C   UNL     1       5.546   4.702  17.521  0.00  0.00    +0.000 A 
ATOM     33  C   UNL     1       4.847   3.839  16.670  0.00  0.00    +0.000 A 
ATOM     34  C   UNL     1       5.177   3.783  15.314  0.00  0.00    +0.000 A 
ENDBRANCH  25  32
ENDBRANCH  19  25
ENDBRANCH   1  19
TORSDOF 9
ENDMDL
MODEL 8
REMARK VINA RESULT:      -8.0      4.950      8.171
REMARK  Name = 
REMARK  10 active torsions:
REMARK  status: ('A' for Active; 'I' for Inactive)
REMARK    1  A    between atoms: C_1  and  C_2
REMARK    2  A    between atoms: C_5  and  S_6
REMARK    3  A    between atoms: S_6  and  C_9
REMARK    4  A    between atoms: C_9  and  C_10
REMARK    5  A    between atoms: C_9  and  C_26
REMARK    6  A    between atoms: C_10  and  N_11
REMARK    7  A    between atoms: C_12  and  C_14
REMARK    8  A    between atoms: N_16  and  C_17
REMARK    9  A    between atoms: C_17  and  C_18
REMARK   10  A    between atoms: C_18  and  C_19
REMARK                            x       y       z     vdW  Elec       q    Type
REMARK                         _______ _______ _______ _____ _____    ______ ____
ROOT
ATOM      1  C   UNL     1       4.410   4.252  17.239  0.00  0.00    +0.000 C 
ENDROOT
BRANCH   1   2
ATOM      2  N   UNL     1       5.380   5.289  16.937  0.00  0.00    +0.000 N 
ATOM      3  C   UNL     1       6.677   5.339  17.397  0.00  0.00    +0.000 C 
ATOM      4  O   UNL     1       7.263   4.480  18.033  0.00  0.00    +0.000 OA
ATOM      5  H   UNL     1       5.061   6.171  16.536  0.00  0.00    +0.000 HD
BRANCH   3   6
ATOM      6  C   UNL     1       7.375   6.667  17.005  0.00  0.00    +0.000 C 
ATOM      7  O   UNL     1       7.969   6.725  15.934  0.00  0.00    +0.000 OA
ATOM      8  N   UNL     1       7.287   7.692  17.921  0.00  0.00    +0.000 N 
ATOM      9  H   UNL     1       6.840   7.482  18.811  0.00  0.00    +0.000 HD
BRANCH   8  10
ATOM     10  C   UNL     1       8.054   8.909  17.717  0.00  0.00    +0.000 C 
BRANCH  10  11
ATOM     11  C   UNL     1       9.006   9.228  18.873  0.00  0.00    +0.000 C 
BRANCH  11  12
ATOM     12  C   UNL     1       9.391  10.686  19.039  0.00  0.00    +0.000 A 
ATOM     13  C   UNL     1       9.852  11.122  20.293  0.00  0.00    +0.000 A 
ATOM     14  C   UNL     1      10.279  12.440  20.487  0.00  0.00    +0.000 A 
ATOM     15  C   UNL     1      10.260  13.335  19.423  0.00  0.00    +0.000 A 
ATOM     16 CL   UNL     1      10.801  14.952  19.654  0.00  0.00    +0.000 Cl
ATOM     17  C   UNL     1       9.816  12.924  18.170  0.00  0.00    +0.000 A 
ATOM     18  C   UNL     1       9.389  11.604  17.976  0.00  0.00    +0.000 A 
ENDBRANCH  11  12
ENDBRANCH  10  11
ENDBRANCH   8  10
ENDBRANCH   3   6
ENDBRANCH   1   2
BRANCH   1  19
ATOM     19  C   UNL     1       3.097   4.739  17.870  0.00  0.00    +0.000 C 
BRANCH  19  20
ATOM     20  C   UNL     1       2.250   3.541  18.296  0.00  0.00    +0.000 A 
ATOM     21  C   UNL     1       0.882   3.467  18.510  0.00  0.00    +0.000 A 
ATOM     22  C   UNL     1       0.452   2.162  18.885  0.00  0.00    +0.000 A 
ATOM     23  C   UNL     1       1.502   1.278  18.957  0.00  0.00    +0.000 A 
ATOM     24  S   UNL     1       2.995   2.020  18.575  0.00  0.00    +0.000 S 
ENDBRANCH  19  20
BRANCH  19  25
ATOM     25  S   UNL     1       3.335   5.738  19.350  0.00  0.00    +0.000 S 
ATOM     26  O   UNL     1       4.723   6.171  19.390  0.00  0.00    +0.000 OA
ATOM     27  O   UNL     1       2.751   5.049  20.487  0.00  0.00    +0.000 OA
BRANCH  25  32
ATOM     28  C   UNL     1       0.632  11.145  18.895  0.00  0.00    +0.000 C 
ATOM     29  C   UNL     1       1.143   9.735  18.974  0.00  0.00    +0.000 A 
ATOM     30  C   UNL     1       1.095   9.019  20.178  0.00  0.00    +0.000 A 
ATOM     31  C   UNL     1       1.704   7.764  20.287  0.00  0.00    +0.000 A 
ATOM     32  C   UNL     1       2.357   7.221  19.178  0.00  0.00    +0.000 A 
ATOM     33  C   UNL     1       2.372   7.907  17.958  0.00  0.00    +0.000 A 
ATOM     34  C   UNL     1       1.769   9.163  17.860  0.00  0.00    +0.000 A 
ENDBRANCH  25  32
ENDBRANCH  19  25
ENDBRANCH   1  19
TORSDOF 9
ENDMDL
MODEL 9
REMARK VINA RESULT:      -7.9      0.715      1.567
REMARK  Name = 
REMARK  10 active torsions:
REMARK  status: ('A' for Active; 'I' for Inactive)
REMARK    1  A    between atoms: C_1  and  C_2
REMARK    2  A    between atoms: C_5  and  S_6
REMARK    3  A    between atoms: S_6  and  C_9
REMARK    4  A    between atoms: C_9  and  C_10
REMARK    5  A    between atoms: C_9  and  C_26
REMARK    6  A    between atoms: C_10  and  N_11
REMARK    7  A    between atoms: C_12  and  C_14
REMARK    8  A    between atoms: N_16  and  C_17
REMARK    9  A    between atoms: C_17  and  C_18
REMARK   10  A    between atoms: C_18  and  C_19
REMARK                            x       y       z     vdW  Elec       q    Type
REMARK                         _______ _______ _______ _____ _____    ______ ____
ROOT
ATOM      1  C   UNL     1       3.440   6.200  17.712  0.00  0.00    +0.000 C 
ENDROOT
BRANCH   1   2
ATOM      2  N   UNL     1       2.989   7.577  17.807  0.00  0.00    +0.000 N 
ATOM      3  C   UNL     1       2.199   8.101  18.806  0.00  0.00    +0.000 C 
ATOM      4  O   UNL     1       1.841   7.539  19.826  0.00  0.00    +0.000 OA
ATOM      5  H   UNL     1       3.059   8.184  16.990  0.00  0.00    +0.000 HD
BRANCH   3   6
ATOM      6  C   UNL     1       1.783   9.564  18.502  0.00  0.00    +0.000 C 
ATOM      7  O   UNL     1       2.320  10.146  17.566  0.00  0.00    +0.000 OA
ATOM      8  N   UNL     1       0.836  10.111  19.340  0.00  0.00    +0.000 N 
ATOM      9  H   UNL     1       0.538   9.549  20.134  0.00  0.00    +0.000 HD
BRANCH   8  10
ATOM     10  C   UNL     1       0.516  11.525  19.239  0.00  0.00    +0.000 C 
BRANCH  10  11
ATOM     11  C   UNL     1      -0.984  11.799  19.096  0.00  0.00    +0.000 C 
BRANCH  11  12
ATOM     12  C   UNL     1      -1.753  12.000  20.388  0.00  0.00    +0.000 A 
ATOM     13  C   UNL     1      -1.172  11.567  21.592  0.00  0.00    +0.000 A 
ATOM     14  C   UNL     1      -1.809  11.780  22.819  0.00  0.00    +0.000 A 
ATOM     15  C   UNL     1      -3.032  12.441  22.856  0.00  0.00    +0.000 A 
ATOM     16 CL   UNL     1      -3.809  12.721  24.365  0.00  0.00    +0.000 Cl
ATOM     17  C   UNL     1      -3.623  12.886  21.678  0.00  0.00    +0.000 A 
ATOM     18  C   UNL     1      -2.984  12.672  20.449  0.00  0.00    +0.000 A 
ENDBRANCH  11  12
ENDBRANCH  10  11
ENDBRANCH   8  10
ENDBRANCH   3   6
ENDBRANCH   1   2
BRANCH   1  19
ATOM     19  C   UNL     1       3.729   5.506  19.051  0.00  0.00    +0.000 C 
BRANCH  19  20
ATOM     20  C   UNL     1       2.662   4.449  19.328  0.00  0.00    +0.000 A 
ATOM     21  C   UNL     1       1.972   3.644  18.434  0.00  0.00    +0.000 A 
ATOM     22  C   UNL     1       1.058   2.761  19.078  0.00  0.00    +0.000 A 
ATOM     23  C   UNL     1       1.068   2.921  20.443  0.00  0.00    +0.000 A 
ATOM     24  S   UNL     1       2.171   4.129  20.942  0.00  0.00    +0.000 S 
ENDBRANCH  19  20
BRANCH  19  25
ATOM     25  S   UNL     1       5.311   4.647  19.092  0.00  0.00    +0.000 S 
ATOM     26  O   UNL     1       5.086   3.300  19.593  0.00  0.00    +0.000 OA
ATOM     27  O   UNL     1       6.300   5.505  19.721  0.00  0.00    +0.000 OA
BRANCH  25  32
ATOM     28  C   UNL     1       6.923   4.658  13.248  0.00  0.00    +0.000 C 
ATOM     29  C   UNL     1       6.612   4.503  14.710  0.00  0.00    +0.000 A 
ATOM     30  C   UNL     1       5.490   3.777  15.133  0.00  0.00    +0.000 A 
ATOM     31  C   UNL     1       5.119   3.758  16.482  0.00  0.00    +0.000 A 
ATOM     32  C   UNL     1       5.885   4.463  17.412  0.00  0.00    +0.000 A 
ATOM     33  C   UNL     1       7.033   5.155  17.008  0.00  0.00    +0.000 A 
ATOM     34  C   UNL     1       7.392   5.175  15.658  0.00  0.00    +0.000 A 
ENDBRANCH  25  32
ENDBRANCH  19  25
ENDBRANCH   1  19
TORSDOF 9
ENDMDL
