MODEL 1
REMARK VINA RESULT:      -7.8      0.000      0.000
REMARK  Name = 
REMARK  5 active torsions:
REMARK  status: ('A' for Active; 'I' for Inactive)
REMARK    1  A    between atoms: C_1  and  N_2
REMARK    2  A    between atoms: N_2  and  C_3
REMARK    3  A    between atoms: N_13  and  C_14
REMARK    4  A    between atoms: C_14  and  C_15
REMARK    5  A    between atoms: C_18  and  C_19
REMARK                            x       y       z     vdW  Elec       q    Type
REMARK                         _______ _______ _______ _____ _____    ______ ____
ROOT
ATOM      1  C   UNL     1       7.438   6.468  17.489  0.00  0.00    +0.000 C 
ATOM      2  N   UNL     1       6.082   5.936  17.383  0.00  0.00    +0.000 N 
ATOM      3  C   UNL     1       5.071   6.971  17.200  0.00  0.00    +0.000 C 
ATOM      4  C   UNL     1       5.905   4.754  18.102  0.00  0.00    +0.000 C 
ATOM      5  O   UNL     1       6.873   4.265  18.702  0.00  0.00    +0.000 OA
ATOM      6  N   UNL     1       4.685   4.108  18.160  0.00  0.00    +0.000 N 
ATOM      7  C   UNL     1       4.530   3.040  19.154  0.00  0.00    +0.000 C 
ATOM      8  C   UNL     1       3.283   3.197  20.054  0.00  0.00    +0.000 C 
ATOM      9  C   UNL     1       1.988   2.712  19.378  0.00  0.00    +0.000 C 
ATOM     10  C   UNL     1       1.322   3.812  18.548  0.00  0.00    +0.000 C 
ATOM     11  C   UNL     1       2.310   4.938  18.200  0.00  0.00    +0.000 C 
ATOM     12  C   UNL     1       3.488   4.338  17.357  0.00  0.00    +0.000 C 
ATOM     13  N   UNL     1       2.795   5.606  19.438  0.00  0.00    +0.000 NA
ATOM     14  C   UNL     1       3.095   4.648  20.526  0.00  0.00    +0.000 C 
ENDROOT
BRANCH  13  15
ATOM     15  C   UNL     1       1.945   6.699  19.941  0.00  0.00    +0.000 C 
BRANCH  15  16
ATOM     16  C   UNL     1       1.937   7.925  19.090  0.00  0.00    +0.000 A 
ATOM     17  N   UNL     1       2.296   8.081  17.827  0.00  0.00    +0.000 NA
ATOM     18  N   UNL     1       1.998   9.386  17.505  0.00  0.00    +0.000 NA
ATOM     19  C   UNL     1       1.465   9.946  18.576  0.00  0.00    +0.000 A 
ATOM     20  O   UNL     1       1.410   9.069  19.635  0.00  0.00    +0.000 OA
BRANCH  19  21
ATOM     21  C   UNL     1       0.977  11.291  18.624  0.00  0.00    +0.000 A 
ATOM     22  C   UNL     1       1.700  12.471  18.717  0.00  0.00    +0.000 A 
ATOM     23  C   UNL     1       0.770  13.538  18.695  0.00  0.00    +0.000 A 
ATOM     24  C   UNL     1      -0.471  12.956  18.601  0.00  0.00    +0.000 A 
ATOM     25  O   UNL     1      -0.359  11.604  18.554  0.00  0.00    +0.000 OA
ENDBRANCH  19  21
ENDBRANCH  15  16
ENDBRANCH  13  15
TORSDOF 3
ENDMDL
MODEL 2
REMARK VINA RESULT:      -7.5      1.880      3.667
REMARK  Name = 
REMARK  5 active torsions:
REMARK  status: ('A' for Active; 'I' for Inactive)
REMARK    1  A    between atoms: C_1  and  N_2
REMARK    2  A    between atoms: N_2  and  C_3
REMARK    3  A    between atoms: N_13  and  C_14
REMARK    4  A    between atoms: C_14  and  C_15
REMARK    5  A    between atoms: C_18  and  C_19
REMARK                            x       y       z     vdW  Elec       q    Type
REMARK                         _______ _______ _______ _____ _____    ______ ____
ROOT
ATOM      1  C   UNL     1       0.655   2.857  19.275  0.00  0.00    +0.000 C 
ATOM      2  N   UNL     1       1.971   3.482  19.373  0.00  0.00    +0.000 N 
ATOM      3  C   UNL     1       1.916   4.867  19.825  0.00  0.00    +0.000 C 
ATOM      4  C   UNL     1       2.886   2.969  18.454  0.00  0.00    +0.000 C 
ATOM      5  O   UNL     1       2.532   2.050  17.702  0.00  0.00    +0.000 OA
ATOM      6  N   UNL     1       4.178   3.451  18.360  0.00  0.00    +0.000 N 
ATOM      7  C   UNL     1       4.969   3.048  17.191  0.00  0.00    +0.000 C 
ATOM      8  C   UNL     1       5.611   4.230  16.431  0.00  0.00    +0.000 C 
ATOM      9  C   UNL     1       6.906   4.736  17.092  0.00  0.00    +0.000 C 
ATOM     10  C   UNL     1       6.632   5.793  18.165  0.00  0.00    +0.000 C 
ATOM     11  C   UNL     1       5.174   5.743  18.652  0.00  0.00    +0.000 C 
ATOM     12  C   UNL     1       4.895   4.331  19.276  0.00  0.00    +0.000 C 
ATOM     13  N   UNL     1       4.241   6.052  17.535  0.00  0.00    +0.000 NA
ATOM     14  C   UNL     1       4.634   5.405  16.263  0.00  0.00    +0.000 C 
ENDROOT
BRANCH  13  15
ATOM     15  C   UNL     1       3.970   7.483  17.317  0.00  0.00    +0.000 C 
BRANCH  15  16
ATOM     16  C   UNL     1       2.804   8.022  18.077  0.00  0.00    +0.000 A 
ATOM     17  N   UNL     1       2.443   7.814  19.333  0.00  0.00    +0.000 NA
ATOM     18  N   UNL     1       1.354   8.625  19.555  0.00  0.00    +0.000 NA
ATOM     19  C   UNL     1       1.119   9.288  18.437  0.00  0.00    +0.000 A 
ATOM     20  O   UNL     1       2.004   8.938  17.443  0.00  0.00    +0.000 OA
BRANCH  19  21
ATOM     21  C   UNL     1       0.091  10.272  18.284  0.00  0.00    +0.000 A 
ATOM     22  C   UNL     1      -1.159  10.133  17.699  0.00  0.00    +0.000 A 
ATOM     23  C   UNL     1      -1.823  11.378  17.822  0.00  0.00    +0.000 A 
ATOM     24  C   UNL     1      -0.942  12.213  18.466  0.00  0.00    +0.000 A 
ATOM     25  O   UNL     1       0.212  11.558  18.752  0.00  0.00    +0.000 OA
ENDBRANCH  19  21
ENDBRANCH  15  16
ENDBRANCH  13  15
TORSDOF 3
ENDMDL
MODEL 3
REMARK VINA RESULT:      -7.3      2.188      2.437
REMARK  Name = 
REMARK  5 active torsions:
REMARK  status: ('A' for Active; 'I' for Inactive)
REMARK    1  A    between atoms: C_1  and  N_2
REMARK    2  A    between atoms: N_2  and  C_3
REMARK    3  A    between atoms: N_13  and  C_14
REMARK    4  A    between atoms: C_14  and  C_15
REMARK    5  A    between atoms: C_18  and  C_19
REMARK                            x       y       z     vdW  Elec       q    Type
REMARK                         _______ _______ _______ _____ _____    ______ ____
ROOT
ATOM      1  C   UNL     1       5.883   6.631  16.601  0.00  0.00    +0.000 C 
ATOM      2  N   UNL     1       4.601   5.981  16.858  0.00  0.00    +0.000 N 
ATOM      3  C   UNL     1       3.622   6.867  17.477  0.00  0.00    +0.000 C 
ATOM      4  C   UNL     1       4.725   4.615  17.109  0.00  0.00    +0.000 C 
ATOM      5  O   UNL     1       5.848   4.094  17.056  0.00  0.00    +0.000 OA
ATOM      6  N   UNL     1       3.633   3.823  17.410  0.00  0.00    +0.000 N 
ATOM      7  C   UNL     1       3.895   2.475  17.926  0.00  0.00    +0.000 C 
ATOM      8  C   UNL     1       3.145   2.149  19.238  0.00  0.00    +0.000 C 
ATOM      9  C   UNL     1       1.679   1.741  19.006  0.00  0.00    +0.000 C 
ATOM     10  C   UNL     1       0.741   2.950  18.966  0.00  0.00    +0.000 C 
ATOM     11  C   UNL     1       1.508   4.254  18.686  0.00  0.00    +0.000 C 
ATOM     12  C   UNL     1       2.213   4.138  17.290  0.00  0.00    +0.000 C 
ATOM     13  N   UNL     1       2.478   4.533  19.779  0.00  0.00    +0.000 NA
ATOM     14  C   UNL     1       3.194   3.320  20.234  0.00  0.00    +0.000 C 
ENDROOT
BRANCH  13  15
ATOM     15  C   UNL     1       1.934   5.268  20.934  0.00  0.00    +0.000 C 
BRANCH  15  16
ATOM     16  C   UNL     1       1.715   6.725  20.700  0.00  0.00    +0.000 A 
ATOM     17  N   UNL     1       2.135   7.496  19.711  0.00  0.00    +0.000 NA
ATOM     18  N   UNL     1       1.572   8.733  19.928  0.00  0.00    +0.000 NA
ATOM     19  C   UNL     1       0.834   8.647  21.020  0.00  0.00    +0.000 A 
ATOM     20  O   UNL     1       0.893   7.390  21.575  0.00  0.00    +0.000 OA
BRANCH  19  21
ATOM     21  C   UNL     1       0.046   9.720  21.547  0.00  0.00    +0.000 A 
ATOM     22  C   UNL     1      -0.479  10.817  20.880  0.00  0.00    +0.000 A 
ATOM     23  C   UNL     1      -1.211  11.574  21.826  0.00  0.00    +0.000 A 
ATOM     24  C   UNL     1      -1.087  10.908  23.021  0.00  0.00    +0.000 A 
ATOM     25  O   UNL     1      -0.336   9.789  22.865  0.00  0.00    +0.000 OA
ENDBRANCH  19  21
ENDBRANCH  15  16
ENDBRANCH  13  15
TORSDOF 3
ENDMDL
MODEL 4
REMARK VINA RESULT:      -7.2      1.447      1.536
REMARK  Name = 
REMARK  5 active torsions:
REMARK  status: ('A' for Active; 'I' for Inactive)
REMARK    1  A    between atoms: C_1  and  N_2
REMARK    2  A    between atoms: N_2  and  C_3
REMARK    3  A    between atoms: N_13  and  C_14
REMARK    4  A    between atoms: C_14  and  C_15
REMARK    5  A    between atoms: C_18  and  C_19
REMARK                            x       y       z     vdW  Elec       q    Type
REMARK                         _______ _______ _______ _____ _____    ______ ____
ROOT
ATOM      1  C   UNL     1       6.558   6.559  17.289  0.00  0.00    +0.000 C 
ATOM      2  N   UNL     1       5.244   5.927  17.371  0.00  0.00    +0.000 N 
ATOM      3  C   UNL     1       4.155   6.884  17.518  0.00  0.00    +0.000 C 
ATOM      4  C   UNL     1       5.287   4.658  17.948  0.00  0.00    +0.000 C 
ATOM      5  O   UNL     1       6.383   4.188  18.286  0.00  0.00    +0.000 OA
ATOM      6  N   UNL     1       4.145   3.906  18.149  0.00  0.00    +0.000 N 
ATOM      7  C   UNL     1       4.257   2.720  19.006  0.00  0.00    +0.000 C 
ATOM      8  C   UNL     1       3.205   2.663  20.137  0.00  0.00    +0.000 C 
ATOM      9  C   UNL     1       1.835   2.148  19.658  0.00  0.00    +0.000 C 
ATOM     10  C   UNL     1       0.950   3.275  19.120  0.00  0.00    +0.000 C 
ATOM     11  C   UNL     1       1.778   4.516  18.744  0.00  0.00    +0.000 C 
ATOM     12  C   UNL     1       2.801   4.123  17.623  0.00  0.00    +0.000 C 
ATOM     13  N   UNL     1       2.455   5.075  19.945  0.00  0.00    +0.000 NA
ATOM     14  C   UNL     1       3.023   4.027  20.822  0.00  0.00    +0.000 C 
ENDROOT
BRANCH  13  15
ATOM     15  C   UNL     1       1.654   6.024  20.738  0.00  0.00    +0.000 C 
BRANCH  15  16
ATOM     16  C   UNL     1       1.618   7.415  20.197  0.00  0.00    +0.000 A 
ATOM     17  N   UNL     1       2.025   7.878  19.027  0.00  0.00    +0.000 NA
ATOM     18  N   UNL     1       1.671   9.208  19.002  0.00  0.00    +0.000 NA
ATOM     19  C   UNL     1       1.061   9.478  20.142  0.00  0.00    +0.000 A 
ATOM     20  O   UNL     1       1.006   8.375  20.962  0.00  0.00    +0.000 OA
BRANCH  19  21
ATOM     21  C   UNL     1       0.500  10.752  20.474  0.00  0.00    +0.000 A 
ATOM     22  C   UNL     1      -0.789  11.215  20.248  0.00  0.00    +0.000 A 
ATOM     23  C   UNL     1      -0.867  12.522  20.787  0.00  0.00    +0.000 A 
ATOM     24  C   UNL     1       0.377  12.793  21.303  0.00  0.00    +0.000 A 
ATOM     25  O   UNL     1       1.207  11.735  21.124  0.00  0.00    +0.000 OA
ENDBRANCH  19  21
ENDBRANCH  15  16
ENDBRANCH  13  15
TORSDOF 3
ENDMDL
MODEL 5
REMARK VINA RESULT:      -7.1      2.023      2.426
REMARK  Name = 
REMARK  5 active torsions:
REMARK  status: ('A' for Active; 'I' for Inactive)
REMARK    1  A    between atoms: C_1  and  N_2
REMARK    2  A    between atoms: N_2  and  C_3
REMARK    3  A    between atoms: N_13  and  C_14
REMARK    4  A    between atoms: C_14  and  C_15
REMARK    5  A    between atoms: C_18  and  C_19
REMARK                            x       y       z     vdW  Elec       q    Type
REMARK                         _______ _______ _______ _____ _____    ______ ____
ROOT
ATOM      1  C   UNL     1       8.042   7.207  18.470  0.00  0.00    +0.000 C 
ATOM      2  N   UNL     1       7.040   6.285  17.941  0.00  0.00    +0.000 N 
ATOM      3  C   UNL     1       6.220   6.871  16.888  0.00  0.00    +0.000 C 
ATOM      4  C   UNL     1       6.598   5.362  18.888  0.00  0.00    +0.000 C 
ATOM      5  O   UNL     1       7.097   5.379  20.022  0.00  0.00    +0.000 OA
ATOM      6  N   UNL     1       5.625   4.424  18.599  0.00  0.00    +0.000 N 
ATOM      7  C   UNL     1       5.035   3.690  19.724  0.00  0.00    +0.000 C 
ATOM      8  C   UNL     1       3.490   3.717  19.748  0.00  0.00    +0.000 C 
ATOM      9  C   UNL     1       2.856   2.692  18.789  0.00  0.00    +0.000 C 
ATOM     10  C   UNL     1       2.677   3.255  17.377  0.00  0.00    +0.000 C 
ATOM     11  C   UNL     1       3.579   4.478  17.135  0.00  0.00    +0.000 C 
ATOM     12  C   UNL     1       5.078   4.044  17.300  0.00  0.00    +0.000 C 
ATOM     13  N   UNL     1       3.215   5.586  18.059  0.00  0.00    +0.000 NA
ATOM     14  C   UNL     1       2.934   5.116  19.435  0.00  0.00    +0.000 C 
ENDROOT
BRANCH  13  15
ATOM     15  C   UNL     1       2.133   6.468  17.591  0.00  0.00    +0.000 C 
BRANCH  15  16
ATOM     16  C   UNL     1       1.988   7.740  18.359  0.00  0.00    +0.000 A 
ATOM     17  N   UNL     1       2.310   8.976  18.017  0.00  0.00    +0.000 NA
ATOM     18  N   UNL     1       1.876   9.780  19.047  0.00  0.00    +0.000 NA
ATOM     19  C   UNL     1       1.306   8.999  19.947  0.00  0.00    +0.000 A 
ATOM     20  O   UNL     1       1.356   7.675  19.576  0.00  0.00    +0.000 OA
BRANCH  19  21
ATOM     21  C   UNL     1       0.685   9.472  21.147  0.00  0.00    +0.000 A 
ATOM     22  C   UNL     1      -0.177  10.546  21.310  0.00  0.00    +0.000 A 
ATOM     23  C   UNL     1      -0.545  10.587  22.676  0.00  0.00    +0.000 A 
ATOM     24  C   UNL     1       0.117   9.544  23.278  0.00  0.00    +0.000 A 
ATOM     25  O   UNL     1       0.858   8.864  22.367  0.00  0.00    +0.000 OA
ENDBRANCH  19  21
ENDBRANCH  15  16
ENDBRANCH  13  15
TORSDOF 3
ENDMDL
MODEL 6
REMARK VINA RESULT:      -7.0      3.504      6.867
REMARK  Name = 
REMARK  5 active torsions:
REMARK  status: ('A' for Active; 'I' for Inactive)
REMARK    1  A    between atoms: C_1  and  N_2
REMARK    2  A    between atoms: N_2  and  C_3
REMARK    3  A    between atoms: N_13  and  C_14
REMARK    4  A    between atoms: C_14  and  C_15
REMARK    5  A    between atoms: C_18  and  C_19
REMARK                            x       y       z     vdW  Elec       q    Type
REMARK                         _______ _______ _______ _____ _____    ______ ____
ROOT
ATOM      1  C   UNL     1       3.791   1.042  18.488  0.00  0.00    +0.000 C 
ATOM      2  N   UNL     1       3.283   2.355  18.102  0.00  0.00    +0.000 N 
ATOM      3  C   UNL     1       4.005   2.944  16.980  0.00  0.00    +0.000 C 
ATOM      4  C   UNL     1       2.741   3.065  19.173  0.00  0.00    +0.000 C 
ATOM      5  O   UNL     1       2.704   2.529  20.291  0.00  0.00    +0.000 OA
ATOM      6  N   UNL     1       2.237   4.343  19.026  0.00  0.00    +0.000 N 
ATOM      7  C   UNL     1       1.949   5.103  20.248  0.00  0.00    +0.000 C 
ATOM      8  C   UNL     1       2.589   6.509  20.277  0.00  0.00    +0.000 C 
ATOM      9  C   UNL     1       1.786   7.551  19.477  0.00  0.00    +0.000 C 
ATOM     10  C   UNL     1       2.187   7.582  18.001  0.00  0.00    +0.000 C 
ATOM     11  C   UNL     1       2.909   6.290  17.581  0.00  0.00    +0.000 C 
ATOM     12  C   UNL     1       1.942   5.075  17.798  0.00  0.00    +0.000 C 
ATOM     13  N   UNL     1       4.180   6.133  18.341  0.00  0.00    +0.000 NA
ATOM     14  C   UNL     1       4.041   6.490  19.771  0.00  0.00    +0.000 C 
ENDROOT
BRANCH  13  15
ATOM     15  C   UNL     1       5.351   6.810  17.758  0.00  0.00    +0.000 C 
BRANCH  15  16
ATOM     16  C   UNL     1       6.136   5.981  16.796  0.00  0.00    +0.000 A 
ATOM     17  N   UNL     1       7.316   5.403  16.944  0.00  0.00    +0.000 NA
ATOM     18  N   UNL     1       7.532   4.680  15.792  0.00  0.00    +0.000 NA
ATOM     19  C   UNL     1       6.476   4.845  15.017  0.00  0.00    +0.000 A 
ATOM     20  O   UNL     1       5.547   5.680  15.593  0.00  0.00    +0.000 OA
BRANCH  19  21
ATOM     21  C   UNL     1       6.302   4.210  13.746  0.00  0.00    +0.000 A 
ATOM     22  C   UNL     1       5.169   3.594  13.234  0.00  0.00    +0.000 A 
ATOM     23  C   UNL     1       5.486   3.149  11.927  0.00  0.00    +0.000 A 
ATOM     24  C   UNL     1       6.795   3.507  11.713  0.00  0.00    +0.000 A 
ATOM     25  O   UNL     1       7.296   4.148  12.799  0.00  0.00    +0.000 OA
ENDBRANCH  19  21
ENDBRANCH  15  16
ENDBRANCH  13  15
TORSDOF 3
ENDMDL
MODEL 7
REMARK VINA RESULT:      -6.9      2.212      2.391
REMARK  Name = 
REMARK  5 active torsions:
REMARK  status: ('A' for Active; 'I' for Inactive)
REMARK    1  A    between atoms: C_1  and  N_2
REMARK    2  A    between atoms: N_2  and  C_3
REMARK    3  A    between atoms: N_13  and  C_14
REMARK    4  A    between atoms: C_14  and  C_15
REMARK    5  A    between atoms: C_18  and  C_19
REMARK                            x       y       z     vdW  Elec       q    Type
REMARK                         _______ _______ _______ _____ _____    ______ ____
ROOT
ATOM      1  C   UNL     1       8.077   6.884  18.576  0.00  0.00    +0.000 C 
ATOM      2  N   UNL     1       6.810   6.352  18.081  0.00  0.00    +0.000 N 
ATOM      3  C   UNL     1       6.055   7.314  17.287  0.00  0.00    +0.000 C 
ATOM      4  C   UNL     1       6.255   5.393  18.929  0.00  0.00    +0.000 C 
ATOM      5  O   UNL     1       6.873   5.067  19.952  0.00  0.00    +0.000 OA
ATOM      6  N   UNL     1       5.041   4.792  18.659  0.00  0.00    +0.000 N 
ATOM      7  C   UNL     1       4.416   4.014  19.735  0.00  0.00    +0.000 C 
ATOM      8  C   UNL     1       2.948   4.406  20.020  0.00  0.00    +0.000 C 
ATOM      9  C   UNL     1       1.954   3.773  19.028  0.00  0.00    +0.000 C 
ATOM     10  C   UNL     1       1.764   4.630  17.775  0.00  0.00    +0.000 C 
ATOM     11  C   UNL     1       2.922   5.623  17.584  0.00  0.00    +0.000 C 
ATOM     12  C   UNL     1       4.260   4.819  17.427  0.00  0.00    +0.000 C 
ATOM     13  N   UNL     1       2.980   6.581  18.722  0.00  0.00    +0.000 NA
ATOM     14  C   UNL     1       2.751   5.930  20.032  0.00  0.00    +0.000 C 
ENDROOT
BRANCH  13  15
ATOM     15  C   UNL     1       2.124   7.772  18.588  0.00  0.00    +0.000 C 
BRANCH  15  16
ATOM     16  C   UNL     1       1.517   8.252  19.865  0.00  0.00    +0.000 A 
ATOM     17  N   UNL     1       1.746   7.865  21.108  0.00  0.00    +0.000 NA
ATOM     18  N   UNL     1       0.997   8.696  21.909  0.00  0.00    +0.000 NA
ATOM     19  C   UNL     1       0.367   9.547  21.119  0.00  0.00    +0.000 A 
ATOM     20  O   UNL     1       0.645   9.309  19.792  0.00  0.00    +0.000 OA
BRANCH  19  21
ATOM     21  C   UNL     1      -0.477  10.606  21.583  0.00  0.00    +0.000 A 
ATOM     22  C   UNL     1      -0.921  10.855  22.874  0.00  0.00    +0.000 A 
ATOM     23  C   UNL     1      -1.702  12.035  22.829  0.00  0.00    +0.000 A 
ATOM     24  C   UNL     1      -1.702  12.439  21.516  0.00  0.00    +0.000 A 
ATOM     25  O   UNL     1      -0.966  11.589  20.757  0.00  0.00    +0.000 OA
ENDBRANCH  19  21
ENDBRANCH  15  16
ENDBRANCH  13  15
TORSDOF 3
ENDMDL
MODEL 8
REMARK VINA RESULT:      -6.9      7.153     10.954
REMARK  Name = 
REMARK  5 active torsions:
REMARK  status: ('A' for Active; 'I' for Inactive)
REMARK    1  A    between atoms: C_1  and  N_2
REMARK    2  A    between atoms: N_2  and  C_3
REMARK    3  A    between atoms: N_13  and  C_14
REMARK    4  A    between atoms: C_14  and  C_15
REMARK    5  A    between atoms: C_18  and  C_19
REMARK                            x       y       z     vdW  Elec       q    Type
REMARK                         _______ _______ _______ _____ _____    ______ ____
ROOT
ATOM      1  C   UNL     1      -7.529  12.193  19.819  0.00  0.00    +0.000 C 
ATOM      2  N   UNL     1      -6.726  13.096  20.638  0.00  0.00    +0.000 N 
ATOM      3  C   UNL     1      -5.706  13.807  19.877  0.00  0.00    +0.000 C 
ATOM      4  C   UNL     1      -6.592  12.660  21.956  0.00  0.00    +0.000 C 
ATOM      5  O   UNL     1      -7.169  11.621  22.306  0.00  0.00    +0.000 OA
ATOM      6  N   UNL     1      -5.842  13.356  22.885  0.00  0.00    +0.000 N 
ATOM      7  C   UNL     1      -5.536  12.680  24.151  0.00  0.00    +0.000 C 
ATOM      8  C   UNL     1      -4.034  12.686  24.517  0.00  0.00    +0.000 C 
ATOM      9  C   UNL     1      -3.575  14.012  25.150  0.00  0.00    +0.000 C 
ATOM     10  C   UNL     1      -3.151  15.038  24.098  0.00  0.00    +0.000 C 
ATOM     11  C   UNL     1      -3.721  14.699  22.710  0.00  0.00    +0.000 C 
ATOM     12  C   UNL     1      -5.287  14.702  22.790  0.00  0.00    +0.000 C 
ATOM     13  N   UNL     1      -3.191  13.392  22.235  0.00  0.00    +0.000 NA
ATOM     14  C   UNL     1      -3.146  12.368  23.304  0.00  0.00    +0.000 C 
ENDROOT
BRANCH  13  15
ATOM     15  C   UNL     1      -1.898  13.453  21.532  0.00  0.00    +0.000 C 
BRANCH  15  16
ATOM     16  C   UNL     1      -1.683  12.373  20.525  0.00  0.00    +0.000 A 
ATOM     17  N   UNL     1      -0.968  11.264  20.612  0.00  0.00    +0.000 NA
ATOM     18  N   UNL     1      -1.190  10.574  19.442  0.00  0.00    +0.000 NA
ATOM     19  C   UNL     1      -2.032  11.287  18.716  0.00  0.00    +0.000 A 
ATOM     20  O   UNL     1      -2.379  12.461  19.345  0.00  0.00    +0.000 OA
BRANCH  19  21
ATOM     21  C   UNL     1      -2.546  10.878  17.444  0.00  0.00    +0.000 A 
ATOM     22  C   UNL     1      -2.063   9.897  16.591  0.00  0.00    +0.000 A 
ATOM     23  C   UNL     1      -2.933   9.843  15.475  0.00  0.00    +0.000 A 
ATOM     24  C   UNL     1      -3.894  10.799  15.699  0.00  0.00    +0.000 A 
ATOM     25  O   UNL     1      -3.674  11.426  16.883  0.00  0.00    +0.000 OA
ENDBRANCH  19  21
ENDBRANCH  15  16
ENDBRANCH  13  15
TORSDOF 3
ENDMDL
MODEL 9
REMARK VINA RESULT:      -6.9      1.089      1.193
REMARK  Name = 
REMARK  5 active torsions:
REMARK  status: ('A' for Active; 'I' for Inactive)
REMARK    1  A    between atoms: C_1  and  N_2
REMARK    2  A    between atoms: N_2  and  C_3
REMARK    3  A    between atoms: N_13  and  C_14
REMARK    4  A    between atoms: C_14  and  C_15
REMARK    5  A    between atoms: C_18  and  C_19
REMARK                            x       y       z     vdW  Elec       q    Type
REMARK                         _______ _______ _______ _____ _____    ______ ____
ROOT
ATOM      1  C   UNL     1       7.458   6.798  17.424  0.00  0.00    +0.000 C 
ATOM      2  N   UNL     1       6.326   5.895  17.237  0.00  0.00    +0.000 N 
ATOM      3  C   UNL     1       5.293   6.441  16.366  0.00  0.00    +0.000 C 
ATOM      4  C   UNL     1       6.099   5.073  18.342  0.00  0.00    +0.000 C 
ATOM      5  O   UNL     1       6.862   5.152  19.315  0.00  0.00    +0.000 OA
ATOM      6  N   UNL     1       5.053   4.171  18.380  0.00  0.00    +0.000 N 
ATOM      7  C   UNL     1       4.733   3.561  19.676  0.00  0.00    +0.000 C 
ATOM      8  C   UNL     1       3.243   3.674  20.071  0.00  0.00    +0.000 C 
ATOM      9  C   UNL     1       2.358   2.615  19.388  0.00  0.00    +0.000 C 
ATOM     10  C   UNL     1       1.857   3.075  18.017  0.00  0.00    +0.000 C 
ATOM     11  C   UNL     1       2.714   4.223  17.456  0.00  0.00    +0.000 C 
ATOM     12  C   UNL     1       4.191   3.722  17.292  0.00  0.00    +0.000 C 
ATOM     13  N   UNL     1       2.626   5.418  18.339  0.00  0.00    +0.000 NA
ATOM     14  C   UNL     1       2.676   5.073  19.778  0.00  0.00    +0.000 C 
ENDROOT
BRANCH  13  15
ATOM     15  C   UNL     1       1.493   6.320  18.070  0.00  0.00    +0.000 C 
BRANCH  15  16
ATOM     16  C   UNL     1       1.833   7.773  18.091  0.00  0.00    +0.000 A 
ATOM     17  N   UNL     1       2.590   8.477  17.265  0.00  0.00    +0.000 NA
ATOM     18  N   UNL     1       2.489   9.786  17.680  0.00  0.00    +0.000 NA
ATOM     19  C   UNL     1       1.673   9.811  18.718  0.00  0.00    +0.000 A 
ATOM     20  O   UNL     1       1.227   8.551  19.045  0.00  0.00    +0.000 OA
BRANCH  19  21
ATOM     21  C   UNL     1       1.277  11.004  19.402  0.00  0.00    +0.000 A 
ATOM     22  C   UNL     1       0.825  11.143  20.707  0.00  0.00    +0.000 A 
ATOM     23  C   UNL     1       0.593  12.523  20.927  0.00  0.00    +0.000 A 
ATOM     24  C   UNL     1       0.904  13.151  19.746  0.00  0.00    +0.000 A 
ATOM     25  O   UNL     1       1.320  12.249  18.822  0.00  0.00    +0.000 OA
ENDBRANCH  19  21
ENDBRANCH  15  16
ENDBRANCH  13  15
TORSDOF 3
ENDMDL
