MODEL 1
REMARK VINA RESULT:      -6.9      0.000      0.000
REMARK  Name = 
REMARK  2 active torsions:
REMARK  status: ('A' for Active; 'I' for Inactive)
REMARK    1  A    between atoms: C_1  and  C_2
REMARK    2  A    between atoms: C_4  and  C_5
REMARK                            x       y       z     vdW  Elec       q    Type
REMARK                         _______ _______ _______ _____ _____    ______ ____
ROOT
ATOM      1  C   UNL     1       2.568   7.132  19.086  0.00  0.00    +0.000 C 
ATOM      2  C   UNL     1       3.064   5.925  18.342  0.00  0.00    +0.000 A 
ATOM      3  C   UNL     1       4.082   6.082  17.394  0.00  0.00    +0.000 A 
ATOM      4  C   UNL     1       4.537   4.989  16.659  0.00  0.00    +0.000 A 
ATOM      5  N   UNL     1       4.028   3.752  16.871  0.00  0.00    +0.000 NA
ATOM      6  C   UNL     1       3.048   3.581  17.776  0.00  0.00    +0.000 A 
ATOM      7  C   UNL     1       2.526   2.306  17.949  0.00  0.00    +0.000 A 
ATOM      8  C   UNL     1       1.480   2.045  18.835  0.00  0.00    +0.000 A 
ATOM      9  C   UNL     1       0.937   3.082  19.579  0.00  0.00    +0.000 A 
ATOM     10  C   UNL     1       1.451   4.371  19.436  0.00  0.00    +0.000 A 
ATOM     11  C   UNL     1       2.510   4.641  18.538  0.00  0.00    +0.000 A 
ENDROOT
BRANCH   4  12
ATOM     12  C   UNL     1       5.533   5.173  15.540  0.00  0.00    +0.000 C 
ATOM     13  C   UNL     1       6.967   4.717  15.681  0.00  0.00    +0.000 C 
ATOM     14  C   UNL     1       6.039   3.981  14.762  0.00  0.00    +0.000 C 
ENDBRANCH   4  12
TORSDOF 1
ENDMDL
MODEL 2
REMARK VINA RESULT:      -6.8      1.575      4.699
REMARK  Name = 
REMARK  2 active torsions:
REMARK  status: ('A' for Active; 'I' for Inactive)
REMARK    1  A    between atoms: C_1  and  C_2
REMARK    2  A    between atoms: C_4  and  C_5
REMARK                            x       y       z     vdW  Elec       q    Type
REMARK                         _______ _______ _______ _____ _____    ______ ____
ROOT
ATOM      1  C   UNL     1       2.718   8.267  17.913  0.00  0.00    +0.000 C 
ATOM      2  C   UNL     1       3.028   6.835  18.242  0.00  0.00    +0.000 A 
ATOM      3  C   UNL     1       2.403   6.240  19.345  0.00  0.00    +0.000 A 
ATOM      4  C   UNL     1       2.698   4.926  19.700  0.00  0.00    +0.000 A 
ATOM      5  N   UNL     1       3.567   4.190  18.968  0.00  0.00    +0.000 NA
ATOM      6  C   UNL     1       4.179   4.743  17.906  0.00  0.00    +0.000 A 
ATOM      7  C   UNL     1       5.088   3.971  17.194  0.00  0.00    +0.000 A 
ATOM      8  C   UNL     1       5.799   4.477  16.105  0.00  0.00    +0.000 A 
ATOM      9  C   UNL     1       5.599   5.791  15.705  0.00  0.00    +0.000 A 
ATOM     10  C   UNL     1       4.682   6.584  16.394  0.00  0.00    +0.000 A 
ATOM     11  C   UNL     1       3.960   6.076  17.500  0.00  0.00    +0.000 A 
ENDROOT
BRANCH   4  12
ATOM     12  C   UNL     1       2.135   4.324  20.965  0.00  0.00    +0.000 C 
ATOM     13  C   UNL     1       1.104   3.221  20.920  0.00  0.00    +0.000 C 
ATOM     14  C   UNL     1       2.501   2.915  21.371  0.00  0.00    +0.000 C 
ENDBRANCH   4  12
TORSDOF 1
ENDMDL
MODEL 3
REMARK VINA RESULT:      -6.7      1.184      4.641
REMARK  Name = 
REMARK  2 active torsions:
REMARK  status: ('A' for Active; 'I' for Inactive)
REMARK    1  A    between atoms: C_1  and  C_2
REMARK    2  A    between atoms: C_4  and  C_5
REMARK                            x       y       z     vdW  Elec       q    Type
REMARK                         _______ _______ _______ _____ _____    ______ ____
ROOT
ATOM      1  C   UNL     1       2.808   7.531  18.156  0.00  0.00    +0.000 C 
ATOM      2  C   UNL     1       3.109   6.062  18.057  0.00  0.00    +0.000 A 
ATOM      3  C   UNL     1       2.407   5.168  18.874  0.00  0.00    +0.000 A 
ATOM      4  C   UNL     1       2.691   3.805  18.835  0.00  0.00    +0.000 A 
ATOM      5  N   UNL     1       3.624   3.316  17.983  0.00  0.00    +0.000 NA
ATOM      6  C   UNL     1       4.310   4.159  17.192  0.00  0.00    +0.000 A 
ATOM      7  C   UNL     1       5.281   3.629  16.352  0.00  0.00    +0.000 A 
ATOM      8  C   UNL     1       6.069   4.435  15.527  0.00  0.00    +0.000 A 
ATOM      9  C   UNL     1       5.884   5.810  15.532  0.00  0.00    +0.000 A 
ATOM     10  C   UNL     1       4.905   6.366  16.356  0.00  0.00    +0.000 A 
ATOM     11  C   UNL     1       4.106   5.555  17.194  0.00  0.00    +0.000 A 
ENDROOT
BRANCH   4  12
ATOM     12  C   UNL     1       2.039   2.853  19.809  0.00  0.00    +0.000 C 
ATOM     13  C   UNL     1       2.505   2.755  21.243  0.00  0.00    +0.000 C 
ATOM     14  C   UNL     1       1.177   3.379  20.933  0.00  0.00    +0.000 C 
ENDBRANCH   4  12
TORSDOF 1
ENDMDL
MODEL 4
REMARK VINA RESULT:      -6.6      1.669      1.908
REMARK  Name = 
REMARK  2 active torsions:
REMARK  status: ('A' for Active; 'I' for Inactive)
REMARK    1  A    between atoms: C_1  and  C_2
REMARK    2  A    between atoms: C_4  and  C_5
REMARK                            x       y       z     vdW  Elec       q    Type
REMARK                         _______ _______ _______ _____ _____    ______ ____
ROOT
ATOM      1  C   UNL     1       2.360   6.985  18.258  0.00  0.00    +0.000 C 
ATOM      2  C   UNL     1       3.274   5.859  18.649  0.00  0.00    +0.000 A 
ATOM      3  C   UNL     1       4.591   5.856  18.175  0.00  0.00    +0.000 A 
ATOM      4  C   UNL     1       5.452   4.806  18.487  0.00  0.00    +0.000 A 
ATOM      5  N   UNL     1       5.043   3.788  19.281  0.00  0.00    +0.000 NA
ATOM      6  C   UNL     1       3.781   3.771  19.745  0.00  0.00    +0.000 A 
ATOM      7  C   UNL     1       3.383   2.698  20.531  0.00  0.00    +0.000 A 
ATOM      8  C   UNL     1       2.081   2.578  21.020  0.00  0.00    +0.000 A 
ATOM      9  C   UNL     1       1.144   3.558  20.725  0.00  0.00    +0.000 A 
ATOM     10  C   UNL     1       1.521   4.654  19.948  0.00  0.00    +0.000 A 
ATOM     11  C   UNL     1       2.838   4.779  19.449  0.00  0.00    +0.000 A 
ENDROOT
BRANCH   4  12
ATOM     12  C   UNL     1       6.826   4.726  17.868  0.00  0.00    +0.000 C 
ATOM     13  C   UNL     1       7.009   4.482  16.387  0.00  0.00    +0.000 C 
ATOM     14  C   UNL     1       7.325   5.830  16.965  0.00  0.00    +0.000 C 
ENDBRANCH   4  12
TORSDOF 1
ENDMDL
MODEL 5
REMARK VINA RESULT:      -6.5      1.487      1.583
REMARK  Name = 
REMARK  2 active torsions:
REMARK  status: ('A' for Active; 'I' for Inactive)
REMARK    1  A    between atoms: C_1  and  C_2
REMARK    2  A    between atoms: C_4  and  C_5
REMARK                            x       y       z     vdW  Elec       q    Type
REMARK                         _______ _______ _______ _____ _____    ______ ____
ROOT
ATOM      1  C   UNL     1       2.504   7.313  18.684  0.00  0.00    +0.000 C 
ATOM      2  C   UNL     1       3.323   6.054  18.653  0.00  0.00    +0.000 A 
ATOM      3  C   UNL     1       4.366   5.943  17.726  0.00  0.00    +0.000 A 
ATOM      4  C   UNL     1       5.119   4.774  17.647  0.00  0.00    +0.000 A 
ATOM      5  N   UNL     1       4.879   3.738  18.484  0.00  0.00    +0.000 NA
ATOM      6  C   UNL     1       3.880   3.823  19.381  0.00  0.00    +0.000 A 
ATOM      7  C   UNL     1       3.640   2.732  20.205  0.00  0.00    +0.000 A 
ATOM      8  C   UNL     1       2.598   2.718  21.135  0.00  0.00    +0.000 A 
ATOM      9  C   UNL     1       1.771   3.826  21.255  0.00  0.00    +0.000 A 
ATOM     10  C   UNL     1       1.999   4.941  20.448  0.00  0.00    +0.000 A 
ATOM     11  C   UNL     1       3.052   4.959  19.504  0.00  0.00    +0.000 A 
ENDROOT
BRANCH   4  12
ATOM     12  C   UNL     1       6.151   4.594  16.560  0.00  0.00    +0.000 C 
ATOM     13  C   UNL     1       5.846   3.802  15.309  0.00  0.00    +0.000 C 
ATOM     14  C   UNL     1       5.992   5.292  15.229  0.00  0.00    +0.000 C 
ENDBRANCH   4  12
TORSDOF 1
ENDMDL
MODEL 6
REMARK VINA RESULT:      -6.5      1.828      4.926
REMARK  Name = 
REMARK  2 active torsions:
REMARK  status: ('A' for Active; 'I' for Inactive)
REMARK    1  A    between atoms: C_1  and  C_2
REMARK    2  A    between atoms: C_4  and  C_5
REMARK                            x       y       z     vdW  Elec       q    Type
REMARK                         _______ _______ _______ _____ _____    ______ ____
ROOT
ATOM      1  C   UNL     1       2.703   7.639  17.869  0.00  0.00    +0.000 C 
ATOM      2  C   UNL     1       3.343   6.324  18.216  0.00  0.00    +0.000 A 
ATOM      3  C   UNL     1       2.579   5.346  18.863  0.00  0.00    +0.000 A 
ATOM      4  C   UNL     1       3.153   4.132  19.233  0.00  0.00    +0.000 A 
ATOM      5  N   UNL     1       4.448   3.862  18.944  0.00  0.00    +0.000 NA
ATOM      6  C   UNL     1       5.199   4.789  18.324  0.00  0.00    +0.000 A 
ATOM      7  C   UNL     1       6.532   4.493  18.068  0.00  0.00    +0.000 A 
ATOM      8  C   UNL     1       7.395   5.412  17.467  0.00  0.00    +0.000 A 
ATOM      9  C   UNL     1       6.918   6.663  17.102  0.00  0.00    +0.000 A 
ATOM     10  C   UNL     1       5.580   6.981  17.335  0.00  0.00    +0.000 A 
ATOM     11  C   UNL     1       4.703   6.055  17.945  0.00  0.00    +0.000 A 
ENDROOT
BRANCH   4  12
ATOM     12  C   UNL     1       2.376   3.130  20.053  0.00  0.00    +0.000 C 
ATOM     13  C   UNL     1       2.183   3.313  21.541  0.00  0.00    +0.000 C 
ATOM     14  C   UNL     1       1.018   3.486  20.612  0.00  0.00    +0.000 C 
ENDBRANCH   4  12
TORSDOF 1
ENDMDL
MODEL 7
REMARK VINA RESULT:      -6.5      1.832      2.178
REMARK  Name = 
REMARK  2 active torsions:
REMARK  status: ('A' for Active; 'I' for Inactive)
REMARK    1  A    between atoms: C_1  and  C_2
REMARK    2  A    between atoms: C_4  and  C_5
REMARK                            x       y       z     vdW  Elec       q    Type
REMARK                         _______ _______ _______ _____ _____    ______ ____
ROOT
ATOM      1  C   UNL     1       2.331   7.525  17.998  0.00  0.00    +0.000 C 
ATOM      2  C   UNL     1       3.383   6.455  17.929  0.00  0.00    +0.000 A 
ATOM      3  C   UNL     1       4.726   6.829  17.801  0.00  0.00    +0.000 A 
ATOM      4  C   UNL     1       5.721   5.861  17.695  0.00  0.00    +0.000 A 
ATOM      5  N   UNL     1       5.414   4.543  17.748  0.00  0.00    +0.000 NA
ATOM      6  C   UNL     1       4.130   4.163  17.869  0.00  0.00    +0.000 A 
ATOM      7  C   UNL     1       3.845   2.804  17.890  0.00  0.00    +0.000 A 
ATOM      8  C   UNL     1       2.537   2.321  17.970  0.00  0.00    +0.000 A 
ATOM      9  C   UNL     1       1.479   3.214  18.038  0.00  0.00    +0.000 A 
ATOM     10  C   UNL     1       1.738   4.585  18.033  0.00  0.00    +0.000 A 
ATOM     11  C   UNL     1       3.060   5.080  17.949  0.00  0.00    +0.000 A 
ENDROOT
BRANCH   4  12
ATOM     12  C   UNL     1       7.153   6.254  17.417  0.00  0.00    +0.000 C 
ATOM     13  C   UNL     1       7.621   7.681  17.577  0.00  0.00    +0.000 C 
ATOM     14  C   UNL     1       8.075   6.636  18.551  0.00  0.00    +0.000 C 
ENDBRANCH   4  12
TORSDOF 1
ENDMDL
MODEL 8
REMARK VINA RESULT:      -6.5      0.878      1.069
REMARK  Name = 
REMARK  2 active torsions:
REMARK  status: ('A' for Active; 'I' for Inactive)
REMARK    1  A    between atoms: C_1  and  C_2
REMARK    2  A    between atoms: C_4  and  C_5
REMARK                            x       y       z     vdW  Elec       q    Type
REMARK                         _______ _______ _______ _____ _____    ______ ____
ROOT
ATOM      1  C   UNL     1       1.909   6.961  20.281  0.00  0.00    +0.000 C 
ATOM      2  C   UNL     1       2.504   6.048  19.247  0.00  0.00    +0.000 A 
ATOM      3  C   UNL     1       3.480   6.549  18.378  0.00  0.00    +0.000 A 
ATOM      4  C   UNL     1       4.024   5.739  17.384  0.00  0.00    +0.000 A 
ATOM      5  N   UNL     1       3.644   4.445  17.260  0.00  0.00    +0.000 NA
ATOM      6  C   UNL     1       2.706   3.945  18.084  0.00  0.00    +0.000 A 
ATOM      7  C   UNL     1       2.317   2.623  17.912  0.00  0.00    +0.000 A 
ATOM      8  C   UNL     1       1.322   2.034  18.694  0.00  0.00    +0.000 A 
ATOM      9  C   UNL     1       0.696   2.779  19.683  0.00  0.00    +0.000 A 
ATOM     10  C   UNL     1       1.078   4.106  19.886  0.00  0.00    +0.000 A 
ATOM     11  C   UNL     1       2.084   4.707  19.095  0.00  0.00    +0.000 A 
ENDROOT
BRANCH   4  12
ATOM     12  C   UNL     1       4.972   6.310  16.356  0.00  0.00    +0.000 C 
ATOM     13  C   UNL     1       6.467   6.126  16.479  0.00  0.00    +0.000 C 
ATOM     14  C   UNL     1       5.712   5.397  15.407  0.00  0.00    +0.000 C 
ENDBRANCH   4  12
TORSDOF 1
ENDMDL
MODEL 9
REMARK VINA RESULT:      -6.5      1.133      2.671
REMARK  Name = 
REMARK  2 active torsions:
REMARK  status: ('A' for Active; 'I' for Inactive)
REMARK    1  A    between atoms: C_1  and  C_2
REMARK    2  A    between atoms: C_4  and  C_5
REMARK                            x       y       z     vdW  Elec       q    Type
REMARK                         _______ _______ _______ _____ _____    ______ ____
ROOT
ATOM      1  C   UNL     1       3.384   1.684  18.179  0.00  0.00    +0.000 C 
ATOM      2  C   UNL     1       3.539   3.165  17.976  0.00  0.00    +0.000 A 
ATOM      3  C   UNL     1       4.334   3.626  16.920  0.00  0.00    +0.000 A 
ATOM      4  C   UNL     1       4.530   4.992  16.729  0.00  0.00    +0.000 A 
ATOM      5  N   UNL     1       3.930   5.898  17.537  0.00  0.00    +0.000 NA
ATOM      6  C   UNL     1       3.163   5.475  18.558  0.00  0.00    +0.000 A 
ATOM      7  C   UNL     1       2.586   6.428  19.386  0.00  0.00    +0.000 A 
ATOM      8  C   UNL     1       1.811   6.077  20.494  0.00  0.00    +0.000 A 
ATOM      9  C   UNL     1       1.596   4.738  20.785  0.00  0.00    +0.000 A 
ATOM     10  C   UNL     1       2.153   3.760  19.960  0.00  0.00    +0.000 A 
ATOM     11  C   UNL     1       2.941   4.110  18.839  0.00  0.00    +0.000 A 
ENDROOT
BRANCH   4  12
ATOM     12  C   UNL     1       5.495   5.494  15.681  0.00  0.00    +0.000 C 
ATOM     13  C   UNL     1       6.968   5.158  15.744  0.00  0.00    +0.000 C 
ATOM     14  C   UNL     1       6.107   4.538  14.684  0.00  0.00    +0.000 C 
ENDBRANCH   4  12
TORSDOF 1
ENDMDL
