MODEL 1
REMARK VINA RESULT:      -8.7      0.000      0.000
REMARK  Name = 
REMARK  5 active torsions:
REMARK  status: ('A' for Active; 'I' for Inactive)
REMARK    1  A    between atoms: C_1  and  O_2
REMARK    2  A    between atoms: O_2  and  C_3
REMARK    3  A    between atoms: C_8  and  C_9
REMARK    4  A    between atoms: C_9  and  N_10
REMARK    5  A    between atoms: C_18  and  C_20
REMARK                            x       y       z     vdW  Elec       q    Type
REMARK                         _______ _______ _______ _____ _____    ______ ____
ROOT
ATOM      1  N   UNL     1       4.466   3.203  18.414  0.00  0.00    +0.000 NA
ATOM      2  C   UNL     1       3.383   2.408  17.836  0.00  0.00    +0.000 C 
ATOM      3  C   UNL     1       2.017   3.073  17.686  0.00  0.00    +0.000 C 
ATOM      4  C   UNL     1       1.636   4.175  18.672  0.00  0.00    +0.000 C 
ATOM      5  C   UNL     1       2.762   4.965  19.384  0.00  0.00    +0.000 C 
ATOM      6  C   UNL     1       3.283   6.269  18.724  0.00  0.00    +0.000 C 
ATOM      7  C   UNL     1       2.227   7.312  18.435  0.00  0.00    +0.000 C 
ATOM      8  N   UNL     1       1.594   7.739  19.665  0.00  0.00    +0.000 N 
ATOM      9  C   UNL     1       1.211   9.094  19.708  0.00  0.00    +0.000 C 
ATOM     10  O   UNL     1       1.407   9.845  18.746  0.00  0.00    +0.000 OA
ATOM     11  C   UNL     1       1.074   6.638  20.493  0.00  0.00    +0.000 C 
ATOM     12  C   UNL     1       2.124   5.507  20.725  0.00  0.00    +0.000 C 
ATOM     13  C   UNL     1       3.982   3.992  19.593  0.00  0.00    +0.000 C 
ENDROOT
BRANCH   9  14
ATOM     14  C   UNL     1       0.595   9.719  20.904  0.00  0.00    +0.000 A 
ATOM     15  C   UNL     1       1.015   9.278  22.159  0.00  0.00    +0.000 A 
ATOM     16  N   UNL     1       0.467   9.724  23.319  0.00  0.00    +0.000 NA
ATOM     17  C   UNL     1      -0.526  10.628  23.170  0.00  0.00    +0.000 A 
ATOM     18  C   UNL     1      -0.969  11.042  21.923  0.00  0.00    +0.000 A 
ATOM     19  N   UNL     1      -0.423  10.606  20.764  0.00  0.00    +0.000 NA
ENDBRANCH   9  14
BRANCH   1  20
ATOM     20  C   UNL     1       5.161   4.036  17.415  0.00  0.00    +0.000 C 
BRANCH  20  26
ATOM     21  C   UNL     1       6.482   6.113  16.895  0.00  0.00    +0.000 A 
ATOM     22  C   UNL     1       7.422   7.100  17.194  0.00  0.00    +0.000 A 
ATOM     23  C   UNL     1       8.096   7.071  18.410  0.00  0.00    +0.000 A 
ATOM     24  C   UNL     1       7.818   6.067  19.352  0.00  0.00    +0.000 A 
ATOM     25  C   UNL     1       6.857   5.083  19.055  0.00  0.00    +0.000 A 
ATOM     26  C   UNL     1       6.206   5.068  17.813  0.00  0.00    +0.000 A 
BRANCH  21  28
ATOM     27  C   UNL     1       6.787   5.125  14.758  0.00  0.00    +0.000 C 
ATOM     28  O   UNL     1       6.042   5.999  15.599  0.00  0.00    +0.000 OA
ENDBRANCH  21  28
ENDBRANCH  20  26
ENDBRANCH   1  20
TORSDOF 4
ENDMDL
MODEL 2
REMARK VINA RESULT:      -8.3      2.201      7.867
REMARK  Name = 
REMARK  5 active torsions:
REMARK  status: ('A' for Active; 'I' for Inactive)
REMARK    1  A    between atoms: C_1  and  O_2
REMARK    2  A    between atoms: O_2  and  C_3
REMARK    3  A    between atoms: C_8  and  C_9
REMARK    4  A    between atoms: C_9  and  N_10
REMARK    5  A    between atoms: C_18  and  C_20
REMARK                            x       y       z     vdW  Elec       q    Type
REMARK                         _______ _______ _______ _____ _____    ______ ____
ROOT
ATOM      1  N   UNL     1       1.370   5.301  20.369  0.00  0.00    +0.000 NA
ATOM      2  C   UNL     1       1.735   4.140  21.178  0.00  0.00    +0.000 C 
ATOM      3  C   UNL     1       3.037   3.419  20.837  0.00  0.00    +0.000 C 
ATOM      4  C   UNL     1       3.528   3.455  19.392  0.00  0.00    +0.000 C 
ATOM      5  C   UNL     1       3.070   4.617  18.474  0.00  0.00    +0.000 C 
ATOM      6  C   UNL     1       3.953   5.892  18.399  0.00  0.00    +0.000 C 
ATOM      7  C   UNL     1       5.393   5.655  18.006  0.00  0.00    +0.000 C 
ATOM      8  N   UNL     1       5.463   5.070  16.683  0.00  0.00    +0.000 N 
ATOM      9  C   UNL     1       6.568   5.468  15.905  0.00  0.00    +0.000 C 
ATOM     10  O   UNL     1       7.410   6.257  16.346  0.00  0.00    +0.000 OA
ATOM     11  C   UNL     1       4.637   3.864  16.510  0.00  0.00    +0.000 C 
ATOM     12  C   UNL     1       3.167   4.062  16.997  0.00  0.00    +0.000 C 
ATOM     13  C   UNL     1       1.620   5.042  18.914  0.00  0.00    +0.000 C 
ENDROOT
BRANCH   9  14
ATOM     14  C   UNL     1       6.776   5.009  14.509  0.00  0.00    +0.000 A 
ATOM     15  C   UNL     1       5.983   3.961  14.042  0.00  0.00    +0.000 A 
ATOM     16  N   UNL     1       6.139   3.410  12.811  0.00  0.00    +0.000 NA
ATOM     17  C   UNL     1       7.127   3.950  12.065  0.00  0.00    +0.000 A 
ATOM     18  C   UNL     1       7.940   4.970  12.539  0.00  0.00    +0.000 A 
ATOM     19  N   UNL     1       7.786   5.526  13.763  0.00  0.00    +0.000 NA
ENDBRANCH   9  14
BRANCH   1  20
ATOM     20  C   UNL     1       1.997   6.549  20.842  0.00  0.00    +0.000 C 
BRANCH  20  26
ATOM     21  C   UNL     1       1.205   8.725  19.856  0.00  0.00    +0.000 A 
ATOM     22  C   UNL     1       0.501   9.929  19.898  0.00  0.00    +0.000 A 
ATOM     23  C   UNL     1      -0.210  10.278  21.041  0.00  0.00    +0.000 A 
ATOM     24  C   UNL     1      -0.246   9.413  22.147  0.00  0.00    +0.000 A 
ATOM     25  C   UNL     1       0.450   8.191  22.096  0.00  0.00    +0.000 A 
ATOM     26  C   UNL     1       1.214   7.847  20.970  0.00  0.00    +0.000 A 
BRANCH  21  28
ATOM     27  C   UNL     1       1.998   9.402  17.724  0.00  0.00    +0.000 C 
ATOM     28  O   UNL     1       2.114   8.532  18.846  0.00  0.00    +0.000 OA
ENDBRANCH  21  28
ENDBRANCH  20  26
ENDBRANCH   1  20
TORSDOF 4
ENDMDL
MODEL 3
REMARK VINA RESULT:      -8.2      2.302      7.995
REMARK  Name = 
REMARK  5 active torsions:
REMARK  status: ('A' for Active; 'I' for Inactive)
REMARK    1  A    between atoms: C_1  and  O_2
REMARK    2  A    between atoms: O_2  and  C_3
REMARK    3  A    between atoms: C_8  and  C_9
REMARK    4  A    between atoms: C_9  and  N_10
REMARK    5  A    between atoms: C_18  and  C_20
REMARK                            x       y       z     vdW  Elec       q    Type
REMARK                         _______ _______ _______ _____ _____    ______ ____
ROOT
ATOM      1  N   UNL     1       1.418   5.221  20.365  0.00  0.00    +0.000 NA
ATOM      2  C   UNL     1       1.815   4.077  21.184  0.00  0.00    +0.000 C 
ATOM      3  C   UNL     1       3.132   3.384  20.843  0.00  0.00    +0.000 C 
ATOM      4  C   UNL     1       3.615   3.417  19.396  0.00  0.00    +0.000 C 
ATOM      5  C   UNL     1       3.126   4.559  18.470  0.00  0.00    +0.000 C 
ATOM      6  C   UNL     1       3.977   5.854  18.378  0.00  0.00    +0.000 C 
ATOM      7  C   UNL     1       5.421   5.648  17.980  0.00  0.00    +0.000 C 
ATOM      8  N   UNL     1       5.499   5.052  16.663  0.00  0.00    +0.000 N 
ATOM      9  C   UNL     1       6.591   5.468  15.876  0.00  0.00    +0.000 C 
ATOM     10  O   UNL     1       7.416   6.282  16.305  0.00  0.00    +0.000 OA
ATOM     11  C   UNL     1       4.701   3.825  16.505  0.00  0.00    +0.000 C 
ATOM     12  C   UNL     1       3.229   3.992  16.998  0.00  0.00    +0.000 C 
ATOM     13  C   UNL     1       1.668   4.954  18.912  0.00  0.00    +0.000 C 
ENDROOT
BRANCH   9  14
ATOM     14  C   UNL     1       6.804   5.001  14.483  0.00  0.00    +0.000 A 
ATOM     15  C   UNL     1       6.032   3.931  14.030  0.00  0.00    +0.000 A 
ATOM     16  N   UNL     1       6.195   3.373  12.803  0.00  0.00    +0.000 NA
ATOM     17  C   UNL     1       7.169   3.927  12.048  0.00  0.00    +0.000 A 
ATOM     18  C   UNL     1       7.961   4.968  12.510  0.00  0.00    +0.000 A 
ATOM     19  N   UNL     1       7.800   5.532  13.729  0.00  0.00    +0.000 NA
ENDBRANCH   9  14
BRANCH   1  20
ATOM     20  C   UNL     1       2.017   6.488  20.823  0.00  0.00    +0.000 C 
BRANCH  20  26
ATOM     21  C   UNL     1       1.120   8.831  21.027  0.00  0.00    +0.000 A 
ATOM     22  C   UNL     1       0.778  10.084  20.516  0.00  0.00    +0.000 A 
ATOM     23  C   UNL     1       0.978  10.361  19.168  0.00  0.00    +0.000 A 
ATOM     24  C   UNL     1       1.544   9.395  18.320  0.00  0.00    +0.000 A 
ATOM     25  C   UNL     1       1.904   8.138  18.842  0.00  0.00    +0.000 A 
ATOM     26  C   UNL     1       1.663   7.825  20.188  0.00  0.00    +0.000 A 
BRANCH  21  28
ATOM     27  C   UNL     1      -0.407   9.271  22.790  0.00  0.00    +0.000 C 
ATOM     28  O   UNL     1       0.663   8.486  22.275  0.00  0.00    +0.000 OA
ENDBRANCH  21  28
ENDBRANCH  20  26
ENDBRANCH   1  20
TORSDOF 4
ENDMDL
MODEL 4
REMARK VINA RESULT:      -8.0      2.470      9.049
REMARK  Name = 
REMARK  5 active torsions:
REMARK  status: ('A' for Active; 'I' for Inactive)
REMARK    1  A    between atoms: C_1  and  O_2
REMARK    2  A    between atoms: O_2  and  C_3
REMARK    3  A    between atoms: C_8  and  C_9
REMARK    4  A    between atoms: C_9  and  N_10
REMARK    5  A    between atoms: C_18  and  C_20
REMARK                            x       y       z     vdW  Elec       q    Type
REMARK                         _______ _______ _______ _____ _____    ______ ____
ROOT
ATOM      1  N   UNL     1       0.417  12.797  19.689  0.00  0.00    +0.000 NA
ATOM      2  C   UNL     1      -0.910  12.657  19.092  0.00  0.00    +0.000 C 
ATOM      3  C   UNL     1      -1.369  11.254  18.703  0.00  0.00    +0.000 C 
ATOM      4  C   UNL     1      -0.308  10.227  18.314  0.00  0.00    +0.000 C 
ATOM      5  C   UNL     1       1.137  10.406  18.844  0.00  0.00    +0.000 C 
ATOM      6  C   UNL     1       1.523   9.726  20.185  0.00  0.00    +0.000 C 
ATOM      7  C   UNL     1       1.292   8.233  20.240  0.00  0.00    +0.000 C 
ATOM      8  N   UNL     1       2.090   7.564  19.234  0.00  0.00    +0.000 N 
ATOM      9  C   UNL     1       2.579   6.294  19.598  0.00  0.00    +0.000 C 
ATOM     10  O   UNL     1       2.323   5.803  20.703  0.00  0.00    +0.000 OA
ATOM     11  C   UNL     1       1.924   8.100  17.873  0.00  0.00    +0.000 C 
ATOM     12  C   UNL     1       2.069   9.654  17.812  0.00  0.00    +0.000 C 
ATOM     13  C   UNL     1       1.422  11.949  18.969  0.00  0.00    +0.000 C 
ENDROOT
BRANCH   9  14
ATOM     14  C   UNL     1       3.454   5.484  18.715  0.00  0.00    +0.000 A 
ATOM     15  C   UNL     1       2.846   4.567  17.857  0.00  0.00    +0.000 A 
ATOM     16  N   UNL     1       3.550   3.722  17.063  0.00  0.00    +0.000 NA
ATOM     17  C   UNL     1       4.894   3.828  17.164  0.00  0.00    +0.000 A 
ATOM     18  C   UNL     1       5.501   4.716  18.041  0.00  0.00    +0.000 A 
ATOM     19  N   UNL     1       4.805   5.564  18.832  0.00  0.00    +0.000 NA
ENDBRANCH   9  14
BRANCH   1  20
ATOM     20  C   UNL     1       0.416  12.568  21.146  0.00  0.00    +0.000 C 
BRANCH  20  26
ATOM     21  C   UNL     1      -1.408  11.738  22.668  0.00  0.00    +0.000 A 
ATOM     22  C   UNL     1      -2.530  11.912  23.479  0.00  0.00    +0.000 A 
ATOM     23  C   UNL     1      -3.071  13.181  23.651  0.00  0.00    +0.000 A 
ATOM     24  C   UNL     1      -2.481  14.296  23.034  0.00  0.00    +0.000 A 
ATOM     25  C   UNL     1      -1.338  14.120  22.230  0.00  0.00    +0.000 A 
ATOM     26  C   UNL     1      -0.810  12.840  22.005  0.00  0.00    +0.000 A 
BRANCH  21  28
ATOM     27  C   UNL     1      -0.416   9.670  23.279  0.00  0.00    +0.000 C 
ATOM     28  O   UNL     1      -1.064  10.463  22.290  0.00  0.00    +0.000 OA
ENDBRANCH  21  28
ENDBRANCH  20  26
ENDBRANCH   1  20
TORSDOF 4
ENDMDL
MODEL 5
REMARK VINA RESULT:      -7.9      2.694      9.299
REMARK  Name = 
REMARK  5 active torsions:
REMARK  status: ('A' for Active; 'I' for Inactive)
REMARK    1  A    between atoms: C_1  and  O_2
REMARK    2  A    between atoms: O_2  and  C_3
REMARK    3  A    between atoms: C_8  and  C_9
REMARK    4  A    between atoms: C_9  and  N_10
REMARK    5  A    between atoms: C_18  and  C_20
REMARK                            x       y       z     vdW  Elec       q    Type
REMARK                         _______ _______ _______ _____ _____    ______ ____
ROOT
ATOM      1  N   UNL     1       0.016  12.344  20.047  0.00  0.00    +0.000 NA
ATOM      2  C   UNL     1      -1.227  12.157  19.302  0.00  0.00    +0.000 C 
ATOM      3  C   UNL     1      -1.496  10.777  18.706  0.00  0.00    +0.000 C 
ATOM      4  C   UNL     1      -0.301   9.913  18.312  0.00  0.00    +0.000 C 
ATOM      5  C   UNL     1       1.062  10.159  19.007  0.00  0.00    +0.000 C 
ATOM      6  C   UNL     1       1.393   9.354  20.292  0.00  0.00    +0.000 C 
ATOM      7  C   UNL     1       1.319   7.851  20.148  0.00  0.00    +0.000 C 
ATOM      8  N   UNL     1       2.273   7.393  19.159  0.00  0.00    +0.000 N 
ATOM      9  C   UNL     1       2.858   6.139  19.421  0.00  0.00    +0.000 C 
ATOM     10  O   UNL     1       2.556   5.490  20.428  0.00  0.00    +0.000 OA
ATOM     11  C   UNL     1       2.176   8.080  17.860  0.00  0.00    +0.000 C 
ATOM     12  C   UNL     1       2.159   9.635  17.997  0.00  0.00    +0.000 C 
ATOM     13  C   UNL     1       1.167  11.693  19.341  0.00  0.00    +0.000 C 
ENDROOT
BRANCH   9  14
ATOM     14  C   UNL     1       3.892   5.535  18.545  0.00  0.00    +0.000 A 
ATOM     15  C   UNL     1       3.472   4.635  17.565  0.00  0.00    +0.000 A 
ATOM     16  N   UNL     1       4.336   3.965  16.760  0.00  0.00    +0.000 NA
ATOM     17  C   UNL     1       5.643   4.230  16.979  0.00  0.00    +0.000 A 
ATOM     18  C   UNL     1       6.065   5.098  17.976  0.00  0.00    +0.000 A 
ATOM     19  N   UNL     1       5.209   5.772  18.778  0.00  0.00    +0.000 NA
ENDBRANCH   9  14
BRANCH   1  20
ATOM     20  C   UNL     1      -0.094  11.933  21.458  0.00  0.00    +0.000 C 
BRANCH  20  26
ATOM     21  C   UNL     1      -0.801  13.867  22.905  0.00  0.00    +0.000 A 
ATOM     22  C   UNL     1      -1.677  14.518  23.775  0.00  0.00    +0.000 A 
ATOM     23  C   UNL     1      -2.862  13.900  24.158  0.00  0.00    +0.000 A 
ATOM     24  C   UNL     1      -3.196  12.631  23.656  0.00  0.00    +0.000 A 
ATOM     25  C   UNL     1      -2.319  11.984  22.765  0.00  0.00    +0.000 A 
ATOM     26  C   UNL     1      -1.096  12.572  22.409  0.00  0.00    +0.000 A 
BRANCH  21  28
ATOM     27  C   UNL     1       0.588  15.601  22.069  0.00  0.00    +0.000 C 
ATOM     28  O   UNL     1       0.471  14.363  22.764  0.00  0.00    +0.000 OA
ENDBRANCH  21  28
ENDBRANCH  20  26
ENDBRANCH   1  20
TORSDOF 4
ENDMDL
MODEL 6
REMARK VINA RESULT:      -7.9      1.192      1.257
REMARK  Name = 
REMARK  5 active torsions:
REMARK  status: ('A' for Active; 'I' for Inactive)
REMARK    1  A    between atoms: C_1  and  O_2
REMARK    2  A    between atoms: O_2  and  C_3
REMARK    3  A    between atoms: C_8  and  C_9
REMARK    4  A    between atoms: C_9  and  N_10
REMARK    5  A    between atoms: C_18  and  C_20
REMARK                            x       y       z     vdW  Elec       q    Type
REMARK                         _______ _______ _______ _____ _____    ______ ____
ROOT
ATOM      1  N   UNL     1       4.186   3.575  19.038  0.00  0.00    +0.000 NA
ATOM      2  C   UNL     1       3.058   2.743  18.625  0.00  0.00    +0.000 C 
ATOM      3  C   UNL     1       1.754   3.447  18.257  0.00  0.00    +0.000 C 
ATOM      4  C   UNL     1       1.438   4.782  18.927  0.00  0.00    +0.000 C 
ATOM      5  C   UNL     1       2.607   5.640  19.474  0.00  0.00    +0.000 C 
ATOM      6  C   UNL     1       3.248   6.700  18.539  0.00  0.00    +0.000 C 
ATOM      7  C   UNL     1       2.286   7.713  17.959  0.00  0.00    +0.000 C 
ATOM      8  N   UNL     1       1.659   8.474  19.019  0.00  0.00    +0.000 N 
ATOM      9  C   UNL     1       1.387   9.822  18.713  0.00  0.00    +0.000 C 
ATOM     10  O   UNL     1       1.666  10.296  17.607  0.00  0.00    +0.000 OA
ATOM     11  C   UNL     1       1.032   7.652  20.066  0.00  0.00    +0.000 C 
ATOM     12  C   UNL     1       1.981   6.540  20.613  0.00  0.00    +0.000 C 
ATOM     13  C   UNL     1       3.738   4.663  19.967  0.00  0.00    +0.000 C 
ENDROOT
BRANCH   9  14
ATOM     14  C   UNL     1       0.793  10.766  19.693  0.00  0.00    +0.000 A 
ATOM     15  C   UNL     1       1.635  11.711  20.280  0.00  0.00    +0.000 A 
ATOM     16  N   UNL     1       1.219  12.571  21.243  0.00  0.00    +0.000 NA
ATOM     17  C   UNL     1      -0.078  12.444  21.601  0.00  0.00    +0.000 A 
ATOM     18  C   UNL     1      -0.909  11.483  21.043  0.00  0.00    +0.000 A 
ATOM     19  N   UNL     1      -0.501  10.626  20.079  0.00  0.00    +0.000 NA
ENDBRANCH   9  14
BRANCH   1  20
ATOM     20  C   UNL     1       4.971   4.084  17.899  0.00  0.00    +0.000 C 
BRANCH  20  26
ATOM     21  C   UNL     1       6.290   6.047  17.040  0.00  0.00    +0.000 A 
ATOM     22  C   UNL     1       7.289   7.016  17.138  0.00  0.00    +0.000 A 
ATOM     23  C   UNL     1       8.095   7.070  18.270  0.00  0.00    +0.000 A 
ATOM     24  C   UNL     1       7.894   6.169  19.328  0.00  0.00    +0.000 A 
ATOM     25  C   UNL     1       6.875   5.204  19.234  0.00  0.00    +0.000 A 
ATOM     26  C   UNL     1       6.086   5.103  18.078  0.00  0.00    +0.000 A 
BRANCH  21  28
ATOM     27  C   UNL     1       6.494   5.150  14.852  0.00  0.00    +0.000 C 
ATOM     28  O   UNL     1       5.702   5.834  15.817  0.00  0.00    +0.000 OA
ENDBRANCH  21  28
ENDBRANCH  20  26
ENDBRANCH   1  20
TORSDOF 4
ENDMDL
MODEL 7
REMARK VINA RESULT:      -7.7      2.578      8.982
REMARK  Name = 
REMARK  5 active torsions:
REMARK  status: ('A' for Active; 'I' for Inactive)
REMARK    1  A    between atoms: C_1  and  O_2
REMARK    2  A    between atoms: O_2  and  C_3
REMARK    3  A    between atoms: C_8  and  C_9
REMARK    4  A    between atoms: C_9  and  N_10
REMARK    5  A    between atoms: C_18  and  C_20
REMARK                            x       y       z     vdW  Elec       q    Type
REMARK                         _______ _______ _______ _____ _____    ______ ____
ROOT
ATOM      1  N   UNL     1       0.271  12.623  19.393  0.00  0.00    +0.000 NA
ATOM      2  C   UNL     1      -0.991  12.424  18.683  0.00  0.00    +0.000 C 
ATOM      3  C   UNL     1      -1.374  10.996  18.303  0.00  0.00    +0.000 C 
ATOM      4  C   UNL     1      -0.255   9.990  18.047  0.00  0.00    +0.000 C 
ATOM      5  C   UNL     1       1.131  10.230  18.699  0.00  0.00    +0.000 C 
ATOM      6  C   UNL     1       1.412   9.606  20.092  0.00  0.00    +0.000 C 
ATOM      7  C   UNL     1       1.218   8.109  20.178  0.00  0.00    +0.000 C 
ATOM      8  N   UNL     1       2.122   7.433  19.272  0.00  0.00    +0.000 N 
ATOM      9  C   UNL     1       2.610   6.190  19.722  0.00  0.00    +0.000 C 
ATOM     10  O   UNL     1       2.269   5.727  20.816  0.00  0.00    +0.000 OA
ATOM     11  C   UNL     1       2.066   7.919  17.883  0.00  0.00    +0.000 C 
ATOM     12  C   UNL     1       2.173   9.474  17.782  0.00  0.00    +0.000 C 
ATOM     13  C   UNL     1       1.360  11.784  18.796  0.00  0.00    +0.000 C 
ENDROOT
BRANCH   9  14
ATOM     14  C   UNL     1       3.585   5.380  18.950  0.00  0.00    +0.000 A 
ATOM     15  C   UNL     1       4.938   5.522  19.257  0.00  0.00    +0.000 A 
ATOM     16  N   UNL     1       5.921   4.890  18.565  0.00  0.00    +0.000 NA
ATOM     17  C   UNL     1       5.493   4.112  17.547  0.00  0.00    +0.000 A 
ATOM     18  C   UNL     1       4.150   3.996  17.218  0.00  0.00    +0.000 A 
ATOM     19  N   UNL     1       3.166   4.619  17.906  0.00  0.00    +0.000 NA
ENDBRANCH   9  14
BRANCH   1  20
ATOM     20  C   UNL     1       0.144  12.441  20.850  0.00  0.00    +0.000 C 
BRANCH  20  26
ATOM     21  C   UNL     1      -1.323  11.873  22.814  0.00  0.00    +0.000 A 
ATOM     22  C   UNL     1      -2.523  11.910  23.526  0.00  0.00    +0.000 A 
ATOM     23  C   UNL     1      -3.616  12.597  23.009  0.00  0.00    +0.000 A 
ATOM     24  C   UNL     1      -3.513  13.276  21.784  0.00  0.00    +0.000 A 
ATOM     25  C   UNL     1      -2.297  13.252  21.077  0.00  0.00    +0.000 A 
ATOM     26  C   UNL     1      -1.200  12.521  21.559  0.00  0.00    +0.000 A 
BRANCH  21  28
ATOM     27  C   UNL     1      -0.703   9.595  23.064  0.00  0.00    +0.000 C 
ATOM     28  O   UNL     1      -0.361  10.971  23.198  0.00  0.00    +0.000 OA
ENDBRANCH  21  28
ENDBRANCH  20  26
ENDBRANCH   1  20
TORSDOF 4
ENDMDL
MODEL 8
REMARK VINA RESULT:      -7.6      2.856      9.480
REMARK  Name = 
REMARK  5 active torsions:
REMARK  status: ('A' for Active; 'I' for Inactive)
REMARK    1  A    between atoms: C_1  and  O_2
REMARK    2  A    between atoms: O_2  and  C_3
REMARK    3  A    between atoms: C_8  and  C_9
REMARK    4  A    between atoms: C_9  and  N_10
REMARK    5  A    between atoms: C_18  and  C_20
REMARK                            x       y       z     vdW  Elec       q    Type
REMARK                         _______ _______ _______ _____ _____    ______ ____
ROOT
ATOM      1  N   UNL     1      -0.100  12.748  20.212  0.00  0.00    +0.000 NA
ATOM      2  C   UNL     1      -1.394  12.585  19.552  0.00  0.00    +0.000 C 
ATOM      3  C   UNL     1      -1.708  11.225  18.933  0.00  0.00    +0.000 C 
ATOM      4  C   UNL     1      -0.545  10.373  18.429  0.00  0.00    +0.000 C 
ATOM      5  C   UNL     1       0.864  10.597  19.034  0.00  0.00    +0.000 C 
ATOM      6  C   UNL     1       1.283   9.751  20.267  0.00  0.00    +0.000 C 
ATOM      7  C   UNL     1       1.194   8.254  20.081  0.00  0.00    +0.000 C 
ATOM      8  N   UNL     1       2.075   7.827  19.014  0.00  0.00    +0.000 N 
ATOM      9  C   UNL     1       2.674   6.564  19.195  0.00  0.00    +0.000 C 
ATOM     10  O   UNL     1       2.442   5.884  20.200  0.00  0.00    +0.000 OA
ATOM     11  C   UNL     1       1.889   8.553  17.748  0.00  0.00    +0.000 C 
ATOM     12  C   UNL     1       1.886  10.104  17.934  0.00  0.00    +0.000 C 
ATOM     13  C   UNL     1       0.997  12.119  19.407  0.00  0.00    +0.000 C 
ENDROOT
BRANCH   9  14
ATOM     14  C   UNL     1       3.642   5.987  18.230  0.00  0.00    +0.000 A 
ATOM     15  C   UNL     1       4.651   6.819  17.744  0.00  0.00    +0.000 A 
ATOM     16  N   UNL     1       5.544   6.421  16.801  0.00  0.00    +0.000 NA
ATOM     17  C   UNL     1       5.382   5.154  16.360  0.00  0.00    +0.000 A 
ATOM     18  C   UNL     1       4.358   4.336  16.817  0.00  0.00    +0.000 A 
ATOM     19  N   UNL     1       3.469   4.726  17.760  0.00  0.00    +0.000 NA
ENDBRANCH   9  14
BRANCH   1  20
ATOM     20  C   UNL     1      -0.112  12.293  21.615  0.00  0.00    +0.000 C 
BRANCH  20  26
ATOM     21  C   UNL     1      -1.128  14.005  23.154  0.00  0.00    +0.000 A 
ATOM     22  C   UNL     1      -2.099  14.457  24.049  0.00  0.00    +0.000 A 
ATOM     23  C   UNL     1      -3.167  13.633  24.388  0.00  0.00    +0.000 A 
ATOM     24  C   UNL     1      -3.288  12.355  23.817  0.00  0.00    +0.000 A 
ATOM     25  C   UNL     1      -2.316  11.909  22.902  0.00  0.00    +0.000 A 
ATOM     26  C   UNL     1      -1.206  12.707  22.588  0.00  0.00    +0.000 A 
BRANCH  21  28
ATOM     27  C   UNL     1      -0.046  15.994  22.441  0.00  0.00    +0.000 C 
ATOM     28  O   UNL     1       0.046  14.710  23.051  0.00  0.00    +0.000 OA
ENDBRANCH  21  28
ENDBRANCH  20  26
ENDBRANCH   1  20
TORSDOF 4
ENDMDL
MODEL 9
REMARK VINA RESULT:      -7.5      2.883      9.299
REMARK  Name = 
REMARK  5 active torsions:
REMARK  status: ('A' for Active; 'I' for Inactive)
REMARK    1  A    between atoms: C_1  and  O_2
REMARK    2  A    between atoms: O_2  and  C_3
REMARK    3  A    between atoms: C_8  and  C_9
REMARK    4  A    between atoms: C_9  and  N_10
REMARK    5  A    between atoms: C_18  and  C_20
REMARK                            x       y       z     vdW  Elec       q    Type
REMARK                         _______ _______ _______ _____ _____    ______ ____
ROOT
ATOM      1  N   UNL     1       0.003  12.651  19.584  0.00  0.00    +0.000 NA
ATOM      2  C   UNL     1      -1.232  12.433  18.834  0.00  0.00    +0.000 C 
ATOM      3  C   UNL     1      -1.547  11.009  18.384  0.00  0.00    +0.000 C 
ATOM      4  C   UNL     1      -0.382  10.059  18.115  0.00  0.00    +0.000 C 
ATOM      5  C   UNL     1       0.976  10.325  18.813  0.00  0.00    +0.000 C 
ATOM      6  C   UNL     1       1.247   9.652  20.185  0.00  0.00    +0.000 C 
ATOM      7  C   UNL     1       1.112   8.147  20.202  0.00  0.00    +0.000 C 
ATOM      8  N   UNL     1       2.065   7.546  19.293  0.00  0.00    +0.000 N 
ATOM      9  C   UNL     1       2.591   6.306  19.703  0.00  0.00    +0.000 C 
ATOM     10  O   UNL     1       2.242   5.783  20.767  0.00  0.00    +0.000 OA
ATOM     11  C   UNL     1       2.024   8.091  17.925  0.00  0.00    +0.000 C 
ATOM     12  C   UNL     1       2.070   9.651  17.893  0.00  0.00    +0.000 C 
ATOM     13  C   UNL     1       1.140  11.881  18.982  0.00  0.00    +0.000 C 
ENDROOT
BRANCH   9  14
ATOM     14  C   UNL     1       3.616   5.569  18.923  0.00  0.00    +0.000 A 
ATOM     15  C   UNL     1       3.183   4.789  17.850  0.00  0.00    +0.000 A 
ATOM     16  N   UNL     1       4.022   4.014  17.117  0.00  0.00    +0.000 NA
ATOM     17  C   UNL     1       5.316   4.046  17.505  0.00  0.00    +0.000 A 
ATOM     18  C   UNL     1       5.744   4.793  18.593  0.00  0.00    +0.000 A 
ATOM     19  N   UNL     1       4.913   5.572  19.324  0.00  0.00    +0.000 NA
ENDBRANCH   9  14
BRANCH   1  20
ATOM     20  C   UNL     1      -0.153  12.401  21.029  0.00  0.00    +0.000 C 
BRANCH  20  26
ATOM     21  C   UNL     1      -1.263  13.300  23.100  0.00  0.00    +0.000 A 
ATOM     22  C   UNL     1      -1.504  14.288  24.057  0.00  0.00    +0.000 A 
ATOM     23  C   UNL     1      -0.855  15.515  23.966  0.00  0.00    +0.000 A 
ATOM     24  C   UNL     1       0.062  15.759  22.930  0.00  0.00    +0.000 A 
ATOM     25  C   UNL     1       0.316  14.755  21.977  0.00  0.00    +0.000 A 
ATOM     26  C   UNL     1      -0.368  13.531  22.025  0.00  0.00    +0.000 A 
BRANCH  21  28
ATOM     27  C   UNL     1      -3.375  12.384  23.677  0.00  0.00    +0.000 C 
ATOM     28  O   UNL     1      -2.108  12.220  23.047  0.00  0.00    +0.000 OA
ENDBRANCH  21  28
ENDBRANCH  20  26
ENDBRANCH   1  20
TORSDOF 4
ENDMDL
