MODEL 1
REMARK VINA RESULT:      -7.9      0.000      0.000
REMARK  Name = 
REMARK  5 active torsions:
REMARK  status: ('A' for Active; 'I' for Inactive)
REMARK    1  A    between atoms: C_1  and  C_2
REMARK    2  A    between atoms: C_5  and  C_6
REMARK    3  A    between atoms: C_6  and  N_7
REMARK    4  A    between atoms: C_10  and  N_11
REMARK    5  A    between atoms: N_11  and  C_12
REMARK                            x       y       z     vdW  Elec       q    Type
REMARK                         _______ _______ _______ _____ _____    ______ ____
ROOT
ATOM      1  N   UNL     1       3.802   4.759  19.664  0.00  0.00    +0.000 NA
ATOM      2  C   UNL     1       2.388   4.459  19.394  0.00  0.00    +0.000 C 
ATOM      3  C   UNL     1       1.874   5.555  18.476  0.00  0.00    +0.000 C 
ATOM      4  C   UNL     1       2.692   6.778  18.862  0.00  0.00    +0.000 C 
ATOM      5  C   UNL     1       4.061   6.118  19.144  0.00  0.00    +0.000 C 
ENDROOT
BRANCH   4   6
ATOM      6  N   UNL     1       2.139   7.463  20.051  0.00  0.00    +0.000 N 
ATOM      7  H   UNL     1       2.801   7.474  20.819  0.00  0.00    +0.000 HD
BRANCH   6   8
ATOM      8  C   UNL     1       1.466   8.699  19.906  0.00  0.00    +0.000 A 
ATOM      9  C   UNL     1       1.316   9.291  18.637  0.00  0.00    +0.000 A 
ATOM     10  C   UNL     1       0.595  10.469  18.445  0.00  0.00    +0.000 A 
ATOM     11  C   UNL     1      -0.015  11.088  19.525  0.00  0.00    +0.000 A 
ATOM     12  C   UNL     1       0.077  10.521  20.803  0.00  0.00    +0.000 A 
ATOM     13  C   UNL     1      -0.553  11.136  21.888  0.00  0.00    +0.000 A 
ATOM     14  N   UNL     1      -0.528  10.671  23.155  0.00  0.00    +0.000 NA
ATOM     15  C   UNL     1       0.147   9.526  23.349  0.00  0.00    +0.000 A 
ATOM     16  C   UNL     1       0.806   8.827  22.344  0.00  0.00    +0.000 A 
ATOM     17  C   UNL     1       0.797   9.318  21.017  0.00  0.00    +0.000 A 
ENDBRANCH   6   8
ENDBRANCH   4   6
BRANCH   1  18
ATOM     18  C   UNL     1       4.721   3.757  19.100  0.00  0.00    +0.000 C 
BRANCH  18  23
ATOM     19  C   UNL     1       7.265   4.834  13.940  0.00  0.00    +0.000 C 
ATOM     20  C   UNL     1       6.602   4.620  15.270  0.00  0.00    +0.000 A 
ATOM     21  C   UNL     1       7.302   4.800  16.468  0.00  0.00    +0.000 A 
ATOM     22  C   UNL     1       6.677   4.554  17.699  0.00  0.00    +0.000 A 
ATOM     23  C   UNL     1       5.339   4.130  17.760  0.00  0.00    +0.000 A 
ATOM     24  C   UNL     1       4.649   3.953  16.554  0.00  0.00    +0.000 A 
ATOM     25  C   UNL     1       5.270   4.202  15.325  0.00  0.00    +0.000 A 
ENDBRANCH  18  23
ENDBRANCH   1  18
TORSDOF 4
ENDMDL
MODEL 2
REMARK VINA RESULT:      -7.7      0.597      1.185
REMARK  Name = 
REMARK  5 active torsions:
REMARK  status: ('A' for Active; 'I' for Inactive)
REMARK    1  A    between atoms: C_1  and  C_2
REMARK    2  A    between atoms: C_5  and  C_6
REMARK    3  A    between atoms: C_6  and  N_7
REMARK    4  A    between atoms: C_10  and  N_11
REMARK    5  A    between atoms: N_11  and  C_12
REMARK                            x       y       z     vdW  Elec       q    Type
REMARK                         _______ _______ _______ _____ _____    ______ ____
ROOT
ATOM      1  N   UNL     1       3.814   4.754  19.752  0.00  0.00    +0.000 NA
ATOM      2  C   UNL     1       2.852   4.389  20.803  0.00  0.00    +0.000 C 
ATOM      3  C   UNL     1       1.503   4.943  20.376  0.00  0.00    +0.000 C 
ATOM      4  C   UNL     1       1.850   6.190  19.578  0.00  0.00    +0.000 C 
ATOM      5  C   UNL     1       3.131   5.712  18.857  0.00  0.00    +0.000 C 
ENDROOT
BRANCH   4   6
ATOM      6  N   UNL     1       2.095   7.358  20.452  0.00  0.00    +0.000 N 
ATOM      7  H   UNL     1       3.076   7.442  20.699  0.00  0.00    +0.000 HD
BRANCH   6   8
ATOM      8  C   UNL     1       1.512   8.609  20.141  0.00  0.00    +0.000 A 
ATOM      9  C   UNL     1       1.514   9.095  18.820  0.00  0.00    +0.000 A 
ATOM     10  C   UNL     1       0.884  10.286  18.463  0.00  0.00    +0.000 A 
ATOM     11  C   UNL     1       0.214  11.027  19.424  0.00  0.00    +0.000 A 
ATOM     12  C   UNL     1       0.154  10.569  20.747  0.00  0.00    +0.000 A 
ATOM     13  C   UNL     1      -0.537  11.308  21.711  0.00  0.00    +0.000 A 
ATOM     14  N   UNL     1      -0.657  10.954  23.008  0.00  0.00    +0.000 NA
ATOM     15  C   UNL     1      -0.071   9.798  23.361  0.00  0.00    +0.000 A 
ATOM     16  C   UNL     1       0.637   8.982  22.485  0.00  0.00    +0.000 A 
ATOM     17  C   UNL     1       0.780   9.356  21.127  0.00  0.00    +0.000 A 
ENDBRANCH   6   8
ENDBRANCH   4   6
BRANCH   1  18
ATOM     18  C   UNL     1       4.345   3.588  19.027  0.00  0.00    +0.000 C 
BRANCH  18  23
ATOM     19  C   UNL     1       7.282   5.203  14.229  0.00  0.00    +0.000 C 
ATOM     20  C   UNL     1       6.546   4.728  15.449  0.00  0.00    +0.000 A 
ATOM     21  C   UNL     1       5.267   4.169  15.355  0.00  0.00    +0.000 A 
ATOM     22  C   UNL     1       4.580   3.770  16.510  0.00  0.00    +0.000 A 
ATOM     23  C   UNL     1       5.157   3.917  17.782  0.00  0.00    +0.000 A 
ATOM     24  C   UNL     1       6.437   4.478  17.864  0.00  0.00    +0.000 A 
ATOM     25  C   UNL     1       7.127   4.872  16.711  0.00  0.00    +0.000 A 
ENDBRANCH  18  23
ENDBRANCH   1  18
TORSDOF 4
ENDMDL
MODEL 3
REMARK VINA RESULT:      -7.6      2.429      7.886
REMARK  Name = 
REMARK  5 active torsions:
REMARK  status: ('A' for Active; 'I' for Inactive)
REMARK    1  A    between atoms: C_1  and  C_2
REMARK    2  A    between atoms: C_5  and  C_6
REMARK    3  A    between atoms: C_6  and  N_7
REMARK    4  A    between atoms: C_10  and  N_11
REMARK    5  A    between atoms: N_11  and  C_12
REMARK                            x       y       z     vdW  Elec       q    Type
REMARK                         _______ _______ _______ _____ _____    ______ ____
ROOT
ATOM      1  N   UNL     1      -0.353   9.422  20.447  0.00  0.00    +0.000 NA
ATOM      2  C   UNL     1      -0.277   9.199  21.899  0.00  0.00    +0.000 C 
ATOM      3  C   UNL     1       1.198   9.103  22.252  0.00  0.00    +0.000 C 
ATOM      4  C   UNL     1       1.840   8.513  21.006  0.00  0.00    +0.000 C 
ATOM      5  C   UNL     1       1.006   9.209  19.907  0.00  0.00    +0.000 C 
ENDROOT
BRANCH   4   6
ATOM      6  N   UNL     1       1.716   7.039  20.963  0.00  0.00    +0.000 N 
ATOM      7  H   UNL     1       0.792   6.733  21.247  0.00  0.00    +0.000 HD
BRANCH   6   8
ATOM      8  C   UNL     1       2.197   6.321  19.842  0.00  0.00    +0.000 A 
ATOM      9  C   UNL     1       3.001   6.953  18.875  0.00  0.00    +0.000 A 
ATOM     10  C   UNL     1       3.556   6.262  17.799  0.00  0.00    +0.000 A 
ATOM     11  C   UNL     1       3.332   4.900  17.666  0.00  0.00    +0.000 A 
ATOM     12  C   UNL     1       2.566   4.218  18.620  0.00  0.00    +0.000 A 
ATOM     13  C   UNL     1       2.355   2.843  18.494  0.00  0.00    +0.000 A 
ATOM     14  N   UNL     1       1.638   2.093  19.358  0.00  0.00    +0.000 NA
ATOM     15  C   UNL     1       1.115   2.745  20.410  0.00  0.00    +0.000 A 
ATOM     16  C   UNL     1       1.264   4.108  20.638  0.00  0.00    +0.000 A 
ATOM     17  C   UNL     1       2.002   4.902  19.726  0.00  0.00    +0.000 A 
ENDBRANCH   6   8
ENDBRANCH   4   6
BRANCH   1  18
ATOM     18  C   UNL     1      -0.896  10.745  20.095  0.00  0.00    +0.000 C 
BRANCH  18  23
ATOM     19  C   UNL     1      -3.999  10.637  15.133  0.00  0.00    +0.000 C 
ATOM     20  C   UNL     1      -3.162  10.705  16.378  0.00  0.00    +0.000 A 
ATOM     21  C   UNL     1      -2.011   9.923  16.523  0.00  0.00    +0.000 A 
ATOM     22  C   UNL     1      -1.266   9.969  17.710  0.00  0.00    +0.000 A 
ATOM     23  C   UNL     1      -1.653  10.801  18.775  0.00  0.00    +0.000 A 
ATOM     24  C   UNL     1      -2.807  11.578  18.618  0.00  0.00    +0.000 A 
ATOM     25  C   UNL     1      -3.548  11.537  17.432  0.00  0.00    +0.000 A 
ENDBRANCH  18  23
ENDBRANCH   1  18
TORSDOF 4
ENDMDL
MODEL 4
REMARK VINA RESULT:      -7.6      1.049      1.761
REMARK  Name = 
REMARK  5 active torsions:
REMARK  status: ('A' for Active; 'I' for Inactive)
REMARK    1  A    between atoms: C_1  and  C_2
REMARK    2  A    between atoms: C_5  and  C_6
REMARK    3  A    between atoms: C_6  and  N_7
REMARK    4  A    between atoms: C_10  and  N_11
REMARK    5  A    between atoms: N_11  and  C_12
REMARK                            x       y       z     vdW  Elec       q    Type
REMARK                         _______ _______ _______ _____ _____    ______ ____
ROOT
ATOM      1  N   UNL     1       4.047   4.618  18.198  0.00  0.00    +0.000 NA
ATOM      2  C   UNL     1       4.177   4.098  19.568  0.00  0.00    +0.000 C 
ATOM      3  C   UNL     1       2.796   4.166  20.197  0.00  0.00    +0.000 C 
ATOM      4  C   UNL     1       2.140   5.362  19.524  0.00  0.00    +0.000 C 
ATOM      5  C   UNL     1       2.700   5.217  18.091  0.00  0.00    +0.000 C 
ENDROOT
BRANCH   4   6
ATOM      6  N   UNL     1       2.532   6.640  20.158  0.00  0.00    +0.000 N 
ATOM      7  H   UNL     1       3.530   6.679  20.335  0.00  0.00    +0.000 HD
BRANCH   6   8
ATOM      8  C   UNL     1       2.029   7.863  19.655  0.00  0.00    +0.000 A 
ATOM      9  C   UNL     1       2.217   8.217  18.305  0.00  0.00    +0.000 A 
ATOM     10  C   UNL     1       1.672   9.376  17.755  0.00  0.00    +0.000 A 
ATOM     11  C   UNL     1       0.903  10.217  18.544  0.00  0.00    +0.000 A 
ATOM     12  C   UNL     1       0.659   9.893  19.885  0.00  0.00    +0.000 A 
ATOM     13  C   UNL     1      -0.131  10.733  20.674  0.00  0.00    +0.000 A 
ATOM     14  N   UNL     1      -0.429  10.510  21.972  0.00  0.00    +0.000 NA
ATOM     15  C   UNL     1       0.074   9.386  22.508  0.00  0.00    +0.000 A 
ATOM     16  C   UNL     1       0.867   8.477  21.816  0.00  0.00    +0.000 A 
ATOM     17  C   UNL     1       1.195   8.714  20.459  0.00  0.00    +0.000 A 
ENDBRANCH   6   8
ENDBRANCH   4   6
BRANCH   1  18
ATOM     18  C   UNL     1       4.290   3.594  17.168  0.00  0.00    +0.000 C 
BRANCH  18  23
ATOM     19  C   UNL     1       8.033   5.323  13.014  0.00  0.00    +0.000 C 
ATOM     20  C   UNL     1       7.105   4.823  14.084  0.00  0.00    +0.000 A 
ATOM     21  C   UNL     1       6.035   3.976  13.779  0.00  0.00    +0.000 A 
ATOM     22  C   UNL     1       5.154   3.554  14.786  0.00  0.00    +0.000 A 
ATOM     23  C   UNL     1       5.326   3.967  16.118  0.00  0.00    +0.000 A 
ATOM     24  C   UNL     1       6.401   4.817  16.410  0.00  0.00    +0.000 A 
ATOM     25  C   UNL     1       7.283   5.234  15.408  0.00  0.00    +0.000 A 
ENDBRANCH  18  23
ENDBRANCH   1  18
TORSDOF 4
ENDMDL
MODEL 5
REMARK VINA RESULT:      -7.4      1.069      1.546
REMARK  Name = 
REMARK  5 active torsions:
REMARK  status: ('A' for Active; 'I' for Inactive)
REMARK    1  A    between atoms: C_1  and  C_2
REMARK    2  A    between atoms: C_5  and  C_6
REMARK    3  A    between atoms: C_6  and  N_7
REMARK    4  A    between atoms: C_10  and  N_11
REMARK    5  A    between atoms: N_11  and  C_12
REMARK                            x       y       z     vdW  Elec       q    Type
REMARK                         _______ _______ _______ _____ _____    ______ ____
ROOT
ATOM      1  N   UNL     1       4.032   4.651  18.128  0.00  0.00    +0.000 NA
ATOM      2  C   UNL     1       4.193   4.077  19.473  0.00  0.00    +0.000 C 
ATOM      3  C   UNL     1       2.819   4.092  20.123  0.00  0.00    +0.000 C 
ATOM      4  C   UNL     1       2.131   5.301  19.511  0.00  0.00    +0.000 C 
ATOM      5  C   UNL     1       2.672   5.227  18.065  0.00  0.00    +0.000 C 
ENDROOT
BRANCH   4   6
ATOM      6  N   UNL     1       2.508   6.559  20.192  0.00  0.00    +0.000 N 
ATOM      7  H   UNL     1       3.501   6.590  20.399  0.00  0.00    +0.000 HD
BRANCH   6   8
ATOM      8  C   UNL     1       2.022   7.798  19.711  0.00  0.00    +0.000 A 
ATOM      9  C   UNL     1       2.076   8.107  18.339  0.00  0.00    +0.000 A 
ATOM     10  C   UNL     1       1.539   9.283  17.818  0.00  0.00    +0.000 A 
ATOM     11  C   UNL     1       0.913  10.188  18.662  0.00  0.00    +0.000 A 
ATOM     12  C   UNL     1       0.804   9.911  20.031  0.00  0.00    +0.000 A 
ATOM     13  C   UNL     1       0.158  10.816  20.877  0.00  0.00    +0.000 A 
ATOM     14  N   UNL     1      -0.003  10.643  22.207  0.00  0.00    +0.000 NA
ATOM     15  C   UNL     1       0.493   9.504  22.717  0.00  0.00    +0.000 A 
ATOM     16  C   UNL     1       1.149   8.532  21.969  0.00  0.00    +0.000 A 
ATOM     17  C   UNL     1       1.335   8.716  20.578  0.00  0.00    +0.000 A 
ENDBRANCH   6   8
ENDBRANCH   4   6
BRANCH   1  18
ATOM     18  C   UNL     1       4.279   3.676  17.053  0.00  0.00    +0.000 C 
BRANCH  18  23
ATOM     19  C   UNL     1       8.122   5.269  12.936  0.00  0.00    +0.000 C 
ATOM     20  C   UNL     1       7.103   4.913  13.979  0.00  0.00    +0.000 A 
ATOM     21  C   UNL     1       7.150   5.471  15.261  0.00  0.00    +0.000 A 
ATOM     22  C   UNL     1       6.213   5.095  16.235  0.00  0.00    +0.000 A 
ATOM     23  C   UNL     1       5.208   4.156  15.947  0.00  0.00    +0.000 A 
ATOM     24  C   UNL     1       5.172   3.604  14.660  0.00  0.00    +0.000 A 
ATOM     25  C   UNL     1       6.102   3.983  13.687  0.00  0.00    +0.000 A 
ENDBRANCH  18  23
ENDBRANCH   1  18
TORSDOF 4
ENDMDL
MODEL 6
REMARK VINA RESULT:      -7.1      1.284      2.531
REMARK  Name = 
REMARK  5 active torsions:
REMARK  status: ('A' for Active; 'I' for Inactive)
REMARK    1  A    between atoms: C_1  and  C_2
REMARK    2  A    between atoms: C_5  and  C_6
REMARK    3  A    between atoms: C_6  and  N_7
REMARK    4  A    between atoms: C_10  and  N_11
REMARK    5  A    between atoms: N_11  and  C_12
REMARK                            x       y       z     vdW  Elec       q    Type
REMARK                         _______ _______ _______ _____ _____    ______ ____
ROOT
ATOM      1  N   UNL     1       3.541   4.941  20.121  0.00  0.00    +0.000 NA
ATOM      2  C   UNL     1       2.476   4.694  21.105  0.00  0.00    +0.000 C 
ATOM      3  C   UNL     1       1.246   5.442  20.619  0.00  0.00    +0.000 C 
ATOM      4  C   UNL     1       1.811   6.645  19.879  0.00  0.00    +0.000 C 
ATOM      5  C   UNL     1       3.053   6.005  19.218  0.00  0.00    +0.000 C 
ENDROOT
BRANCH   4   6
ATOM      6  N   UNL     1       2.165   7.747  20.800  0.00  0.00    +0.000 N 
ATOM      7  H   UNL     1       3.013   8.221  20.508  0.00  0.00    +0.000 HD
BRANCH   6   8
ATOM      8  C   UNL     1       1.168   8.652  21.237  0.00  0.00    +0.000 A 
ATOM      9  C   UNL     1       0.852   8.767  22.604  0.00  0.00    +0.000 A 
ATOM     10  C   UNL     1      -0.068   9.699  23.080  0.00  0.00    +0.000 A 
ATOM     11  C   UNL     1      -0.696  10.562  22.196  0.00  0.00    +0.000 A 
ATOM     12  C   UNL     1      -0.391  10.510  20.829  0.00  0.00    +0.000 A 
ATOM     13  C   UNL     1      -1.011  11.393  19.941  0.00  0.00    +0.000 A 
ATOM     14  N   UNL     1      -0.785  11.427  18.610  0.00  0.00    +0.000 NA
ATOM     15  C   UNL     1       0.115  10.547  18.142  0.00  0.00    +0.000 A 
ATOM     16  C   UNL     1       0.794   9.628  18.934  0.00  0.00    +0.000 A 
ATOM     17  C   UNL     1       0.550   9.577  20.327  0.00  0.00    +0.000 A 
ENDBRANCH   6   8
ENDBRANCH   4   6
BRANCH   1  18
ATOM     18  C   UNL     1       3.946   3.728  19.392  0.00  0.00    +0.000 C 
BRANCH  18  23
ATOM     19  C   UNL     1       7.155   5.010  14.668  0.00  0.00    +0.000 C 
ATOM     20  C   UNL     1       6.349   4.619  15.873  0.00  0.00    +0.000 A 
ATOM     21  C   UNL     1       5.066   4.077  15.745  0.00  0.00    +0.000 A 
ATOM     22  C   UNL     1       4.313   3.758  16.884  0.00  0.00    +0.000 A 
ATOM     23  C   UNL     1       4.827   3.970  18.175  0.00  0.00    +0.000 A 
ATOM     24  C   UNL     1       6.112   4.514  18.290  0.00  0.00    +0.000 A 
ATOM     25  C   UNL     1       6.867   4.828  17.154  0.00  0.00    +0.000 A 
ENDBRANCH  18  23
ENDBRANCH   1  18
TORSDOF 4
ENDMDL
MODEL 7
REMARK VINA RESULT:      -7.1      2.654      8.538
REMARK  Name = 
REMARK  5 active torsions:
REMARK  status: ('A' for Active; 'I' for Inactive)
REMARK    1  A    between atoms: C_1  and  C_2
REMARK    2  A    between atoms: C_5  and  C_6
REMARK    3  A    between atoms: C_6  and  N_7
REMARK    4  A    between atoms: C_10  and  N_11
REMARK    5  A    between atoms: N_11  and  C_12
REMARK                            x       y       z     vdW  Elec       q    Type
REMARK                         _______ _______ _______ _____ _____    ______ ____
ROOT
ATOM      1  N   UNL     1      -0.194   9.671  20.012  0.00  0.00    +0.000 NA
ATOM      2  C   UNL     1      -0.244   9.432  21.462  0.00  0.00    +0.000 C 
ATOM      3  C   UNL     1       1.186   9.197  21.919  0.00  0.00    +0.000 C 
ATOM      4  C   UNL     1       1.860   8.558  20.715  0.00  0.00    +0.000 C 
ATOM      5  C   UNL     1       1.176   9.336  19.568  0.00  0.00    +0.000 C 
ENDROOT
BRANCH   4   6
ATOM      6  N   UNL     1       1.603   7.103  20.642  0.00  0.00    +0.000 N 
ATOM      7  H   UNL     1       0.620   6.889  20.770  0.00  0.00    +0.000 HD
BRANCH   6   8
ATOM      8  C   UNL     1       2.190   6.331  19.611  0.00  0.00    +0.000 A 
ATOM      9  C   UNL     1       3.107   6.910  18.713  0.00  0.00    +0.000 A 
ATOM     10  C   UNL     1       3.762   6.166  17.734  0.00  0.00    +0.000 A 
ATOM     11  C   UNL     1       3.529   4.803  17.632  0.00  0.00    +0.000 A 
ATOM     12  C   UNL     1       2.651   4.173  18.523  0.00  0.00    +0.000 A 
ATOM     13  C   UNL     1       2.429   2.797  18.430  0.00  0.00    +0.000 A 
ATOM     14  N   UNL     1       1.608   2.095  19.240  0.00  0.00    +0.000 NA
ATOM     15  C   UNL     1       0.986   2.798  20.201  0.00  0.00    +0.000 A 
ATOM     16  C   UNL     1       1.135   4.167  20.389  0.00  0.00    +0.000 A 
ATOM     17  C   UNL     1       1.983   4.911  19.533  0.00  0.00    +0.000 A 
ENDBRANCH   6   8
ENDBRANCH   4   6
BRANCH   1  18
ATOM     18  C   UNL     1      -0.586  11.041  19.640  0.00  0.00    +0.000 C 
BRANCH  18  23
ATOM     19  C   UNL     1      -5.953  11.930  17.482  0.00  0.00    +0.000 C 
ATOM     20  C   UNL     1      -4.602  11.663  18.080  0.00  0.00    +0.000 A 
ATOM     21  C   UNL     1      -4.164  12.343  19.221  0.00  0.00    +0.000 A 
ATOM     22  C   UNL     1      -2.882  12.110  19.739  0.00  0.00    +0.000 A 
ATOM     23  C   UNL     1      -2.012  11.188  19.130  0.00  0.00    +0.000 A 
ATOM     24  C   UNL     1      -2.462  10.514  17.988  0.00  0.00    +0.000 A 
ATOM     25  C   UNL     1      -3.743  10.743  17.474  0.00  0.00    +0.000 A 
ENDBRANCH  18  23
ENDBRANCH   1  18
TORSDOF 4
ENDMDL
MODEL 8
REMARK VINA RESULT:      -7.1      3.968      5.847
REMARK  Name = 
REMARK  5 active torsions:
REMARK  status: ('A' for Active; 'I' for Inactive)
REMARK    1  A    between atoms: C_1  and  C_2
REMARK    2  A    between atoms: C_5  and  C_6
REMARK    3  A    between atoms: C_6  and  N_7
REMARK    4  A    between atoms: C_10  and  N_11
REMARK    5  A    between atoms: N_11  and  C_12
REMARK                            x       y       z     vdW  Elec       q    Type
REMARK                         _______ _______ _______ _____ _____    ______ ____
ROOT
ATOM      1  N   UNL     1       6.833   5.939  16.612  0.00  0.00    +0.000 NA
ATOM      2  C   UNL     1       7.475   6.956  17.457  0.00  0.00    +0.000 C 
ATOM      3  C   UNL     1       7.848   6.272  18.762  0.00  0.00    +0.000 C 
ATOM      4  C   UNL     1       6.785   5.200  18.937  0.00  0.00    +0.000 C 
ATOM      5  C   UNL     1       6.593   4.757  17.468  0.00  0.00    +0.000 C 
ENDROOT
BRANCH   4   6
ATOM      6  N   UNL     1       5.543   5.741  19.531  0.00  0.00    +0.000 N 
ATOM      7  H   UNL     1       5.621   6.734  19.723  0.00  0.00    +0.000 HD
BRANCH   6   8
ATOM      8  C   UNL     1       4.286   5.399  18.978  0.00  0.00    +0.000 A 
ATOM      9  C   UNL     1       3.510   6.363  18.306  0.00  0.00    +0.000 A 
ATOM     10  C   UNL     1       2.304   6.046  17.683  0.00  0.00    +0.000 A 
ATOM     11  C   UNL     1       1.840   4.740  17.702  0.00  0.00    +0.000 A 
ATOM     12  C   UNL     1       2.592   3.737  18.328  0.00  0.00    +0.000 A 
ATOM     13  C   UNL     1       2.132   2.418  18.331  0.00  0.00    +0.000 A 
ATOM     14  N   UNL     1       2.780   1.380  18.902  0.00  0.00    +0.000 NA
ATOM     15  C   UNL     1       3.954   1.669  19.488  0.00  0.00    +0.000 A 
ATOM     16  C   UNL     1       4.509   2.943  19.541  0.00  0.00    +0.000 A 
ATOM     17  C   UNL     1       3.826   4.037  18.958  0.00  0.00    +0.000 A 
ENDBRANCH   6   8
ENDBRANCH   4   6
BRANCH   1  18
ATOM     18  C   UNL     1       7.617   5.610  15.409  0.00  0.00    +0.000 C 
BRANCH  18  23
ATOM     19  C   UNL     1       4.799   2.623  11.238  0.00  0.00    +0.000 C 
ATOM     20  C   UNL     1       5.505   3.444  12.279  0.00  0.00    +0.000 A 
ATOM     21  C   UNL     1       6.793   3.944  12.060  0.00  0.00    +0.000 A 
ATOM     22  C   UNL     1       7.452   4.673  13.060  0.00  0.00    +0.000 A 
ATOM     23  C   UNL     1       6.836   4.921  14.299  0.00  0.00    +0.000 A 
ATOM     24  C   UNL     1       5.548   4.415  14.507  0.00  0.00    +0.000 A 
ATOM     25  C   UNL     1       4.887   3.692  13.507  0.00  0.00    +0.000 A 
ENDBRANCH  18  23
ENDBRANCH   1  18
TORSDOF 4
ENDMDL
MODEL 9
REMARK VINA RESULT:      -7.1      2.276      9.104
REMARK  Name = 
REMARK  5 active torsions:
REMARK  status: ('A' for Active; 'I' for Inactive)
REMARK    1  A    between atoms: C_1  and  C_2
REMARK    2  A    between atoms: C_5  and  C_6
REMARK    3  A    between atoms: C_6  and  N_7
REMARK    4  A    between atoms: C_10  and  N_11
REMARK    5  A    between atoms: N_11  and  C_12
REMARK                            x       y       z     vdW  Elec       q    Type
REMARK                         _______ _______ _______ _____ _____    ______ ____
ROOT
ATOM      1  N   UNL     1       0.145  10.975  19.889  0.00  0.00    +0.000 NA
ATOM      2  C   UNL     1       1.462  11.449  19.439  0.00  0.00    +0.000 C 
ATOM      3  C   UNL     1       1.818  10.647  18.199  0.00  0.00    +0.000 C 
ATOM      4  C   UNL     1       1.142   9.303  18.418  0.00  0.00    +0.000 C 
ATOM      5  C   UNL     1      -0.165   9.759  19.107  0.00  0.00    +0.000 C 
ENDROOT
BRANCH   4   6
ATOM      6  N   UNL     1       1.950   8.408  19.275  0.00  0.00    +0.000 N 
ATOM      7  H   UNL     1       1.457   8.157  20.125  0.00  0.00    +0.000 HD
BRANCH   6   8
ATOM      8  C   UNL     1       2.630   7.306  18.705  0.00  0.00    +0.000 A 
ATOM      9  C   UNL     1       3.486   7.483  17.601  0.00  0.00    +0.000 A 
ATOM     10  C   UNL     1       4.231   6.436  17.061  0.00  0.00    +0.000 A 
ATOM     11  C   UNL     1       4.151   5.171  17.622  0.00  0.00    +0.000 A 
ATOM     12  C   UNL     1       3.339   4.951  18.742  0.00  0.00    +0.000 A 
ATOM     13  C   UNL     1       3.272   3.679  19.318  0.00  0.00    +0.000 A 
ATOM     14  N   UNL     1       2.526   3.363  20.397  0.00  0.00    +0.000 NA
ATOM     15  C   UNL     1       1.819   4.368  20.940  0.00  0.00    +0.000 A 
ATOM     16  C   UNL     1       1.814   5.671  20.454  0.00  0.00    +0.000 A 
ATOM     17  C   UNL     1       2.582   6.005  19.313  0.00  0.00    +0.000 A 
ENDBRANCH   6   8
ENDBRANCH   4   6
BRANCH   1  18
ATOM     18  C   UNL     1      -0.907  12.000  19.773  0.00  0.00    +0.000 C 
BRANCH  18  23
ATOM     19  C   UNL     1      -4.312  12.516  24.505  0.00  0.00    +0.000 C 
ATOM     20  C   UNL     1      -3.419  12.444  23.300  0.00  0.00    +0.000 A 
ATOM     21  C   UNL     1      -3.825  12.956  22.063  0.00  0.00    +0.000 A 
ATOM     22  C   UNL     1      -2.993  12.842  20.940  0.00  0.00    +0.000 A 
ATOM     23  C   UNL     1      -1.738  12.217  21.029  0.00  0.00    +0.000 A 
ATOM     24  C   UNL     1      -1.343  11.707  22.273  0.00  0.00    +0.000 A 
ATOM     25  C   UNL     1      -2.170  11.826  23.395  0.00  0.00    +0.000 A 
ENDBRANCH  18  23
ENDBRANCH   1  18
TORSDOF 4
ENDMDL
