MODEL 1
REMARK VINA RESULT:      -6.7      0.000      0.000
REMARK  Name = 
REMARK  9 active torsions:
REMARK  status: ('A' for Active; 'I' for Inactive)
REMARK    1  A    between atoms: C_2  and  C_3
REMARK    2  A    between atoms: C_3  and  C_5
REMARK    3  A    between atoms: C_5  and  C_6
REMARK    4  A    between atoms: C_6  and  C_7
REMARK    5  A    between atoms: C_12  and  O_14
REMARK    6  A    between atoms: O_14  and  C_15
REMARK    7  A    between atoms: C_15  and  C_16
REMARK    8  A    between atoms: C_15  and  C_17
REMARK    9  A    between atoms: C_15  and  C_18
REMARK                            x       y       z     vdW  Elec       q    Type
REMARK                         _______ _______ _______ _____ _____    ______ ____
ROOT
ATOM      1  C   UNL     1       5.632   6.355  17.274  0.00  0.00    +0.000 C 
ATOM      2  C   UNL     1       7.099   5.983  17.549  0.00  0.00    +0.000 C 
ATOM      3  C   UNL     1       7.129   5.734  19.051  0.00  0.00    +0.000 C 
ATOM      4  C   UNL     1       5.743   5.184  19.359  0.00  0.00    +0.000 C 
ATOM      5  N   UNL     1       4.947   5.433  18.170  0.00  0.00    +0.000 N 
ATOM      6  C   UNL     1       3.586   5.326  18.293  0.00  0.00    +0.000 C 
ATOM      7  O   UNL     1       2.791   6.224  18.061  0.00  0.00    +0.000 OA
ENDROOT
BRANCH   1   8
ATOM      8  C   UNL     1       5.315   6.170  15.778  0.00  0.00    +0.000 C 
BRANCH   8   9
ATOM      9  C   UNL     1       5.558   4.756  15.253  0.00  0.00    +0.000 C 
BRANCH   9  10
ATOM     10  C   UNL     1       6.593   4.690  14.155  0.00  0.00    +0.000 C 
ATOM     11  O   UNL     1       7.666   5.279  14.166  0.00  0.00    +0.000 OA
BRANCH  10  13
ATOM     12  C   UNL     1       5.985   3.083  12.132  0.00  0.00    +0.000 C 
ATOM     13  C   UNL     1       6.254   3.826  13.041  0.00  0.00    +0.000 C 
ENDBRANCH  10  13
ENDBRANCH   9  10
ENDBRANCH   8   9
ENDBRANCH   1   8
BRANCH   6  14
ATOM     14  O   UNL     1       3.265   4.046  18.611  0.00  0.00    +0.000 OA
BRANCH  14  15
ATOM     15  C   UNL     1       2.412   3.744  19.740  0.00  0.00    +0.000 C 
ATOM     16  C   UNL     1       1.047   3.185  19.315  0.00  0.00    +0.000 C 
ATOM     17  C   UNL     1       3.156   2.643  20.514  0.00  0.00    +0.000 C 
ATOM     18  C   UNL     1       2.283   4.978  20.630  0.00  0.00    +0.000 C 
ENDBRANCH  14  15
ENDBRANCH   6  14
TORSDOF 6
ENDMDL
MODEL 2
REMARK VINA RESULT:      -6.7      0.939      1.267
REMARK  Name = 
REMARK  9 active torsions:
REMARK  status: ('A' for Active; 'I' for Inactive)
REMARK    1  A    between atoms: C_2  and  C_3
REMARK    2  A    between atoms: C_3  and  C_5
REMARK    3  A    between atoms: C_5  and  C_6
REMARK    4  A    between atoms: C_6  and  C_7
REMARK    5  A    between atoms: C_12  and  O_14
REMARK    6  A    between atoms: O_14  and  C_15
REMARK    7  A    between atoms: C_15  and  C_16
REMARK    8  A    between atoms: C_15  and  C_17
REMARK    9  A    between atoms: C_15  and  C_18
REMARK                            x       y       z     vdW  Elec       q    Type
REMARK                         _______ _______ _______ _____ _____    ______ ____
ROOT
ATOM      1  C   UNL     1       5.875   5.634  17.031  0.00  0.00    +0.000 C 
ATOM      2  C   UNL     1       7.234   4.971  17.310  0.00  0.00    +0.000 C 
ATOM      3  C   UNL     1       7.550   5.392  18.740  0.00  0.00    +0.000 C 
ATOM      4  C   UNL     1       6.184   5.497  19.401  0.00  0.00    +0.000 C 
ATOM      5  N   UNL     1       5.216   5.454  18.318  0.00  0.00    +0.000 N 
ATOM      6  C   UNL     1       3.935   5.848  18.605  0.00  0.00    +0.000 C 
ATOM      7  O   UNL     1       3.345   6.761  18.050  0.00  0.00    +0.000 OA
ENDROOT
BRANCH   1   8
ATOM      8  C   UNL     1       5.186   4.940  15.841  0.00  0.00    +0.000 C 
BRANCH   8   9
ATOM      9  C   UNL     1       6.034   3.865  15.162  0.00  0.00    +0.000 C 
BRANCH   9  10
ATOM     10  C   UNL     1       6.544   4.271  13.801  0.00  0.00    +0.000 C 
ATOM     11  O   UNL     1       7.356   5.163  13.592  0.00  0.00    +0.000 OA
BRANCH  10  13
ATOM     12  C   UNL     1       5.613   2.866  11.750  0.00  0.00    +0.000 C 
ATOM     13  C   UNL     1       6.026   3.494  12.692  0.00  0.00    +0.000 C 
ENDBRANCH  10  13
ENDBRANCH   9  10
ENDBRANCH   8   9
ENDBRANCH   1   8
BRANCH   6  14
ATOM     14  O   UNL     1       3.403   5.002  19.522  0.00  0.00    +0.000 OA
BRANCH  14  15
ATOM     15  C   UNL     1       2.614   3.857  19.120  0.00  0.00    +0.000 C 
ATOM     16  C   UNL     1       3.419   2.550  19.137  0.00  0.00    +0.000 C 
ATOM     17  C   UNL     1       1.506   3.746  20.181  0.00  0.00    +0.000 C 
ATOM     18  C   UNL     1       1.974   4.128  17.759  0.00  0.00    +0.000 C 
ENDBRANCH  14  15
ENDBRANCH   6  14
TORSDOF 6
ENDMDL
MODEL 3
REMARK VINA RESULT:      -6.7      1.234      1.373
REMARK  Name = 
REMARK  9 active torsions:
REMARK  status: ('A' for Active; 'I' for Inactive)
REMARK    1  A    between atoms: C_2  and  C_3
REMARK    2  A    between atoms: C_3  and  C_5
REMARK    3  A    between atoms: C_5  and  C_6
REMARK    4  A    between atoms: C_6  and  C_7
REMARK    5  A    between atoms: C_12  and  O_14
REMARK    6  A    between atoms: O_14  and  C_15
REMARK    7  A    between atoms: C_15  and  C_16
REMARK    8  A    between atoms: C_15  and  C_17
REMARK    9  A    between atoms: C_15  and  C_18
REMARK                            x       y       z     vdW  Elec       q    Type
REMARK                         _______ _______ _______ _____ _____    ______ ____
ROOT
ATOM      1  C   UNL     1       5.759   6.500  17.358  0.00  0.00    +0.000 C 
ATOM      2  C   UNL     1       7.279   6.273  17.302  0.00  0.00    +0.000 C 
ATOM      3  C   UNL     1       7.665   6.077  18.762  0.00  0.00    +0.000 C 
ATOM      4  C   UNL     1       6.443   5.413  19.379  0.00  0.00    +0.000 C 
ATOM      5  N   UNL     1       5.382   5.549  18.396  0.00  0.00    +0.000 N 
ATOM      6  C   UNL     1       4.099   5.322  18.822  0.00  0.00    +0.000 C 
ATOM      7  O   UNL     1       3.190   6.135  18.763  0.00  0.00    +0.000 OA
ENDROOT
BRANCH   1   8
ATOM      8  C   UNL     1       5.137   6.238  15.974  0.00  0.00    +0.000 C 
BRANCH   8   9
ATOM      9  C   UNL     1       6.104   5.641  14.952  0.00  0.00    +0.000 C 
BRANCH   9  10
ATOM     10  C   UNL     1       5.952   4.149  14.780  0.00  0.00    +0.000 C 
ATOM     11  O   UNL     1       5.856   3.342  15.695  0.00  0.00    +0.000 OA
BRANCH  10  13
ATOM     12  C   UNL     1       5.811   3.327  12.259  0.00  0.00    +0.000 C 
ATOM     13  C   UNL     1       5.890   3.691  13.405  0.00  0.00    +0.000 C 
ENDBRANCH  10  13
ENDBRANCH   9  10
ENDBRANCH   8   9
ENDBRANCH   1   8
BRANCH   6  14
ATOM     14  O   UNL     1       3.982   4.029  19.218  0.00  0.00    +0.000 OA
BRANCH  14  15
ATOM     15  C   UNL     1       2.980   3.155  18.645  0.00  0.00    +0.000 C 
ATOM     16  C   UNL     1       2.690   3.475  17.172  0.00  0.00    +0.000 C 
ATOM     17  C   UNL     1       3.597   1.748  18.713  0.00  0.00    +0.000 C 
ATOM     18  C   UNL     1       1.719   3.188  19.506  0.00  0.00    +0.000 C 
ENDBRANCH  14  15
ENDBRANCH   6  14
TORSDOF 6
ENDMDL
MODEL 4
REMARK VINA RESULT:      -6.5      0.078      1.032
REMARK  Name = 
REMARK  9 active torsions:
REMARK  status: ('A' for Active; 'I' for Inactive)
REMARK    1  A    between atoms: C_2  and  C_3
REMARK    2  A    between atoms: C_3  and  C_5
REMARK    3  A    between atoms: C_5  and  C_6
REMARK    4  A    between atoms: C_6  and  C_7
REMARK    5  A    between atoms: C_12  and  O_14
REMARK    6  A    between atoms: O_14  and  C_15
REMARK    7  A    between atoms: C_15  and  C_16
REMARK    8  A    between atoms: C_15  and  C_17
REMARK    9  A    between atoms: C_15  and  C_18
REMARK                            x       y       z     vdW  Elec       q    Type
REMARK                         _______ _______ _______ _____ _____    ______ ____
ROOT
ATOM      1  C   UNL     1       5.635   6.326  17.319  0.00  0.00    +0.000 C 
ATOM      2  C   UNL     1       7.103   5.972  17.610  0.00  0.00    +0.000 C 
ATOM      3  C   UNL     1       7.117   5.709  19.110  0.00  0.00    +0.000 C 
ATOM      4  C   UNL     1       5.736   5.136  19.394  0.00  0.00    +0.000 C 
ATOM      5  N   UNL     1       4.951   5.386  18.197  0.00  0.00    +0.000 N 
ATOM      6  C   UNL     1       3.590   5.259  18.302  0.00  0.00    +0.000 C 
ATOM      7  O   UNL     1       2.786   6.148  18.068  0.00  0.00    +0.000 OA
ENDROOT
BRANCH   1   8
ATOM      8  C   UNL     1       5.339   6.152  15.818  0.00  0.00    +0.000 C 
BRANCH   8   9
ATOM      9  C   UNL     1       5.561   4.734  15.293  0.00  0.00    +0.000 C 
BRANCH   9  10
ATOM     10  C   UNL     1       6.582   4.654  14.184  0.00  0.00    +0.000 C 
ATOM     11  O   UNL     1       7.669   5.217  14.188  0.00  0.00    +0.000 OA
BRANCH  10  13
ATOM     12  C   UNL     1       5.931   3.115  12.121  0.00  0.00    +0.000 C 
ATOM     13  C   UNL     1       6.211   3.810  13.064  0.00  0.00    +0.000 C 
ENDBRANCH  10  13
ENDBRANCH   9  10
ENDBRANCH   8   9
ENDBRANCH   1   8
BRANCH   6  14
ATOM     14  O   UNL     1       3.284   3.972  18.603  0.00  0.00    +0.000 OA
BRANCH  14  15
ATOM     15  C   UNL     1       2.467   3.642  19.751  0.00  0.00    +0.000 C 
ATOM     16  C   UNL     1       3.138   2.620  20.679  0.00  0.00    +0.000 C 
ATOM     17  C   UNL     1       2.323   4.963  20.526  0.00  0.00    +0.000 C 
ATOM     18  C   UNL     1       1.086   3.186  19.284  0.00  0.00    +0.000 C 
ENDBRANCH  14  15
ENDBRANCH   6  14
TORSDOF 6
ENDMDL
MODEL 5
REMARK VINA RESULT:      -6.5      1.634      2.191
REMARK  Name = 
REMARK  9 active torsions:
REMARK  status: ('A' for Active; 'I' for Inactive)
REMARK    1  A    between atoms: C_2  and  C_3
REMARK    2  A    between atoms: C_3  and  C_5
REMARK    3  A    between atoms: C_5  and  C_6
REMARK    4  A    between atoms: C_6  and  C_7
REMARK    5  A    between atoms: C_12  and  O_14
REMARK    6  A    between atoms: O_14  and  C_15
REMARK    7  A    between atoms: C_15  and  C_16
REMARK    8  A    between atoms: C_15  and  C_17
REMARK    9  A    between atoms: C_15  and  C_18
REMARK                            x       y       z     vdW  Elec       q    Type
REMARK                         _______ _______ _______ _____ _____    ______ ____
ROOT
ATOM      1  C   UNL     1       4.244   5.611  16.953  0.00  0.00    +0.000 C 
ATOM      2  C   UNL     1       4.723   7.021  17.335  0.00  0.00    +0.000 C 
ATOM      3  C   UNL     1       3.430   7.771  17.629  0.00  0.00    +0.000 C 
ATOM      4  C   UNL     1       2.504   6.700  18.186  0.00  0.00    +0.000 C 
ATOM      5  N   UNL     1       3.152   5.431  17.901  0.00  0.00    +0.000 N 
ATOM      6  C   UNL     1       2.388   4.298  18.010  0.00  0.00    +0.000 C 
ATOM      7  O   UNL     1       2.183   3.504  17.105  0.00  0.00    +0.000 OA
ENDROOT
BRANCH   1   8
ATOM      8  C   UNL     1       5.402   4.606  17.093  0.00  0.00    +0.000 C 
BRANCH   8   9
ATOM      9  C   UNL     1       5.645   3.749  15.850  0.00  0.00    +0.000 C 
BRANCH   9  10
ATOM     10  C   UNL     1       6.514   4.421  14.815  0.00  0.00    +0.000 C 
ATOM     11  O   UNL     1       7.316   5.317  15.045  0.00  0.00    +0.000 OA
BRANCH  10  13
ATOM     12  C   UNL     1       6.264   3.512  12.333  0.00  0.00    +0.000 C 
ATOM     13  C   UNL     1       6.373   3.908  13.466  0.00  0.00    +0.000 C 
ENDBRANCH  10  13
ENDBRANCH   9  10
ENDBRANCH   8   9
ENDBRANCH   1   8
BRANCH   6  14
ATOM     14  O   UNL     1       1.988   4.151  19.298  0.00  0.00    +0.000 OA
BRANCH  14  15
ATOM     15  C   UNL     1       2.374   2.995  20.078  0.00  0.00    +0.000 C 
ATOM     16  C   UNL     1       1.979   3.122  21.557  0.00  0.00    +0.000 C 
ATOM     17  C   UNL     1       1.579   1.826  19.474  0.00  0.00    +0.000 C 
ATOM     18  C   UNL     1       3.867   2.730  19.896  0.00  0.00    +0.000 C 
ENDBRANCH  14  15
ENDBRANCH   6  14
TORSDOF 6
ENDMDL
MODEL 6
REMARK VINA RESULT:      -6.5      1.529      1.785
REMARK  Name = 
REMARK  9 active torsions:
REMARK  status: ('A' for Active; 'I' for Inactive)
REMARK    1  A    between atoms: C_2  and  C_3
REMARK    2  A    between atoms: C_3  and  C_5
REMARK    3  A    between atoms: C_5  and  C_6
REMARK    4  A    between atoms: C_6  and  C_7
REMARK    5  A    between atoms: C_12  and  O_14
REMARK    6  A    between atoms: O_14  and  C_15
REMARK    7  A    between atoms: C_15  and  C_16
REMARK    8  A    between atoms: C_15  and  C_17
REMARK    9  A    between atoms: C_15  and  C_18
REMARK                            x       y       z     vdW  Elec       q    Type
REMARK                         _______ _______ _______ _____ _____    ______ ____
ROOT
ATOM      1  C   UNL     1       4.472   5.097  16.334  0.00  0.00    +0.000 C 
ATOM      2  C   UNL     1       5.242   6.391  16.643  0.00  0.00    +0.000 C 
ATOM      3  C   UNL     1       4.267   7.192  17.497  0.00  0.00    +0.000 C 
ATOM      4  C   UNL     1       3.486   6.129  18.256  0.00  0.00    +0.000 C 
ATOM      5  N   UNL     1       3.804   4.868  17.608  0.00  0.00    +0.000 N 
ATOM      6  C   UNL     1       2.995   3.797  17.887  0.00  0.00    +0.000 C 
ATOM      7  O   UNL     1       2.360   3.167  17.056  0.00  0.00    +0.000 OA
ENDROOT
BRANCH   1   8
ATOM      8  C   UNL     1       5.453   3.992  15.901  0.00  0.00    +0.000 C 
BRANCH   8   9
ATOM      9  C   UNL     1       6.876   4.482  15.636  0.00  0.00    +0.000 C 
BRANCH   9  10
ATOM     10  C   UNL     1       7.146   4.792  14.184  0.00  0.00    +0.000 C 
ATOM     11  O   UNL     1       7.931   5.640  13.781  0.00  0.00    +0.000 OA
BRANCH  10  13
ATOM     12  C   UNL     1       5.824   3.313  12.420  0.00  0.00    +0.000 C 
ATOM     13  C   UNL     1       6.418   3.973  13.234  0.00  0.00    +0.000 C 
ENDBRANCH  10  13
ENDBRANCH   9  10
ENDBRANCH   8   9
ENDBRANCH   1   8
BRANCH   6  14
ATOM     14  O   UNL     1       3.094   3.494  19.206  0.00  0.00    +0.000 OA
BRANCH  14  15
ATOM     15  C   UNL     1       1.925   3.157  19.990  0.00  0.00    +0.000 C 
ATOM     16  C   UNL     1       1.158   1.956  19.420  0.00  0.00    +0.000 C 
ATOM     17  C   UNL     1       2.475   2.758  21.370  0.00  0.00    +0.000 C 
ATOM     18  C   UNL     1       1.040   4.392  20.146  0.00  0.00    +0.000 C 
ENDBRANCH  14  15
ENDBRANCH   6  14
TORSDOF 6
ENDMDL
MODEL 7
REMARK VINA RESULT:      -6.4      1.054      1.103
REMARK  Name = 
REMARK  9 active torsions:
REMARK  status: ('A' for Active; 'I' for Inactive)
REMARK    1  A    between atoms: C_2  and  C_3
REMARK    2  A    between atoms: C_3  and  C_5
REMARK    3  A    between atoms: C_5  and  C_6
REMARK    4  A    between atoms: C_6  and  C_7
REMARK    5  A    between atoms: C_12  and  O_14
REMARK    6  A    between atoms: O_14  and  C_15
REMARK    7  A    between atoms: C_15  and  C_16
REMARK    8  A    between atoms: C_15  and  C_17
REMARK    9  A    between atoms: C_15  and  C_18
REMARK                            x       y       z     vdW  Elec       q    Type
REMARK                         _______ _______ _______ _____ _____    ______ ____
ROOT
ATOM      1  C   UNL     1       6.226   5.081  17.128  0.00  0.00    +0.000 C 
ATOM      2  C   UNL     1       7.625   4.589  17.531  0.00  0.00    +0.000 C 
ATOM      3  C   UNL     1       7.912   5.345  18.822  0.00  0.00    +0.000 C 
ATOM      4  C   UNL     1       6.541   5.511  19.462  0.00  0.00    +0.000 C 
ATOM      5  N   UNL     1       5.580   5.158  18.432  0.00  0.00    +0.000 N 
ATOM      6  C   UNL     1       4.275   5.523  18.640  0.00  0.00    +0.000 C 
ATOM      7  O   UNL     1       3.626   6.245  17.899  0.00  0.00    +0.000 OA
ENDROOT
BRANCH   1   8
ATOM      8  C   UNL     1       5.585   4.090  16.138  0.00  0.00    +0.000 C 
BRANCH   8   9
ATOM      9  C   UNL     1       5.348   4.661  14.741  0.00  0.00    +0.000 C 
BRANCH   9  10
ATOM     10  C   UNL     1       6.568   4.611  13.854  0.00  0.00    +0.000 C 
ATOM     11  O   UNL     1       7.574   5.291  14.004  0.00  0.00    +0.000 OA
BRANCH  10  13
ATOM     12  C   UNL     1       6.420   2.839  11.882  0.00  0.00    +0.000 C 
ATOM     13  C   UNL     1       6.505   3.644  12.774  0.00  0.00    +0.000 C 
ENDBRANCH  10  13
ENDBRANCH   9  10
ENDBRANCH   8   9
ENDBRANCH   1   8
BRANCH   6  14
ATOM     14  O   UNL     1       3.799   4.877  19.734  0.00  0.00    +0.000 OA
BRANCH  14  15
ATOM     15  C   UNL     1       2.977   3.692  19.608  0.00  0.00    +0.000 C 
ATOM     16  C   UNL     1       2.201   3.650  18.284  0.00  0.00    +0.000 C 
ATOM     17  C   UNL     1       3.969   2.518  19.614  0.00  0.00    +0.000 C 
ATOM     18  C   UNL     1       2.059   3.575  20.824  0.00  0.00    +0.000 C 
ENDBRANCH  14  15
ENDBRANCH   6  14
TORSDOF 6
ENDMDL
MODEL 8
REMARK VINA RESULT:      -6.3      0.957      1.451
REMARK  Name = 
REMARK  9 active torsions:
REMARK  status: ('A' for Active; 'I' for Inactive)
REMARK    1  A    between atoms: C_2  and  C_3
REMARK    2  A    between atoms: C_3  and  C_5
REMARK    3  A    between atoms: C_5  and  C_6
REMARK    4  A    between atoms: C_6  and  C_7
REMARK    5  A    between atoms: C_12  and  O_14
REMARK    6  A    between atoms: O_14  and  C_15
REMARK    7  A    between atoms: C_15  and  C_16
REMARK    8  A    between atoms: C_15  and  C_17
REMARK    9  A    between atoms: C_15  and  C_18
REMARK                            x       y       z     vdW  Elec       q    Type
REMARK                         _______ _______ _______ _____ _____    ______ ____
ROOT
ATOM      1  C   UNL     1       5.969   4.889  17.069  0.00  0.00    +0.000 C 
ATOM      2  C   UNL     1       7.382   4.953  17.671  0.00  0.00    +0.000 C 
ATOM      3  C   UNL     1       7.163   5.609  19.028  0.00  0.00    +0.000 C 
ATOM      4  C   UNL     1       5.775   5.139  19.442  0.00  0.00    +0.000 C 
ATOM      5  N   UNL     1       5.186   4.552  18.250  0.00  0.00    +0.000 N 
ATOM      6  C   UNL     1       3.832   4.341  18.259  0.00  0.00    +0.000 C 
ATOM      7  O   UNL     1       3.045   4.824  17.460  0.00  0.00    +0.000 OA
ENDROOT
BRANCH   1   8
ATOM      8  C   UNL     1       5.927   3.845  15.937  0.00  0.00    +0.000 C 
BRANCH   8   9
ATOM      9  C   UNL     1       5.391   4.378  14.608  0.00  0.00    +0.000 C 
BRANCH   9  10
ATOM     10  C   UNL     1       6.385   4.281  13.476  0.00  0.00    +0.000 C 
ATOM     11  O   UNL     1       7.422   4.927  13.394  0.00  0.00    +0.000 OA
BRANCH  10  13
ATOM     12  C   UNL     1       5.751   2.521  11.592  0.00  0.00    +0.000 C 
ATOM     13  C   UNL     1       6.055   3.313  12.448  0.00  0.00    +0.000 C 
ENDBRANCH  10  13
ENDBRANCH   9  10
ENDBRANCH   8   9
ENDBRANCH   1   8
BRANCH   6  14
ATOM     14  O   UNL     1       3.527   3.438  19.225  0.00  0.00    +0.000 OA
BRANCH  14  15
ATOM     15  C   UNL     1       2.373   3.614  20.081  0.00  0.00    +0.000 C 
ATOM     16  C   UNL     1       2.534   2.916  21.439  0.00  0.00    +0.000 C 
ATOM     17  C   UNL     1       2.294   5.128  20.332  0.00  0.00    +0.000 C 
ATOM     18  C   UNL     1       1.114   3.165  19.342  0.00  0.00    +0.000 C 
ENDBRANCH  14  15
ENDBRANCH   6  14
TORSDOF 6
ENDMDL
MODEL 9
REMARK VINA RESULT:      -6.3      0.832      1.332
REMARK  Name = 
REMARK  9 active torsions:
REMARK  status: ('A' for Active; 'I' for Inactive)
REMARK    1  A    between atoms: C_2  and  C_3
REMARK    2  A    between atoms: C_3  and  C_5
REMARK    3  A    between atoms: C_5  and  C_6
REMARK    4  A    between atoms: C_6  and  C_7
REMARK    5  A    between atoms: C_12  and  O_14
REMARK    6  A    between atoms: O_14  and  C_15
REMARK    7  A    between atoms: C_15  and  C_16
REMARK    8  A    between atoms: C_15  and  C_17
REMARK    9  A    between atoms: C_15  and  C_18
REMARK                            x       y       z     vdW  Elec       q    Type
REMARK                         _______ _______ _______ _____ _____    ______ ____
ROOT
ATOM      1  C   UNL     1       5.749   6.440  17.215  0.00  0.00    +0.000 C 
ATOM      2  C   UNL     1       7.222   6.082  17.473  0.00  0.00    +0.000 C 
ATOM      3  C   UNL     1       7.265   5.808  18.971  0.00  0.00    +0.000 C 
ATOM      4  C   UNL     1       5.889   5.236  19.280  0.00  0.00    +0.000 C 
ATOM      5  N   UNL     1       5.081   5.495  18.100  0.00  0.00    +0.000 N 
ATOM      6  C   UNL     1       3.722   5.370  18.231  0.00  0.00    +0.000 C 
ATOM      7  O   UNL     1       2.915   6.262  18.019  0.00  0.00    +0.000 OA
ENDROOT
BRANCH   1   8
ATOM      8  C   UNL     1       5.423   6.276  15.719  0.00  0.00    +0.000 C 
BRANCH   8   9
ATOM      9  C   UNL     1       6.464   5.482  14.931  0.00  0.00    +0.000 C 
BRANCH   9  10
ATOM     10  C   UNL     1       6.079   4.039  14.708  0.00  0.00    +0.000 C 
ATOM     11  O   UNL     1       5.842   3.231  15.596  0.00  0.00    +0.000 OA
BRANCH  10  13
ATOM     12  C   UNL     1       5.881   3.277  12.173  0.00  0.00    +0.000 C 
ATOM     13  C   UNL     1       5.965   3.639  13.318  0.00  0.00    +0.000 C 
ENDBRANCH  10  13
ENDBRANCH   9  10
ENDBRANCH   8   9
ENDBRANCH   1   8
BRANCH   6  14
ATOM     14  O   UNL     1       3.419   4.082  18.529  0.00  0.00    +0.000 OA
BRANCH  14  15
ATOM     15  C   UNL     1       2.607   3.748  19.680  0.00  0.00    +0.000 C 
ATOM     16  C   UNL     1       2.370   4.951  20.604  0.00  0.00    +0.000 C 
ATOM     17  C   UNL     1       1.250   3.322  19.097  0.00  0.00    +0.000 C 
ATOM     18  C   UNL     1       3.226   2.562  20.417  0.00  0.00    +0.000 C 
ENDBRANCH  14  15
ENDBRANCH   6  14
TORSDOF 6
ENDMDL
