MODEL 1
REMARK VINA RESULT:      -9.4      0.000      0.000
REMARK  Name = 
REMARK  8 active torsions:
REMARK  status: ('A' for Active; 'I' for Inactive)
REMARK    1  A    between atoms: C_1  and  C_2
REMARK    2  A    between atoms: C_5  and  O_6
REMARK    3  A    between atoms: O_6  and  C_7
REMARK    4  A    between atoms: C_7  and  C_8
REMARK    5  A    between atoms: C_10  and  C_11
REMARK    6  A    between atoms: N_13  and  C_14
REMARK    7  A    between atoms: N_13  and  C_15
REMARK    8  A    between atoms: C_28  and  C_29
REMARK                            x       y       z     vdW  Elec       q    Type
REMARK                         _______ _______ _______ _____ _____    ______ ____
ROOT
ATOM      1  C   UNL     1       8.442   8.576  18.378  0.00  0.00    +0.000 A 
ATOM      2  C   UNL     1       8.185   7.305  18.836  0.00  0.00    +0.000 A 
ATOM      3  C   UNL     1       7.295   6.732  17.877  0.00  0.00    +0.000 A 
ATOM      4  N   UNL     1       7.088   7.605  16.875  0.00  0.00    +0.000 NA
ATOM      5  O   UNL     1       7.816   8.739  17.183  0.00  0.00    +0.000 OA
ENDROOT
BRANCH   3   6
ATOM      6  C   UNL     1       6.581   5.438  18.011  0.00  0.00    +0.000 C 
ATOM      7  O   UNL     1       7.229   4.435  18.320  0.00  0.00    +0.000 OA
ATOM      8  N   UNL     1       5.185   5.365  17.812  0.00  0.00    +0.000 N 
ATOM      9  C   UNL     1       4.444   6.391  17.087  0.00  0.00    +0.000 C 
BRANCH   8  10
ATOM     10  C   UNL     1       4.479   4.125  18.218  0.00  0.00    +0.000 C 
ATOM     11  C   UNL     1       4.135   3.247  16.997  0.00  0.00    +0.000 C 
ATOM     12  C   UNL     1       3.648   1.882  17.472  0.00  0.00    +0.000 C 
ATOM     13  C   UNL     1       2.402   1.986  18.351  0.00  0.00    +0.000 C 
ATOM     14  C   UNL     1       2.257   3.278  19.124  0.00  0.00    +0.000 A 
ATOM     15  C   UNL     1       1.100   3.441  19.905  0.00  0.00    +0.000 A 
ATOM     16  C   UNL     1       0.893   4.608  20.635  0.00  0.00    +0.000 A 
ATOM     17  C   UNL     1       1.856   5.611  20.620  0.00  0.00    +0.000 A 
ATOM     18  C   UNL     1       3.021   5.452  19.864  0.00  0.00    +0.000 A 
ATOM     19  C   UNL     1       3.222   4.311  19.071  0.00  0.00    +0.000 A 
ENDBRANCH   8  10
ENDBRANCH   3   6
BRANCH   1  20
ATOM     20  C   UNL     1       9.066   9.786  18.976  0.00  0.00    +0.000 C 
BRANCH  20  21
ATOM     21  O   UNL     1       9.810  10.503  17.985  0.00  0.00    +0.000 OA
BRANCH  21  26
ATOM     22  C   UNL     1      12.333  15.395  19.524  0.00  0.00    +0.000 C 
ATOM     23  C   UNL     1      11.663  14.113  19.120  0.00  0.00    +0.000 A 
ATOM     24  C   UNL     1      11.628  13.044  20.018  0.00  0.00    +0.000 A 
ATOM     25  C   UNL     1      11.018  11.831  19.681  0.00  0.00    +0.000 A 
ATOM     26  C   UNL     1      10.421  11.658  18.429  0.00  0.00    +0.000 A 
ATOM     27  C   UNL     1      10.440  12.726  17.527  0.00  0.00    +0.000 A 
ATOM     28  C   UNL     1      11.053  13.954  17.856  0.00  0.00    +0.000 A 
ATOM     29  C   UNL     1      11.055  15.077  16.851  0.00  0.00    +0.000 C 
ENDBRANCH  21  26
ENDBRANCH  20  21
ENDBRANCH   1  20
TORSDOF 5
ENDMDL
MODEL 2
REMARK VINA RESULT:      -9.4      1.222      1.494
REMARK  Name = 
REMARK  8 active torsions:
REMARK  status: ('A' for Active; 'I' for Inactive)
REMARK    1  A    between atoms: C_1  and  C_2
REMARK    2  A    between atoms: C_5  and  O_6
REMARK    3  A    between atoms: O_6  and  C_7
REMARK    4  A    between atoms: C_7  and  C_8
REMARK    5  A    between atoms: C_10  and  C_11
REMARK    6  A    between atoms: N_13  and  C_14
REMARK    7  A    between atoms: N_13  and  C_15
REMARK    8  A    between atoms: C_28  and  C_29
REMARK                            x       y       z     vdW  Elec       q    Type
REMARK                         _______ _______ _______ _____ _____    ______ ____
ROOT
ATOM      1  C   UNL     1       8.284   8.592  18.058  0.00  0.00    +0.000 A 
ATOM      2  C   UNL     1       8.160   7.377  18.689  0.00  0.00    +0.000 A 
ATOM      3  C   UNL     1       7.101   6.704  18.007  0.00  0.00    +0.000 A 
ATOM      4  N   UNL     1       6.664   7.465  16.988  0.00  0.00    +0.000 NA
ATOM      5  O   UNL     1       7.414   8.626  17.013  0.00  0.00    +0.000 OA
ENDROOT
BRANCH   3   6
ATOM      6  C   UNL     1       6.463   5.431  18.424  0.00  0.00    +0.000 C 
ATOM      7  O   UNL     1       6.957   4.802  19.364  0.00  0.00    +0.000 OA
ATOM      8  N   UNL     1       5.300   4.965  17.774  0.00  0.00    +0.000 N 
ATOM      9  C   UNL     1       4.902   5.434  16.451  0.00  0.00    +0.000 C 
BRANCH   8  10
ATOM     10  C   UNL     1       4.547   3.845  18.392  0.00  0.00    +0.000 C 
ATOM     11  C   UNL     1       4.176   2.771  17.348  0.00  0.00    +0.000 C 
ATOM     12  C   UNL     1       3.638   1.534  18.058  0.00  0.00    +0.000 C 
ATOM     13  C   UNL     1       2.392   1.841  18.889  0.00  0.00    +0.000 C 
ATOM     14  C   UNL     1       2.291   3.256  19.412  0.00  0.00    +0.000 A 
ATOM     15  C   UNL     1       1.137   3.600  20.137  0.00  0.00    +0.000 A 
ATOM     16  C   UNL     1       0.969   4.888  20.639  0.00  0.00    +0.000 A 
ATOM     17  C   UNL     1       1.969   5.836  20.452  0.00  0.00    +0.000 A 
ATOM     18  C   UNL     1       3.131   5.501  19.751  0.00  0.00    +0.000 A 
ATOM     19  C   UNL     1       3.293   4.228  19.182  0.00  0.00    +0.000 A 
ENDBRANCH   8  10
ENDBRANCH   3   6
BRANCH   1  20
ATOM     20  C   UNL     1       8.992   9.860  18.379  0.00  0.00    +0.000 C 
BRANCH  20  21
ATOM     21  O   UNL     1       9.358   9.887  19.763  0.00  0.00    +0.000 OA
BRANCH  21  26
ATOM     22  C   UNL     1      10.441  15.126  21.774  0.00  0.00    +0.000 C 
ATOM     23  C   UNL     1      10.153  13.753  21.239  0.00  0.00    +0.000 A 
ATOM     24  C   UNL     1       9.218  12.945  21.890  0.00  0.00    +0.000 A 
ATOM     25  C   UNL     1       8.922  11.658  21.428  0.00  0.00    +0.000 A 
ATOM     26  C   UNL     1       9.558  11.145  20.294  0.00  0.00    +0.000 A 
ATOM     27  C   UNL     1      10.486  11.951  19.628  0.00  0.00    +0.000 A 
ATOM     28  C   UNL     1      10.793  13.250  20.085  0.00  0.00    +0.000 A 
ATOM     29  C   UNL     1      11.805  14.081  19.340  0.00  0.00    +0.000 C 
ENDBRANCH  21  26
ENDBRANCH  20  21
ENDBRANCH   1  20
TORSDOF 5
ENDMDL
MODEL 3
REMARK VINA RESULT:      -9.3      1.030      1.226
REMARK  Name = 
REMARK  8 active torsions:
REMARK  status: ('A' for Active; 'I' for Inactive)
REMARK    1  A    between atoms: C_1  and  C_2
REMARK    2  A    between atoms: C_5  and  O_6
REMARK    3  A    between atoms: O_6  and  C_7
REMARK    4  A    between atoms: C_7  and  C_8
REMARK    5  A    between atoms: C_10  and  C_11
REMARK    6  A    between atoms: N_13  and  C_14
REMARK    7  A    between atoms: N_13  and  C_15
REMARK    8  A    between atoms: C_28  and  C_29
REMARK                            x       y       z     vdW  Elec       q    Type
REMARK                         _______ _______ _______ _____ _____    ______ ____
ROOT
ATOM      1  C   UNL     1       8.389   8.467  18.193  0.00  0.00    +0.000 A 
ATOM      2  C   UNL     1       8.213   7.238  18.786  0.00  0.00    +0.000 A 
ATOM      3  C   UNL     1       7.108   6.645  18.101  0.00  0.00    +0.000 A 
ATOM      4  N   UNL     1       6.695   7.462  17.117  0.00  0.00    +0.000 NA
ATOM      5  O   UNL     1       7.504   8.582  17.167  0.00  0.00    +0.000 OA
ENDROOT
BRANCH   3   6
ATOM      6  C   UNL     1       6.412   5.393  18.488  0.00  0.00    +0.000 C 
ATOM      7  O   UNL     1       6.834   4.756  19.457  0.00  0.00    +0.000 OA
ATOM      8  N   UNL     1       5.275   4.955  17.775  0.00  0.00    +0.000 N 
ATOM      9  C   UNL     1       4.966   5.427  16.429  0.00  0.00    +0.000 C 
BRANCH   8  10
ATOM     10  C   UNL     1       4.457   3.861  18.355  0.00  0.00    +0.000 C 
ATOM     11  C   UNL     1       4.043   2.836  17.278  0.00  0.00    +0.000 C 
ATOM     12  C   UNL     1       3.432   1.610  17.949  0.00  0.00    +0.000 C 
ATOM     13  C   UNL     1       2.195   1.961  18.775  0.00  0.00    +0.000 C 
ATOM     14  C   UNL     1       2.162   3.365  19.335  0.00  0.00    +0.000 A 
ATOM     15  C   UNL     1       1.019   3.750  20.057  0.00  0.00    +0.000 A 
ATOM     16  C   UNL     1       0.913   5.031  20.592  0.00  0.00    +0.000 A 
ATOM     17  C   UNL     1       1.963   5.930  20.441  0.00  0.00    +0.000 A 
ATOM     18  C   UNL     1       3.114   5.553  19.744  0.00  0.00    +0.000 A 
ATOM     19  C   UNL     1       3.216   4.288  19.141  0.00  0.00    +0.000 A 
ENDBRANCH   8  10
ENDBRANCH   3   6
BRANCH   1  20
ATOM     20  C   UNL     1       9.168   9.684  18.543  0.00  0.00    +0.000 C 
BRANCH  20  21
ATOM     21  O   UNL     1       8.500  10.856  18.063  0.00  0.00    +0.000 OA
BRANCH  21  26
ATOM     22  C   UNL     1      11.581  15.609  17.300  0.00  0.00    +0.000 C 
ATOM     23  C   UNL     1      10.771  14.362  17.508  0.00  0.00    +0.000 A 
ATOM     24  C   UNL     1      11.390  13.115  17.399  0.00  0.00    +0.000 A 
ATOM     25  C   UNL     1      10.673  11.928  17.581  0.00  0.00    +0.000 A 
ATOM     26  C   UNL     1       9.308  11.961  17.882  0.00  0.00    +0.000 A 
ATOM     27  C   UNL     1       8.681  13.204  18.007  0.00  0.00    +0.000 A 
ATOM     28  C   UNL     1       9.395  14.408  17.824  0.00  0.00    +0.000 A 
ATOM     29  C   UNL     1       8.678  15.726  17.962  0.00  0.00    +0.000 C 
ENDBRANCH  21  26
ENDBRANCH  20  21
ENDBRANCH   1  20
TORSDOF 5
ENDMDL
MODEL 4
REMARK VINA RESULT:      -9.1      1.277      1.818
REMARK  Name = 
REMARK  8 active torsions:
REMARK  status: ('A' for Active; 'I' for Inactive)
REMARK    1  A    between atoms: C_1  and  C_2
REMARK    2  A    between atoms: C_5  and  O_6
REMARK    3  A    between atoms: O_6  and  C_7
REMARK    4  A    between atoms: C_7  and  C_8
REMARK    5  A    between atoms: C_10  and  C_11
REMARK    6  A    between atoms: N_13  and  C_14
REMARK    7  A    between atoms: N_13  and  C_15
REMARK    8  A    between atoms: C_28  and  C_29
REMARK                            x       y       z     vdW  Elec       q    Type
REMARK                         _______ _______ _______ _____ _____    ______ ____
ROOT
ATOM      1  C   UNL     1       8.273   8.337  17.945  0.00  0.00    +0.000 A 
ATOM      2  C   UNL     1       7.780   7.308  18.712  0.00  0.00    +0.000 A 
ATOM      3  C   UNL     1       7.351   6.315  17.778  0.00  0.00    +0.000 A 
ATOM      4  N   UNL     1       7.634   6.719  16.527  0.00  0.00    +0.000 NA
ATOM      5  O   UNL     1       8.221   7.966  16.638  0.00  0.00    +0.000 OA
ENDROOT
BRANCH   3   6
ATOM      6  C   UNL     1       6.582   5.088  18.100  0.00  0.00    +0.000 C 
ATOM      7  O   UNL     1       7.154   4.168  18.689  0.00  0.00    +0.000 OA
ATOM      8  N   UNL     1       5.215   4.989  17.760  0.00  0.00    +0.000 N 
ATOM      9  C   UNL     1       4.596   5.843  16.753  0.00  0.00    +0.000 C 
BRANCH   8  10
ATOM     10  C   UNL     1       4.424   3.873  18.336  0.00  0.00    +0.000 C 
ATOM     11  C   UNL     1       3.988   2.871  17.247  0.00  0.00    +0.000 C 
ATOM     12  C   UNL     1       3.408   1.623  17.905  0.00  0.00    +0.000 C 
ATOM     13  C   UNL     1       2.192   1.942  18.774  0.00  0.00    +0.000 C 
ATOM     14  C   UNL     1       2.163   3.331  19.369  0.00  0.00    +0.000 A 
ATOM     15  C   UNL     1       1.037   3.688  20.133  0.00  0.00    +0.000 A 
ATOM     16  C   UNL     1       0.935   4.954  20.702  0.00  0.00    +0.000 A 
ATOM     17  C   UNL     1       1.972   5.866  20.543  0.00  0.00    +0.000 A 
ATOM     18  C   UNL     1       3.106   5.518  19.804  0.00  0.00    +0.000 A 
ATOM     19  C   UNL     1       3.202   4.269  19.168  0.00  0.00    +0.000 A 
ENDBRANCH   8  10
ENDBRANCH   3   6
BRANCH   1  20
ATOM     20  C   UNL     1       8.648   9.749  18.223  0.00  0.00    +0.000 C 
BRANCH  20  21
ATOM     21  O   UNL     1       9.228   9.861  19.527  0.00  0.00    +0.000 OA
BRANCH  21  26
ATOM     22  C   UNL     1      10.829  15.102  21.150  0.00  0.00    +0.000 C 
ATOM     23  C   UNL     1      10.412  13.722  20.730  0.00  0.00    +0.000 A 
ATOM     24  C   UNL     1      10.961  13.161  19.575  0.00  0.00    +0.000 A 
ATOM     25  C   UNL     1      10.599  11.880  19.146  0.00  0.00    +0.000 A 
ATOM     26  C   UNL     1       9.672  11.123  19.868  0.00  0.00    +0.000 A 
ATOM     27  C   UNL     1       9.125  11.670  21.032  0.00  0.00    +0.000 A 
ATOM     28  C   UNL     1       9.483  12.962  21.474  0.00  0.00    +0.000 A 
ATOM     29  C   UNL     1       8.864  13.515  22.732  0.00  0.00    +0.000 C 
ENDBRANCH  21  26
ENDBRANCH  20  21
ENDBRANCH   1  20
TORSDOF 5
ENDMDL
MODEL 5
REMARK VINA RESULT:      -8.5      7.411     11.424
REMARK  Name = 
REMARK  8 active torsions:
REMARK  status: ('A' for Active; 'I' for Inactive)
REMARK    1  A    between atoms: C_1  and  C_2
REMARK    2  A    between atoms: C_5  and  O_6
REMARK    3  A    between atoms: O_6  and  C_7
REMARK    4  A    between atoms: C_7  and  C_8
REMARK    5  A    between atoms: C_10  and  C_11
REMARK    6  A    between atoms: N_13  and  C_14
REMARK    7  A    between atoms: N_13  and  C_15
REMARK    8  A    between atoms: C_28  and  C_29
REMARK                            x       y       z     vdW  Elec       q    Type
REMARK                         _______ _______ _______ _____ _____    ______ ____
ROOT
ATOM      1  C   UNL     1       1.234   9.796  18.598  0.00  0.00    +0.000 A 
ATOM      2  C   UNL     1       0.289   9.724  19.595  0.00  0.00    +0.000 A 
ATOM      3  C   UNL     1       0.391  10.963  20.300  0.00  0.00    +0.000 A 
ATOM      4  N   UNL     1       1.311  11.746  19.708  0.00  0.00    +0.000 NA
ATOM      5  O   UNL     1       1.817  11.024  18.643  0.00  0.00    +0.000 OA
ENDROOT
BRANCH   3   6
ATOM      6  C   UNL     1      -0.292  11.302  21.573  0.00  0.00    +0.000 C 
ATOM      7  O   UNL     1       0.150  10.832  22.624  0.00  0.00    +0.000 OA
ATOM      8  N   UNL     1      -1.409  12.166  21.579  0.00  0.00    +0.000 N 
ATOM      9  C   UNL     1      -2.197  12.435  20.381  0.00  0.00    +0.000 C 
BRANCH   8  10
ATOM     10  C   UNL     1      -1.887  12.690  22.882  0.00  0.00    +0.000 C 
ATOM     11  C   UNL     1      -3.423  12.598  22.997  0.00  0.00    +0.000 C 
ATOM     12  C   UNL     1      -3.846  12.903  24.430  0.00  0.00    +0.000 C 
ATOM     13  C   UNL     1      -3.418  14.301  24.874  0.00  0.00    +0.000 C 
ATOM     14  C   UNL     1      -2.180  14.848  24.199  0.00  0.00    +0.000 A 
ATOM     15  C   UNL     1      -1.779  16.152  24.537  0.00  0.00    +0.000 A 
ATOM     16  C   UNL     1      -0.656  16.726  23.946  0.00  0.00    +0.000 A 
ATOM     17  C   UNL     1       0.097  15.991  23.038  0.00  0.00    +0.000 A 
ATOM     18  C   UNL     1      -0.279  14.686  22.709  0.00  0.00    +0.000 A 
ATOM     19  C   UNL     1      -1.443  14.109  23.244  0.00  0.00    +0.000 A 
ENDBRANCH   8  10
ENDBRANCH   3   6
BRANCH   1  20
ATOM     20  C   UNL     1       1.837   8.804  17.669  0.00  0.00    +0.000 C 
BRANCH  20  21
ATOM     21  O   UNL     1       2.878   8.075  18.327  0.00  0.00    +0.000 OA
BRANCH  21  26
ATOM     22  C   UNL     1       1.261   2.967  20.319  0.00  0.00    +0.000 C 
ATOM     23  C   UNL     1       1.694   4.307  19.794  0.00  0.00    +0.000 A 
ATOM     24  C   UNL     1       1.742   5.400  20.661  0.00  0.00    +0.000 A 
ATOM     25  C   UNL     1       2.135   6.666  20.215  0.00  0.00    +0.000 A 
ATOM     26  C   UNL     1       2.494   6.869  18.879  0.00  0.00    +0.000 A 
ATOM     27  C   UNL     1       2.462   5.779  18.006  0.00  0.00    +0.000 A 
ATOM     28  C   UNL     1       2.066   4.497  18.446  0.00  0.00    +0.000 A 
ATOM     29  C   UNL     1       2.039   3.351  17.468  0.00  0.00    +0.000 C 
ENDBRANCH  21  26
ENDBRANCH  20  21
ENDBRANCH   1  20
TORSDOF 5
ENDMDL
MODEL 6
REMARK VINA RESULT:      -8.5      1.085      1.085
REMARK  Name = 
REMARK  8 active torsions:
REMARK  status: ('A' for Active; 'I' for Inactive)
REMARK    1  A    between atoms: C_1  and  C_2
REMARK    2  A    between atoms: C_5  and  O_6
REMARK    3  A    between atoms: O_6  and  C_7
REMARK    4  A    between atoms: C_7  and  C_8
REMARK    5  A    between atoms: C_10  and  C_11
REMARK    6  A    between atoms: N_13  and  C_14
REMARK    7  A    between atoms: N_13  and  C_15
REMARK    8  A    between atoms: C_28  and  C_29
REMARK                            x       y       z     vdW  Elec       q    Type
REMARK                         _______ _______ _______ _____ _____    ______ ____
ROOT
ATOM      1  C   UNL     1       8.428   8.475  18.149  0.00  0.00    +0.000 A 
ATOM      2  C   UNL     1       8.267   7.231  18.713  0.00  0.00    +0.000 A 
ATOM      3  C   UNL     1       7.095   6.689  18.102  0.00  0.00    +0.000 A 
ATOM      4  N   UNL     1       6.627   7.550  17.181  0.00  0.00    +0.000 NA
ATOM      5  O   UNL     1       7.467   8.647  17.202  0.00  0.00    +0.000 OA
ENDROOT
BRANCH   3   6
ATOM      6  C   UNL     1       6.399   5.441  18.502  0.00  0.00    +0.000 C 
ATOM      7  O   UNL     1       6.794   4.839  19.504  0.00  0.00    +0.000 OA
ATOM      8  N   UNL     1       5.291   4.970  17.765  0.00  0.00    +0.000 N 
ATOM      9  C   UNL     1       5.024   5.398  16.396  0.00  0.00    +0.000 C 
BRANCH   8  10
ATOM     10  C   UNL     1       4.465   3.885  18.349  0.00  0.00    +0.000 C 
ATOM     11  C   UNL     1       4.044   2.858  17.278  0.00  0.00    +0.000 C 
ATOM     12  C   UNL     1       3.424   1.640  17.954  0.00  0.00    +0.000 C 
ATOM     13  C   UNL     1       2.188   2.004  18.778  0.00  0.00    +0.000 C 
ATOM     14  C   UNL     1       2.166   3.411  19.331  0.00  0.00    +0.000 A 
ATOM     15  C   UNL     1       1.025   3.808  20.050  0.00  0.00    +0.000 A 
ATOM     16  C   UNL     1       0.928   5.092  20.578  0.00  0.00    +0.000 A 
ATOM     17  C   UNL     1       1.985   5.983  20.423  0.00  0.00    +0.000 A 
ATOM     18  C   UNL     1       3.134   5.594  19.729  0.00  0.00    +0.000 A 
ATOM     19  C   UNL     1       3.227   4.325  19.133  0.00  0.00    +0.000 A 
ENDBRANCH   8  10
ENDBRANCH   3   6
BRANCH   1  20
ATOM     20  C   UNL     1       9.265   9.660  18.474  0.00  0.00    +0.000 C 
BRANCH  20  21
ATOM     21  O   UNL     1       8.529  10.866  18.245  0.00  0.00    +0.000 OA
BRANCH  21  26
ATOM     22  C   UNL     1      10.585  15.675  20.550  0.00  0.00    +0.000 C 
ATOM     23  C   UNL     1      10.037  14.415  19.945  0.00  0.00    +0.000 A 
ATOM     24  C   UNL     1      10.139  13.214  20.652  0.00  0.00    +0.000 A 
ATOM     25  C   UNL     1       9.646  12.016  20.125  0.00  0.00    +0.000 A 
ATOM     26  C   UNL     1       9.032  11.990  18.869  0.00  0.00    +0.000 A 
ATOM     27  C   UNL     1       8.914  13.189  18.159  0.00  0.00    +0.000 A 
ATOM     28  C   UNL     1       9.408  14.403  18.681  0.00  0.00    +0.000 A 
ATOM     29  C   UNL     1       9.265  15.671  17.879  0.00  0.00    +0.000 C 
ENDBRANCH  21  26
ENDBRANCH  20  21
ENDBRANCH   1  20
TORSDOF 5
ENDMDL
MODEL 7
REMARK VINA RESULT:      -8.4      2.174     10.985
REMARK  Name = 
REMARK  8 active torsions:
REMARK  status: ('A' for Active; 'I' for Inactive)
REMARK    1  A    between atoms: C_1  and  C_2
REMARK    2  A    between atoms: C_5  and  O_6
REMARK    3  A    between atoms: O_6  and  C_7
REMARK    4  A    between atoms: C_7  and  C_8
REMARK    5  A    between atoms: C_10  and  C_11
REMARK    6  A    between atoms: N_13  and  C_14
REMARK    7  A    between atoms: N_13  and  C_15
REMARK    8  A    between atoms: C_28  and  C_29
REMARK                            x       y       z     vdW  Elec       q    Type
REMARK                         _______ _______ _______ _____ _____    ______ ____
ROOT
ATOM      1  C   UNL     1       8.214   8.471  18.018  0.00  0.00    +0.000 A 
ATOM      2  C   UNL     1       8.244   9.644  17.300  0.00  0.00    +0.000 A 
ATOM      3  C   UNL     1       8.922  10.581  18.138  0.00  0.00    +0.000 A 
ATOM      4  N   UNL     1       9.321   9.971  19.268  0.00  0.00    +0.000 NA
ATOM      5  O   UNL     1       8.895   8.658  19.180  0.00  0.00    +0.000 OA
ENDROOT
BRANCH   3   6
ATOM      6  C   UNL     1       9.052  12.039  17.892  0.00  0.00    +0.000 C 
ATOM      7  O   UNL     1       8.038  12.684  17.615  0.00  0.00    +0.000 OA
ATOM      8  N   UNL     1      10.308  12.675  18.000  0.00  0.00    +0.000 N 
ATOM      9  C   UNL     1      11.565  11.938  17.940  0.00  0.00    +0.000 C 
BRANCH   8  10
ATOM     10  C   UNL     1      10.347  14.159  18.015  0.00  0.00    +0.000 C 
ATOM     11  C   UNL     1      11.450  14.702  17.083  0.00  0.00    +0.000 C 
ATOM     12  C   UNL     1      11.292  16.211  16.931  0.00  0.00    +0.000 C 
ATOM     13  C   UNL     1      11.396  16.941  18.271  0.00  0.00    +0.000 C 
ATOM     14  C   UNL     1      10.975  16.140  19.482  0.00  0.00    +0.000 A 
ATOM     15  C   UNL     1      11.104  16.752  20.742  0.00  0.00    +0.000 A 
ATOM     16  C   UNL     1      10.748  16.072  21.903  0.00  0.00    +0.000 A 
ATOM     17  C   UNL     1      10.227  14.786  21.816  0.00  0.00    +0.000 A 
ATOM     18  C   UNL     1      10.073  14.174  20.569  0.00  0.00    +0.000 A 
ATOM     19  C   UNL     1      10.485  14.817  19.390  0.00  0.00    +0.000 A 
ENDBRANCH   8  10
ENDBRANCH   3   6
BRANCH   1  20
ATOM     20  C   UNL     1       7.477   7.187  17.874  0.00  0.00    +0.000 C 
BRANCH  20  21
ATOM     21  O   UNL     1       6.434   7.319  16.902  0.00  0.00    +0.000 OA
BRANCH  21  26
ATOM     22  C   UNL     1       1.652   4.427  18.099  0.00  0.00    +0.000 C 
ATOM     23  C   UNL     1       2.912   5.184  17.791  0.00  0.00    +0.000 A 
ATOM     24  C   UNL     1       2.912   6.578  17.873  0.00  0.00    +0.000 A 
ATOM     25  C   UNL     1       4.062   7.323  17.591  0.00  0.00    +0.000 A 
ATOM     26  C   UNL     1       5.250   6.685  17.220  0.00  0.00    +0.000 A 
ATOM     27  C   UNL     1       5.264   5.290  17.147  0.00  0.00    +0.000 A 
ATOM     28  C   UNL     1       4.109   4.528  17.429  0.00  0.00    +0.000 A 
ATOM     29  C   UNL     1       4.167   3.026  17.331  0.00  0.00    +0.000 C 
ENDBRANCH  21  26
ENDBRANCH  20  21
ENDBRANCH   1  20
TORSDOF 5
ENDMDL
MODEL 8
REMARK VINA RESULT:      -8.3      5.934      8.843
REMARK  Name = 
REMARK  8 active torsions:
REMARK  status: ('A' for Active; 'I' for Inactive)
REMARK    1  A    between atoms: C_1  and  C_2
REMARK    2  A    between atoms: C_5  and  O_6
REMARK    3  A    between atoms: O_6  and  C_7
REMARK    4  A    between atoms: C_7  and  C_8
REMARK    5  A    between atoms: C_10  and  C_11
REMARK    6  A    between atoms: N_13  and  C_14
REMARK    7  A    between atoms: N_13  and  C_15
REMARK    8  A    between atoms: C_28  and  C_29
REMARK                            x       y       z     vdW  Elec       q    Type
REMARK                         _______ _______ _______ _____ _____    ______ ____
ROOT
ATOM      1  C   UNL     1       3.098   5.361  18.150  0.00  0.00    +0.000 A 
ATOM      2  C   UNL     1       3.110   6.655  17.685  0.00  0.00    +0.000 A 
ATOM      3  C   UNL     1       2.418   7.417  18.676  0.00  0.00    +0.000 A 
ATOM      4  N   UNL     1       2.070   6.617  19.700  0.00  0.00    +0.000 NA
ATOM      5  O   UNL     1       2.510   5.347  19.376  0.00  0.00    +0.000 OA
ENDROOT
BRANCH   3   6
ATOM      6  C   UNL     1       2.007   8.838  18.556  0.00  0.00    +0.000 C 
ATOM      7  O   UNL     1       2.386   9.482  17.574  0.00  0.00    +0.000 OA
ATOM      8  N   UNL     1       1.178   9.429  19.534  0.00  0.00    +0.000 N 
ATOM      9  C   UNL     1       1.021   8.867  20.871  0.00  0.00    +0.000 C 
BRANCH   8  10
ATOM     10  C   UNL     1       0.574  10.753  19.239  0.00  0.00    +0.000 C 
ATOM     11  C   UNL     1       0.474  11.622  20.510  0.00  0.00    +0.000 C 
ATOM     12  C   UNL     1       0.092  13.047  20.124  0.00  0.00    +0.000 C 
ATOM     13  C   UNL     1      -1.251  13.108  19.397  0.00  0.00    +0.000 C 
ATOM     14  C   UNL     1      -1.628  11.867  18.620  0.00  0.00    +0.000 A 
ATOM     15  C   UNL     1      -2.879  11.857  17.979  0.00  0.00    +0.000 A 
ATOM     16  C   UNL     1      -3.299  10.745  17.255  0.00  0.00    +0.000 A 
ATOM     17  C   UNL     1      -2.459   9.643  17.136  0.00  0.00    +0.000 A 
ATOM     18  C   UNL     1      -1.204   9.648  17.751  0.00  0.00    +0.000 A 
ATOM     19  C   UNL     1      -0.786  10.733  18.538  0.00  0.00    +0.000 A 
ENDBRANCH   8  10
ENDBRANCH   3   6
BRANCH   1  20
ATOM     20  C   UNL     1       3.406   4.039  17.542  0.00  0.00    +0.000 C 
BRANCH  20  21
ATOM     21  O   UNL     1       4.803   3.752  17.658  0.00  0.00    +0.000 OA
BRANCH  21  26
ATOM     22  C   UNL     1       7.854   5.259  13.065  0.00  0.00    +0.000 C 
ATOM     23  C   UNL     1       7.046   4.868  14.269  0.00  0.00    +0.000 A 
ATOM     24  C   UNL     1       7.464   5.276  15.538  0.00  0.00    +0.000 A 
ATOM     25  C   UNL     1       6.744   4.932  16.686  0.00  0.00    +0.000 A 
ATOM     26  C   UNL     1       5.579   4.165  16.593  0.00  0.00    +0.000 A 
ATOM     27  C   UNL     1       5.145   3.762  15.327  0.00  0.00    +0.000 A 
ATOM     28  C   UNL     1       5.864   4.104  14.161  0.00  0.00    +0.000 A 
ATOM     29  C   UNL     1       5.363   3.642  12.817  0.00  0.00    +0.000 C 
ENDBRANCH  21  26
ENDBRANCH  20  21
ENDBRANCH   1  20
TORSDOF 5
ENDMDL
MODEL 9
REMARK VINA RESULT:      -8.1      7.676     11.795
REMARK  Name = 
REMARK  8 active torsions:
REMARK  status: ('A' for Active; 'I' for Inactive)
REMARK    1  A    between atoms: C_1  and  C_2
REMARK    2  A    between atoms: C_5  and  O_6
REMARK    3  A    between atoms: O_6  and  C_7
REMARK    4  A    between atoms: C_7  and  C_8
REMARK    5  A    between atoms: C_10  and  C_11
REMARK    6  A    between atoms: N_13  and  C_14
REMARK    7  A    between atoms: N_13  and  C_15
REMARK    8  A    between atoms: C_28  and  C_29
REMARK                            x       y       z     vdW  Elec       q    Type
REMARK                         _______ _______ _______ _____ _____    ______ ____
ROOT
ATOM      1  C   UNL     1       1.871   9.410  18.424  0.00  0.00    +0.000 A 
ATOM      2  C   UNL     1       1.020   9.898  19.389  0.00  0.00    +0.000 A 
ATOM      3  C   UNL     1       1.075  11.319  19.256  0.00  0.00    +0.000 A 
ATOM      4  N   UNL     1       1.875  11.646  18.225  0.00  0.00    +0.000 NA
ATOM      5  O   UNL     1       2.350  10.458  17.702  0.00  0.00    +0.000 OA
ENDROOT
BRANCH   3   6
ATOM      6  C   UNL     1       0.474  12.307  20.186  0.00  0.00    +0.000 C 
ATOM      7  O   UNL     1       1.106  12.633  21.193  0.00  0.00    +0.000 OA
ATOM      8  N   UNL     1      -0.786  12.880  19.906  0.00  0.00    +0.000 N 
ATOM      9  C   UNL     1      -1.731  12.274  18.974  0.00  0.00    +0.000 C 
BRANCH   8  10
ATOM     10  C   UNL     1      -1.223  14.051  20.707  0.00  0.00    +0.000 C 
ATOM     11  C   UNL     1      -2.618  13.822  21.325  0.00  0.00    +0.000 C 
ATOM     12  C   UNL     1      -2.914  14.924  22.336  0.00  0.00    +0.000 C 
ATOM     13  C   UNL     1      -2.897  16.313  21.698  0.00  0.00    +0.000 C 
ATOM     14  C   UNL     1      -2.003  16.462  20.487  0.00  0.00    +0.000 A 
ATOM     15  C   UNL     1      -1.996  17.708  19.835  0.00  0.00    +0.000 A 
ATOM     16  C   UNL     1      -1.207  17.915  18.707  0.00  0.00    +0.000 A 
ATOM     17  C   UNL     1      -0.392  16.891  18.238  0.00  0.00    +0.000 A 
ATOM     18  C   UNL     1      -0.374  15.655  18.890  0.00  0.00    +0.000 A 
ATOM     19  C   UNL     1      -1.208  15.403  19.991  0.00  0.00    +0.000 A 
ENDBRANCH   8  10
ENDBRANCH   3   6
BRANCH   1  20
ATOM     20  C   UNL     1       2.475   8.079  18.153  0.00  0.00    +0.000 C 
BRANCH  20  21
ATOM     21  O   UNL     1       2.503   7.293  19.349  0.00  0.00    +0.000 OA
BRANCH  21  26
ATOM     22  C   UNL     1       1.415   1.696  18.949  0.00  0.00    +0.000 C 
ATOM     23  C   UNL     1       1.693   3.168  19.057  0.00  0.00    +0.000 A 
ATOM     24  C   UNL     1       1.845   3.925  17.894  0.00  0.00    +0.000 A 
ATOM     25  C   UNL     1       2.109   5.297  17.948  0.00  0.00    +0.000 A 
ATOM     26  C   UNL     1       2.226   5.951  19.178  0.00  0.00    +0.000 A 
ATOM     27  C   UNL     1       2.062   5.206  20.348  0.00  0.00    +0.000 A 
ATOM     28  C   UNL     1       1.797   3.820  20.305  0.00  0.00    +0.000 A 
ATOM     29  C   UNL     1       1.634   3.054  21.593  0.00  0.00    +0.000 C 
ENDBRANCH  21  26
ENDBRANCH  20  21
ENDBRANCH   1  20
TORSDOF 5
ENDMDL
