MODEL 1
REMARK VINA RESULT:      -8.2      0.000      0.000
REMARK  Name = 
REMARK  11 active torsions:
REMARK  status: ('A' for Active; 'I' for Inactive)
REMARK    1  A    between atoms: C_1  and  C_2
REMARK    2  A    between atoms: C_2  and  O_3
REMARK    3  A    between atoms: C_2  and  C_4
REMARK    4  A    between atoms: C_2  and  C_17
REMARK    5  A    between atoms: C_4  and  S_5
REMARK    6  A    between atoms: S_5  and  C_6
REMARK    7  A    between atoms: C_10  and  O_11
REMARK    8  A    between atoms: O_11  and  C_12
REMARK    9  A    between atoms: N_19  and  C_20
REMARK   10  A    between atoms: C_23  and  N_24
REMARK   11  A    between atoms: C_28  and  C_29
REMARK                            x       y       z     vdW  Elec       q    Type
REMARK                         _______ _______ _______ _____ _____    ______ ____
ROOT
ATOM      1  C   UNL     1       4.145   2.593  19.745  0.00  0.00    +0.000 C 
ATOM      2  C   UNL     1       3.060   2.767  18.681  0.00  0.00    +0.000 C 
ENDROOT
BRANCH   2   3
ATOM      3  C   UNL     1       3.724   3.450  17.466  0.00  0.00    +0.000 C 
ATOM      4  O   UNL     1       3.071   3.994  16.574  0.00  0.00    +0.000 OA
ATOM      5  N   UNL     1       5.109   3.337  17.464  0.00  0.00    +0.000 N 
ATOM      6  H   UNL     1       5.437   2.534  17.996  0.00  0.00    +0.000 HD
BRANCH   5   7
ATOM      7  C   UNL     1       5.890   3.837  16.411  0.00  0.00    +0.000 A 
ATOM      8  C   UNL     1       5.711   3.227  15.159  0.00  0.00    +0.000 A 
ATOM      9  C   UNL     1       6.348   3.732  14.024  0.00  0.00    +0.000 A 
ATOM     10  C   UNL     1       7.201   4.832  14.148  0.00  0.00    +0.000 A 
ATOM     11  C   UNL     1       7.438   5.405  15.406  0.00  0.00    +0.000 A 
ATOM     12  C   UNL     1       6.796   4.902  16.559  0.00  0.00    +0.000 A 
BRANCH  12  13
ATOM     13  C   UNL     1       7.217   5.495  17.888  0.00  0.00    +0.000 C 
ATOM     14  F   UNL     1       6.226   5.755  18.785  0.00  0.00    +0.000 F 
ATOM     15  F   UNL     1       8.054   4.639  18.552  0.00  0.00    +0.000 F 
ATOM     16  F   UNL     1       7.931   6.648  17.751  0.00  0.00    +0.000 F 
ENDBRANCH  12  13
BRANCH  10  17
ATOM     17  N   UNL     1       7.863   5.385  12.961  0.00  0.00    +0.000 N 
ATOM     18  O   UNL     1       7.427   5.045  11.849  0.00  0.00    +0.000 OA
ATOM     19  O   UNL     1       8.816   6.154  13.135  0.00  0.00    +0.000 OA
ENDBRANCH  10  17
ENDBRANCH   5   7
ENDBRANCH   2   3
BRANCH   2  20
ATOM     20  O   UNL     1       2.562   1.461  18.347  0.00  0.00    +0.000 OA
ATOM     21  H   UNL     1       3.315   0.920  18.053  0.00  0.00    +0.000 HD
ENDBRANCH   2  20
BRANCH   2  22
ATOM     22  C   UNL     1       1.910   3.654  19.207  0.00  0.00    +0.000 C 
BRANCH  22  23
ATOM     23  S   UNL     1       2.523   4.834  20.477  0.00  0.00    +0.000 S 
BRANCH  23  24
ATOM     24  C   UNL     1       2.212   6.451  19.781  0.00  0.00    +0.000 A 
ATOM     25  C   UNL     1       2.349   6.797  18.438  0.00  0.00    +0.000 A 
ATOM     26  C   UNL     1       2.089   8.105  18.020  0.00  0.00    +0.000 A 
ATOM     27  C   UNL     1       1.657   9.059  18.941  0.00  0.00    +0.000 A 
ATOM     28  C   UNL     1       1.463   8.719  20.278  0.00  0.00    +0.000 A 
ATOM     29  C   UNL     1       1.785   7.427  20.699  0.00  0.00    +0.000 A 
BRANCH  28  30
ATOM     30  O   UNL     1       1.018   9.731  21.071  0.00  0.00    +0.000 OA
BRANCH  30  31
ATOM     31  C   UNL     1      -0.223   9.590  21.751  0.00  0.00    +0.000 C 
ATOM     32  F   UNL     1      -0.769   8.360  21.659  0.00  0.00    +0.000 F 
ATOM     33  F   UNL     1      -0.058   9.902  23.055  0.00  0.00    +0.000 F 
ATOM     34  F   UNL     1      -1.101  10.467  21.216  0.00  0.00    +0.000 F 
ENDBRANCH  30  31
ENDBRANCH  28  30
ENDBRANCH  23  24
ENDBRANCH  22  23
ENDBRANCH   2  22
TORSDOF 10
ENDMDL
MODEL 2
REMARK VINA RESULT:      -8.0      1.031      1.393
REMARK  Name = 
REMARK  11 active torsions:
REMARK  status: ('A' for Active; 'I' for Inactive)
REMARK    1  A    between atoms: C_1  and  C_2
REMARK    2  A    between atoms: C_2  and  O_3
REMARK    3  A    between atoms: C_2  and  C_4
REMARK    4  A    between atoms: C_2  and  C_17
REMARK    5  A    between atoms: C_4  and  S_5
REMARK    6  A    between atoms: S_5  and  C_6
REMARK    7  A    between atoms: C_10  and  O_11
REMARK    8  A    between atoms: O_11  and  C_12
REMARK    9  A    between atoms: N_19  and  C_20
REMARK   10  A    between atoms: C_23  and  N_24
REMARK   11  A    between atoms: C_28  and  C_29
REMARK                            x       y       z     vdW  Elec       q    Type
REMARK                         _______ _______ _______ _____ _____    ______ ____
ROOT
ATOM      1  C   UNL     1       2.879   2.599  20.235  0.00  0.00    +0.000 C 
ATOM      2  C   UNL     1       2.300   2.960  18.866  0.00  0.00    +0.000 C 
ENDROOT
BRANCH   2   3
ATOM      3  C   UNL     1       3.466   2.916  17.856  0.00  0.00    +0.000 C 
ATOM      4  O   UNL     1       4.127   1.897  17.652  0.00  0.00    +0.000 OA
ATOM      5  N   UNL     1       3.716   4.144  17.255  0.00  0.00    +0.000 N 
ATOM      6  H   UNL     1       3.397   4.928  17.819  0.00  0.00    +0.000 HD
BRANCH   5   7
ATOM      7  C   UNL     1       4.777   4.324  16.355  0.00  0.00    +0.000 A 
ATOM      8  C   UNL     1       4.528   3.967  15.020  0.00  0.00    +0.000 A 
ATOM      9  C   UNL     1       5.475   4.223  14.026  0.00  0.00    +0.000 A 
ATOM     10  C   UNL     1       6.696   4.808  14.375  0.00  0.00    +0.000 A 
ATOM     11  C   UNL     1       6.979   5.106  15.716  0.00  0.00    +0.000 A 
ATOM     12  C   UNL     1       6.026   4.852  16.727  0.00  0.00    +0.000 A 
BRANCH  12  13
ATOM     13  C   UNL     1       6.472   5.079  18.158  0.00  0.00    +0.000 C 
ATOM     14  F   UNL     1       5.855   6.084  18.839  0.00  0.00    +0.000 F 
ATOM     15  F   UNL     1       6.236   3.965  18.917  0.00  0.00    +0.000 F 
ATOM     16  F   UNL     1       7.812   5.301  18.265  0.00  0.00    +0.000 F 
ENDBRANCH  12  13
BRANCH  10  17
ATOM     17  N   UNL     1       7.693   5.101  13.340  0.00  0.00    +0.000 N 
ATOM     18  O   UNL     1       8.619   5.874  13.636  0.00  0.00    +0.000 OA
ATOM     19  O   UNL     1       7.553   4.565  12.234  0.00  0.00    +0.000 OA
ENDBRANCH  10  17
ENDBRANCH   5   7
ENDBRANCH   2   3
BRANCH   2  20
ATOM     20  O   UNL     1       1.289   1.989  18.549  0.00  0.00    +0.000 OA
ATOM     21  H   UNL     1       0.700   2.379  17.880  0.00  0.00    +0.000 HD
ENDBRANCH   2  20
BRANCH   2  22
ATOM     22  C   UNL     1       1.686   4.377  18.886  0.00  0.00    +0.000 C 
BRANCH  22  23
ATOM     23  S   UNL     1       2.660   5.497  19.971  0.00  0.00    +0.000 S 
BRANCH  23  24
ATOM     24  C   UNL     1       2.164   7.144  19.485  0.00  0.00    +0.000 A 
ATOM     25  C   UNL     1       2.383   7.723  18.237  0.00  0.00    +0.000 A 
ATOM     26  C   UNL     1       1.958   9.031  17.985  0.00  0.00    +0.000 A 
ATOM     27  C   UNL     1       1.281   9.747  18.972  0.00  0.00    +0.000 A 
ATOM     28  C   UNL     1       1.006   9.166  20.209  0.00  0.00    +0.000 A 
ATOM     29  C   UNL     1       1.489   7.883  20.473  0.00  0.00    +0.000 A 
BRANCH  28  30
ATOM     30  O   UNL     1       0.321   9.958  21.077  0.00  0.00    +0.000 OA
BRANCH  30  31
ATOM     31  C   UNL     1      -0.238   9.384  22.252  0.00  0.00    +0.000 C 
ATOM     32  F   UNL     1      -1.112  10.182  22.899  0.00  0.00    +0.000 F 
ATOM     33  F   UNL     1      -0.853   8.224  21.935  0.00  0.00    +0.000 F 
ATOM     34  F   UNL     1       0.771   9.105  23.107  0.00  0.00    +0.000 F 
ENDBRANCH  30  31
ENDBRANCH  28  30
ENDBRANCH  23  24
ENDBRANCH  22  23
ENDBRANCH   2  22
TORSDOF 10
ENDMDL
MODEL 3
REMARK VINA RESULT:      -8.0      3.255      7.447
REMARK  Name = 
REMARK  11 active torsions:
REMARK  status: ('A' for Active; 'I' for Inactive)
REMARK    1  A    between atoms: C_1  and  C_2
REMARK    2  A    between atoms: C_2  and  O_3
REMARK    3  A    between atoms: C_2  and  C_4
REMARK    4  A    between atoms: C_2  and  C_17
REMARK    5  A    between atoms: C_4  and  S_5
REMARK    6  A    between atoms: S_5  and  C_6
REMARK    7  A    between atoms: C_10  and  O_11
REMARK    8  A    between atoms: O_11  and  C_12
REMARK    9  A    between atoms: N_19  and  C_20
REMARK   10  A    between atoms: C_23  and  N_24
REMARK   11  A    between atoms: C_28  and  C_29
REMARK                            x       y       z     vdW  Elec       q    Type
REMARK                         _______ _______ _______ _____ _____    ______ ____
ROOT
ATOM      1  C   UNL     1       1.773   2.167  19.598  0.00  0.00    +0.000 C 
ATOM      2  C   UNL     1       2.679   3.250  20.188  0.00  0.00    +0.000 C 
ENDROOT
BRANCH   2   3
ATOM      3  C   UNL     1       1.841   4.544  20.269  0.00  0.00    +0.000 C 
ATOM      4  O   UNL     1       0.610   4.539  20.229  0.00  0.00    +0.000 OA
ATOM      5  N   UNL     1       2.616   5.695  20.337  0.00  0.00    +0.000 N 
ATOM      6  H   UNL     1       3.544   5.566  19.940  0.00  0.00    +0.000 HD
BRANCH   5   7
ATOM      7  C   UNL     1       2.041   6.975  20.353  0.00  0.00    +0.000 A 
ATOM      8  C   UNL     1       1.400   7.354  21.544  0.00  0.00    +0.000 A 
ATOM      9  C   UNL     1       0.905   8.650  21.704  0.00  0.00    +0.000 A 
ATOM     10  C   UNL     1       1.019   9.563  20.652  0.00  0.00    +0.000 A 
ATOM     11  C   UNL     1       1.598   9.172  19.436  0.00  0.00    +0.000 A 
ATOM     12  C   UNL     1       2.103   7.864  19.265  0.00  0.00    +0.000 A 
BRANCH  12  13
ATOM     13  C   UNL     1       2.584   7.493  17.878  0.00  0.00    +0.000 C 
ATOM     14  F   UNL     1       2.570   8.480  16.940  0.00  0.00    +0.000 F 
ATOM     15  F   UNL     1       3.890   7.085  17.915  0.00  0.00    +0.000 F 
ATOM     16  F   UNL     1       1.902   6.439  17.345  0.00  0.00    +0.000 F 
ENDBRANCH  12  13
BRANCH  10  17
ATOM     17  N   UNL     1       0.521  10.933  20.812  0.00  0.00    +0.000 N 
ATOM     18  O   UNL     1       0.172  11.289  21.950  0.00  0.00    +0.000 OA
ATOM     19  O   UNL     1       0.473  11.653  19.808  0.00  0.00    +0.000 OA
ENDBRANCH  10  17
ENDBRANCH   5   7
ENDBRANCH   2   3
BRANCH   2  20
ATOM     20  O   UNL     1       3.099   2.809  21.489  0.00  0.00    +0.000 OA
ATOM     21  H   UNL     1       2.600   2.002  21.706  0.00  0.00    +0.000 HD
ENDBRANCH   2  20
BRANCH   2  22
ATOM     22  C   UNL     1       3.910   3.488  19.285  0.00  0.00    +0.000 C 
BRANCH  22  23
ATOM     23  S   UNL     1       3.517   3.112  17.529  0.00  0.00    +0.000 S 
BRANCH  23  24
ATOM     24  C   UNL     1       4.872   3.817  16.601  0.00  0.00    +0.000 A 
ATOM     25  C   UNL     1       5.005   3.794  15.214  0.00  0.00    +0.000 A 
ATOM     26  C   UNL     1       6.125   4.369  14.606  0.00  0.00    +0.000 A 
ATOM     27  C   UNL     1       7.095   5.000  15.386  0.00  0.00    +0.000 A 
ATOM     28  C   UNL     1       6.953   5.080  16.770  0.00  0.00    +0.000 A 
ATOM     29  C   UNL     1       5.863   4.448  17.373  0.00  0.00    +0.000 A 
BRANCH  28  30
ATOM     30  O   UNL     1       7.953   5.739  17.414  0.00  0.00    +0.000 OA
BRANCH  30  31
ATOM     31  C   UNL     1       7.628   6.663  18.445  0.00  0.00    +0.000 C 
ATOM     32  F   UNL     1       7.094   6.099  19.548  0.00  0.00    +0.000 F 
ATOM     33  F   UNL     1       8.735   7.353  18.795  0.00  0.00    +0.000 F 
ATOM     34  F   UNL     1       6.723   7.541  17.957  0.00  0.00    +0.000 F 
ENDBRANCH  30  31
ENDBRANCH  28  30
ENDBRANCH  23  24
ENDBRANCH  22  23
ENDBRANCH   2  22
TORSDOF 10
ENDMDL
MODEL 4
REMARK VINA RESULT:      -7.9      3.853      8.944
REMARK  Name = 
REMARK  11 active torsions:
REMARK  status: ('A' for Active; 'I' for Inactive)
REMARK    1  A    between atoms: C_1  and  C_2
REMARK    2  A    between atoms: C_2  and  O_3
REMARK    3  A    between atoms: C_2  and  C_4
REMARK    4  A    between atoms: C_2  and  C_17
REMARK    5  A    between atoms: C_4  and  S_5
REMARK    6  A    between atoms: S_5  and  C_6
REMARK    7  A    between atoms: C_10  and  O_11
REMARK    8  A    between atoms: O_11  and  C_12
REMARK    9  A    between atoms: N_19  and  C_20
REMARK   10  A    between atoms: C_23  and  N_24
REMARK   11  A    between atoms: C_28  and  C_29
REMARK                            x       y       z     vdW  Elec       q    Type
REMARK                         _______ _______ _______ _____ _____    ______ ____
ROOT
ATOM      1  C   UNL     1       2.334   3.623  21.134  0.00  0.00    +0.000 C 
ATOM      2  C   UNL     1       2.611   4.760  20.148  0.00  0.00    +0.000 C 
ENDROOT
BRANCH   2   3
ATOM      3  C   UNL     1       1.627   5.900  20.485  0.00  0.00    +0.000 C 
ATOM      4  O   UNL     1       0.434   5.698  20.719  0.00  0.00    +0.000 OA
ATOM      5  N   UNL     1       2.212   7.159  20.442  0.00  0.00    +0.000 N 
ATOM      6  H   UNL     1       3.033   7.189  19.842  0.00  0.00    +0.000 HD
BRANCH   5   7
ATOM      7  C   UNL     1       1.468   8.329  20.656  0.00  0.00    +0.000 A 
ATOM      8  C   UNL     1       1.006   8.542  21.965  0.00  0.00    +0.000 A 
ATOM      9  C   UNL     1       0.364   9.734  22.308  0.00  0.00    +0.000 A 
ATOM     10  C   UNL     1       0.148  10.705  21.326  0.00  0.00    +0.000 A 
ATOM     11  C   UNL     1       0.546  10.471  20.002  0.00  0.00    +0.000 A 
ATOM     12  C   UNL     1       1.198   9.270  19.646  0.00  0.00    +0.000 A 
BRANCH  12  13
ATOM     13  C   UNL     1       1.466   9.049  18.171  0.00  0.00    +0.000 C 
ATOM     14  F   UNL     1       1.923   7.818  17.809  0.00  0.00    +0.000 F 
ATOM     15  F   UNL     1       0.317   9.207  17.445  0.00  0.00    +0.000 F 
ATOM     16  F   UNL     1       2.339   9.957  17.651  0.00  0.00    +0.000 F 
ENDBRANCH  12  13
BRANCH  10  17
ATOM     17  N   UNL     1      -0.509  11.969  21.675  0.00  0.00    +0.000 N 
ATOM     18  O   UNL     1      -1.081  12.590  20.764  0.00  0.00    +0.000 OA
ATOM     19  O   UNL     1      -0.452  12.345  22.851  0.00  0.00    +0.000 OA
ENDBRANCH  10  17
ENDBRANCH   5   7
ENDBRANCH   2   3
BRANCH   2  20
ATOM     20  O   UNL     1       3.977   5.170  20.325  0.00  0.00    +0.000 OA
ATOM     21  H   UNL     1       4.386   4.572  20.976  0.00  0.00    +0.000 HD
ENDBRANCH   2  20
BRANCH   2  22
ATOM     22  C   UNL     1       2.383   4.293  18.693  0.00  0.00    +0.000 C 
BRANCH  22  23
ATOM     23  S   UNL     1       3.771   3.232  18.121  0.00  0.00    +0.000 S 
BRANCH  23  24
ATOM     24  C   UNL     1       4.601   4.207  16.873  0.00  0.00    +0.000 A 
ATOM     25  C   UNL     1       4.711   5.596  16.867  0.00  0.00    +0.000 A 
ATOM     26  C   UNL     1       5.374   6.243  15.821  0.00  0.00    +0.000 A 
ATOM     27  C   UNL     1       5.959   5.497  14.798  0.00  0.00    +0.000 A 
ATOM     28  C   UNL     1       5.906   4.105  14.814  0.00  0.00    +0.000 A 
ATOM     29  C   UNL     1       5.187   3.470  15.829  0.00  0.00    +0.000 A 
BRANCH  28  30
ATOM     30  O   UNL     1       6.533   3.493  13.773  0.00  0.00    +0.000 OA
BRANCH  30  31
ATOM     31  C   UNL     1       5.896   3.451  12.502  0.00  0.00    +0.000 C 
ATOM     32  F   UNL     1       4.592   3.798  12.523  0.00  0.00    +0.000 F 
ATOM     33  F   UNL     1       6.553   4.260  11.644  0.00  0.00    +0.000 F 
ATOM     34  F   UNL     1       5.974   2.186  12.031  0.00  0.00    +0.000 F 
ENDBRANCH  30  31
ENDBRANCH  28  30
ENDBRANCH  23  24
ENDBRANCH  22  23
ENDBRANCH   2  22
TORSDOF 10
ENDMDL
MODEL 5
REMARK VINA RESULT:      -7.9      3.359      7.558
REMARK  Name = 
REMARK  11 active torsions:
REMARK  status: ('A' for Active; 'I' for Inactive)
REMARK    1  A    between atoms: C_1  and  C_2
REMARK    2  A    between atoms: C_2  and  O_3
REMARK    3  A    between atoms: C_2  and  C_4
REMARK    4  A    between atoms: C_2  and  C_17
REMARK    5  A    between atoms: C_4  and  S_5
REMARK    6  A    between atoms: S_5  and  C_6
REMARK    7  A    between atoms: C_10  and  O_11
REMARK    8  A    between atoms: O_11  and  C_12
REMARK    9  A    between atoms: N_19  and  C_20
REMARK   10  A    between atoms: C_23  and  N_24
REMARK   11  A    between atoms: C_28  and  C_29
REMARK                            x       y       z     vdW  Elec       q    Type
REMARK                         _______ _______ _______ _____ _____    ______ ____
ROOT
ATOM      1  C   UNL     1       1.432   2.391  20.067  0.00  0.00    +0.000 C 
ATOM      2  C   UNL     1       2.336   3.506  20.595  0.00  0.00    +0.000 C 
ENDROOT
BRANCH   2   3
ATOM      3  C   UNL     1       1.523   4.816  20.528  0.00  0.00    +0.000 C 
ATOM      4  O   UNL     1       0.298   4.829  20.395  0.00  0.00    +0.000 OA
ATOM      5  N   UNL     1       2.316   5.956  20.580  0.00  0.00    +0.000 N 
ATOM      6  H   UNL     1       3.268   5.785  20.264  0.00  0.00    +0.000 HD
BRANCH   5   7
ATOM      7  C   UNL     1       1.769   7.243  20.469  0.00  0.00    +0.000 A 
ATOM      8  C   UNL     1       1.019   7.698  21.566  0.00  0.00    +0.000 A 
ATOM      9  C   UNL     1       0.538   9.009  21.606  0.00  0.00    +0.000 A 
ATOM     10  C   UNL     1       0.777   9.860  20.523  0.00  0.00    +0.000 A 
ATOM     11  C   UNL     1       1.467   9.393  19.395  0.00  0.00    +0.000 A 
ATOM     12  C   UNL     1       1.959   8.070  19.347  0.00  0.00    +0.000 A 
BRANCH  12  13
ATOM     13  C   UNL     1       2.569   7.615  18.037  0.00  0.00    +0.000 C 
ATOM     14  F   UNL     1       3.889   7.280  18.060  0.00  0.00    +0.000 F 
ATOM     15  F   UNL     1       1.944   6.485  17.583  0.00  0.00    +0.000 F 
ATOM     16  F   UNL     1       2.415   8.527  17.037  0.00  0.00    +0.000 F 
ENDBRANCH  12  13
BRANCH  10  17
ATOM     17  N   UNL     1       0.294  11.245  20.558  0.00  0.00    +0.000 N 
ATOM     18  O   UNL     1       0.817  12.015  21.381  0.00  0.00    +0.000 OA
ATOM     19  O   UNL     1      -0.604  11.565  19.771  0.00  0.00    +0.000 OA
ENDBRANCH  10  17
ENDBRANCH   5   7
ENDBRANCH   2   3
BRANCH   2  20
ATOM     20  O   UNL     1       2.695   3.174  21.947  0.00  0.00    +0.000 OA
ATOM     21  H   UNL     1       3.484   3.693  22.182  0.00  0.00    +0.000 HD
ENDBRANCH   2  20
BRANCH   2  22
ATOM     22  C   UNL     1       3.607   3.642  19.728  0.00  0.00    +0.000 C 
BRANCH  22  23
ATOM     23  S   UNL     1       3.334   2.934  18.053  0.00  0.00    +0.000 S 
BRANCH  23  24
ATOM     24  C   UNL     1       4.701   3.544  17.075  0.00  0.00    +0.000 A 
ATOM     25  C   UNL     1       4.806   3.466  15.688  0.00  0.00    +0.000 A 
ATOM     26  C   UNL     1       5.938   3.968  15.040  0.00  0.00    +0.000 A 
ATOM     27  C   UNL     1       6.950   4.581  15.779  0.00  0.00    +0.000 A 
ATOM     28  C   UNL     1       6.839   4.716  17.161  0.00  0.00    +0.000 A 
ATOM     29  C   UNL     1       5.734   4.156  17.806  0.00  0.00    +0.000 A 
BRANCH  28  30
ATOM     30  O   UNL     1       7.880   5.353  17.763  0.00  0.00    +0.000 OA
BRANCH  30  31
ATOM     31  C   UNL     1       7.620   6.453  18.625  0.00  0.00    +0.000 C 
ATOM     32  F   UNL     1       6.643   7.278  18.194  0.00  0.00    +0.000 F 
ATOM     33  F   UNL     1       7.298   5.995  19.854  0.00  0.00    +0.000 F 
ATOM     34  F   UNL     1       8.752   7.184  18.733  0.00  0.00    +0.000 F 
ENDBRANCH  30  31
ENDBRANCH  28  30
ENDBRANCH  23  24
ENDBRANCH  22  23
ENDBRANCH   2  22
TORSDOF 10
ENDMDL
MODEL 6
REMARK VINA RESULT:      -7.8      0.845      1.206
REMARK  Name = 
REMARK  11 active torsions:
REMARK  status: ('A' for Active; 'I' for Inactive)
REMARK    1  A    between atoms: C_1  and  C_2
REMARK    2  A    between atoms: C_2  and  O_3
REMARK    3  A    between atoms: C_2  and  C_4
REMARK    4  A    between atoms: C_2  and  C_17
REMARK    5  A    between atoms: C_4  and  S_5
REMARK    6  A    between atoms: S_5  and  C_6
REMARK    7  A    between atoms: C_10  and  O_11
REMARK    8  A    between atoms: O_11  and  C_12
REMARK    9  A    between atoms: N_19  and  C_20
REMARK   10  A    between atoms: C_23  and  N_24
REMARK   11  A    between atoms: C_28  and  C_29
REMARK                            x       y       z     vdW  Elec       q    Type
REMARK                         _______ _______ _______ _____ _____    ______ ____
ROOT
ATOM      1  C   UNL     1       4.343   2.210  19.685  0.00  0.00    +0.000 C 
ATOM      2  C   UNL     1       3.449   3.372  19.248  0.00  0.00    +0.000 C 
ENDROOT
BRANCH   2   3
ATOM      3  C   UNL     1       3.962   3.843  17.871  0.00  0.00    +0.000 C 
ATOM      4  O   UNL     1       3.202   4.136  16.946  0.00  0.00    +0.000 OA
ATOM      5  N   UNL     1       5.348   3.848  17.775  0.00  0.00    +0.000 N 
ATOM      6  H   UNL     1       5.787   3.202  18.426  0.00  0.00    +0.000 HD
BRANCH   5   7
ATOM      7  C   UNL     1       6.006   4.184  16.582  0.00  0.00    +0.000 A 
ATOM      8  C   UNL     1       5.816   3.311  15.499  0.00  0.00    +0.000 A 
ATOM      9  C   UNL     1       6.325   3.621  14.236  0.00  0.00    +0.000 A 
ATOM     10  C   UNL     1       7.063   4.796  14.064  0.00  0.00    +0.000 A 
ATOM     11  C   UNL     1       7.314   5.640  15.155  0.00  0.00    +0.000 A 
ATOM     12  C   UNL     1       6.801   5.335  16.435  0.00  0.00    +0.000 A 
BRANCH  12  13
ATOM     13  C   UNL     1       7.238   6.230  17.577  0.00  0.00    +0.000 C 
ATOM     14  F   UNL     1       8.044   5.670  18.521  0.00  0.00    +0.000 F 
ATOM     15  F   UNL     1       7.962   7.292  17.105  0.00  0.00    +0.000 F 
ATOM     16  F   UNL     1       6.188   6.789  18.242  0.00  0.00    +0.000 F 
ENDBRANCH  12  13
BRANCH  10  17
ATOM     17  N   UNL     1       7.588   5.145  12.739  0.00  0.00    +0.000 N 
ATOM     18  O   UNL     1       8.333   6.136  12.659  0.00  0.00    +0.000 OA
ATOM     19  O   UNL     1       7.259   4.436  11.781  0.00  0.00    +0.000 OA
ENDBRANCH  10  17
ENDBRANCH   5   7
ENDBRANCH   2   3
BRANCH   2  20
ATOM     20  O   UNL     1       2.101   2.882  19.172  0.00  0.00    +0.000 OA
ATOM     21  H   UNL     1       1.768   3.061  18.275  0.00  0.00    +0.000 HD
ENDBRANCH   2  20
BRANCH   2  22
ATOM     22  C   UNL     1       3.533   4.539  20.257  0.00  0.00    +0.000 C 
BRANCH  22  23
ATOM     23  S   UNL     1       1.853   5.111  20.737  0.00  0.00    +0.000 S 
BRANCH  23  24
ATOM     24  C   UNL     1       1.748   6.783  20.113  0.00  0.00    +0.000 A 
ATOM     25  C   UNL     1       2.122   7.199  18.837  0.00  0.00    +0.000 A 
ATOM     26  C   UNL     1       2.006   8.543  18.475  0.00  0.00    +0.000 A 
ATOM     27  C   UNL     1       1.481   9.467  19.379  0.00  0.00    +0.000 A 
ATOM     28  C   UNL     1       1.053   9.061  20.641  0.00  0.00    +0.000 A 
ATOM     29  C   UNL     1       1.230   7.728  21.017  0.00  0.00    +0.000 A 
BRANCH  28  30
ATOM     30  O   UNL     1       0.540  10.051  21.421  0.00  0.00    +0.000 OA
BRANCH  30  31
ATOM     31  C   UNL     1      -0.132   9.711  22.627  0.00  0.00    +0.000 C 
ATOM     32  F   UNL     1      -0.973   8.662  22.518  0.00  0.00    +0.000 F 
ATOM     33  F   UNL     1       0.779   9.446  23.589  0.00  0.00    +0.000 F 
ATOM     34  F   UNL     1      -0.861  10.779  23.022  0.00  0.00    +0.000 F 
ENDBRANCH  30  31
ENDBRANCH  28  30
ENDBRANCH  23  24
ENDBRANCH  22  23
ENDBRANCH   2  22
TORSDOF 10
ENDMDL
MODEL 7
REMARK VINA RESULT:      -7.7      5.945     10.709
REMARK  Name = 
REMARK  11 active torsions:
REMARK  status: ('A' for Active; 'I' for Inactive)
REMARK    1  A    between atoms: C_1  and  C_2
REMARK    2  A    between atoms: C_2  and  O_3
REMARK    3  A    between atoms: C_2  and  C_4
REMARK    4  A    between atoms: C_2  and  C_17
REMARK    5  A    between atoms: C_4  and  S_5
REMARK    6  A    between atoms: S_5  and  C_6
REMARK    7  A    between atoms: C_10  and  O_11
REMARK    8  A    between atoms: O_11  and  C_12
REMARK    9  A    between atoms: N_19  and  C_20
REMARK   10  A    between atoms: C_23  and  N_24
REMARK   11  A    between atoms: C_28  and  C_29
REMARK                            x       y       z     vdW  Elec       q    Type
REMARK                         _______ _______ _______ _____ _____    ______ ____
ROOT
ATOM      1  C   UNL     1       0.879  11.722  20.268  0.00  0.00    +0.000 C 
ATOM      2  C   UNL     1       0.593  11.384  18.804  0.00  0.00    +0.000 C 
ENDROOT
BRANCH   2   3
ATOM      3  C   UNL     1      -0.779  12.001  18.458  0.00  0.00    +0.000 C 
ATOM      4  O   UNL     1      -0.904  13.168  18.082  0.00  0.00    +0.000 OA
ATOM      5  N   UNL     1      -1.840  11.129  18.664  0.00  0.00    +0.000 N 
ATOM      6  H   UNL     1      -1.626  10.407  19.349  0.00  0.00    +0.000 HD
BRANCH   5   7
ATOM      7  C   UNL     1      -3.172  11.524  18.468  0.00  0.00    +0.000 A 
ATOM      8  C   UNL     1      -3.814  12.116  19.568  0.00  0.00    +0.000 A 
ATOM      9  C   UNL     1      -5.096  12.655  19.438  0.00  0.00    +0.000 A 
ATOM     10  C   UNL     1      -5.756  12.567  18.209  0.00  0.00    +0.000 A 
ATOM     11  C   UNL     1      -5.149  11.917  17.125  0.00  0.00    +0.000 A 
ATOM     12  C   UNL     1      -3.852  11.371  17.246  0.00  0.00    +0.000 A 
BRANCH  12  13
ATOM     13  C   UNL     1      -3.334  10.571  16.068  0.00  0.00    +0.000 C 
ATOM     14  F   UNL     1      -2.893   9.310  16.331  0.00  0.00    +0.000 F 
ATOM     15  F   UNL     1      -4.322  10.393  15.138  0.00  0.00    +0.000 F 
ATOM     16  F   UNL     1      -2.331  11.205  15.399  0.00  0.00    +0.000 F 
ENDBRANCH  12  13
BRANCH  10  17
ATOM     17  N   UNL     1      -7.095  13.145  18.052  0.00  0.00    +0.000 N 
ATOM     18  O   UNL     1      -7.416  13.554  16.924  0.00  0.00    +0.000 OA
ATOM     19  O   UNL     1      -7.825  13.194  19.049  0.00  0.00    +0.000 OA
ENDBRANCH  10  17
ENDBRANCH   5   7
ENDBRANCH   2   3
BRANCH   2  20
ATOM     20  O   UNL     1       1.646  11.954  18.009  0.00  0.00    +0.000 OA
ATOM     21  H   UNL     1       1.503  11.684  17.085  0.00  0.00    +0.000 HD
ENDBRANCH   2  20
BRANCH   2  22
ATOM     22  C   UNL     1       0.539   9.855  18.593  0.00  0.00    +0.000 C 
BRANCH  22  23
ATOM     23  S   UNL     1       1.240   8.969  20.044  0.00  0.00    +0.000 S 
BRANCH  23  24
ATOM     24  C   UNL     1       2.146   7.597  19.342  0.00  0.00    +0.000 A 
ATOM     25  C   UNL     1       2.907   7.638  18.175  0.00  0.00    +0.000 A 
ATOM     26  C   UNL     1       3.558   6.487  17.720  0.00  0.00    +0.000 A 
ATOM     27  C   UNL     1       3.476   5.304  18.454  0.00  0.00    +0.000 A 
ATOM     28  C   UNL     1       2.765   5.257  19.651  0.00  0.00    +0.000 A 
ATOM     29  C   UNL     1       2.067   6.394  20.065  0.00  0.00    +0.000 A 
BRANCH  28  30
ATOM     30  O   UNL     1       2.781   4.053  20.284  0.00  0.00    +0.000 OA
BRANCH  30  31
ATOM     31  C   UNL     1       1.644   3.202  20.192  0.00  0.00    +0.000 C 
ATOM     32  F   UNL     1       1.936   1.913  19.921  0.00  0.00    +0.000 F 
ATOM     33  F   UNL     1       0.944   3.263  21.344  0.00  0.00    +0.000 F 
ATOM     34  F   UNL     1       0.854   3.660  19.195  0.00  0.00    +0.000 F 
ENDBRANCH  30  31
ENDBRANCH  28  30
ENDBRANCH  23  24
ENDBRANCH  22  23
ENDBRANCH   2  22
TORSDOF 10
ENDMDL
MODEL 8
REMARK VINA RESULT:      -7.6      0.966      1.168
REMARK  Name = 
REMARK  11 active torsions:
REMARK  status: ('A' for Active; 'I' for Inactive)
REMARK    1  A    between atoms: C_1  and  C_2
REMARK    2  A    between atoms: C_2  and  O_3
REMARK    3  A    between atoms: C_2  and  C_4
REMARK    4  A    between atoms: C_2  and  C_17
REMARK    5  A    between atoms: C_4  and  S_5
REMARK    6  A    between atoms: S_5  and  C_6
REMARK    7  A    between atoms: C_10  and  O_11
REMARK    8  A    between atoms: O_11  and  C_12
REMARK    9  A    between atoms: N_19  and  C_20
REMARK   10  A    between atoms: C_23  and  N_24
REMARK   11  A    between atoms: C_28  and  C_29
REMARK                            x       y       z     vdW  Elec       q    Type
REMARK                         _______ _______ _______ _____ _____    ______ ____
ROOT
ATOM      1  C   UNL     1       2.986   2.568  19.360  0.00  0.00    +0.000 C 
ATOM      2  C   UNL     1       2.200   3.671  18.647  0.00  0.00    +0.000 C 
ENDROOT
BRANCH   2   3
ATOM      3  C   UNL     1       3.149   4.299  17.603  0.00  0.00    +0.000 C 
ATOM      4  O   UNL     1       2.868   5.329  16.990  0.00  0.00    +0.000 OA
ATOM      5  N   UNL     1       4.306   3.558  17.400  0.00  0.00    +0.000 N 
ATOM      6  H   UNL     1       4.189   2.576  17.638  0.00  0.00    +0.000 HD
BRANCH   5   7
ATOM      7  C   UNL     1       5.264   3.930  16.445  0.00  0.00    +0.000 A 
ATOM      8  C   UNL     1       5.024   3.510  15.126  0.00  0.00    +0.000 A 
ATOM      9  C   UNL     1       5.851   3.932  14.083  0.00  0.00    +0.000 A 
ATOM     10  C   UNL     1       6.948   4.752  14.366  0.00  0.00    +0.000 A 
ATOM     11  C   UNL     1       7.233   5.120  15.688  0.00  0.00    +0.000 A 
ATOM     12  C   UNL     1       6.402   4.699  16.749  0.00  0.00    +0.000 A 
BRANCH  12  13
ATOM     13  C   UNL     1       6.864   5.032  18.153  0.00  0.00    +0.000 C 
ATOM     14  F   UNL     1       6.125   4.524  19.178  0.00  0.00    +0.000 F 
ATOM     15  F   UNL     1       8.123   4.541  18.372  0.00  0.00    +0.000 F 
ATOM     16  F   UNL     1       6.967   6.373  18.372  0.00  0.00    +0.000 F 
ENDBRANCH  12  13
BRANCH  10  17
ATOM     17  N   UNL     1       7.815   5.219  13.278  0.00  0.00    +0.000 N 
ATOM     18  O   UNL     1       7.564   4.816  12.130  0.00  0.00    +0.000 OA
ATOM     19  O   UNL     1       8.744   5.981  13.565  0.00  0.00    +0.000 OA
ENDBRANCH  10  17
ENDBRANCH   5   7
ENDBRANCH   2   3
BRANCH   2  20
ATOM     20  O   UNL     1       1.058   3.061  18.024  0.00  0.00    +0.000 OA
ATOM     21  H   UNL     1       0.273   3.588  18.256  0.00  0.00    +0.000 HD
ENDBRANCH   2  20
BRANCH   2  22
ATOM     22  C   UNL     1       1.742   4.754  19.648  0.00  0.00    +0.000 C 
BRANCH  22  23
ATOM     23  S   UNL     1       3.033   6.049  19.846  0.00  0.00    +0.000 S 
BRANCH  23  24
ATOM     24  C   UNL     1       2.201   7.582  19.452  0.00  0.00    +0.000 A 
ATOM     25  C   UNL     1       2.113   8.156  18.186  0.00  0.00    +0.000 A 
ATOM     26  C   UNL     1       1.445   9.371  18.011  0.00  0.00    +0.000 A 
ATOM     27  C   UNL     1       0.833   9.994  19.099  0.00  0.00    +0.000 A 
ATOM     28  C   UNL     1       0.865   9.409  20.363  0.00  0.00    +0.000 A 
ATOM     29  C   UNL     1       1.587   8.227  20.540  0.00  0.00    +0.000 A 
BRANCH  28  30
ATOM     30  O   UNL     1       0.213  10.102  21.335  0.00  0.00    +0.000 OA
BRANCH  30  31
ATOM     31  C   UNL     1      -0.302   9.405  22.463  0.00  0.00    +0.000 C 
ATOM     32  F   UNL     1       0.626   9.084  23.388  0.00  0.00    +0.000 F 
ATOM     33  F   UNL     1      -1.268  10.146  23.047  0.00  0.00    +0.000 F 
ATOM     34  F   UNL     1      -0.861   8.253  22.029  0.00  0.00    +0.000 F 
ENDBRANCH  30  31
ENDBRANCH  28  30
ENDBRANCH  23  24
ENDBRANCH  22  23
ENDBRANCH   2  22
TORSDOF 10
ENDMDL
MODEL 9
REMARK VINA RESULT:      -7.6      0.820      1.203
REMARK  Name = 
REMARK  11 active torsions:
REMARK  status: ('A' for Active; 'I' for Inactive)
REMARK    1  A    between atoms: C_1  and  C_2
REMARK    2  A    between atoms: C_2  and  O_3
REMARK    3  A    between atoms: C_2  and  C_4
REMARK    4  A    between atoms: C_2  and  C_17
REMARK    5  A    between atoms: C_4  and  S_5
REMARK    6  A    between atoms: S_5  and  C_6
REMARK    7  A    between atoms: C_10  and  O_11
REMARK    8  A    between atoms: O_11  and  C_12
REMARK    9  A    between atoms: N_19  and  C_20
REMARK   10  A    between atoms: C_23  and  N_24
REMARK   11  A    between atoms: C_28  and  C_29
REMARK                            x       y       z     vdW  Elec       q    Type
REMARK                         _______ _______ _______ _____ _____    ______ ____
ROOT
ATOM      1  C   UNL     1       3.844   2.509  19.712  0.00  0.00    +0.000 C 
ATOM      2  C   UNL     1       2.753   3.057  18.790  0.00  0.00    +0.000 C 
ENDROOT
BRANCH   2   3
ATOM      3  C   UNL     1       3.461   3.639  17.548  0.00  0.00    +0.000 C 
ATOM      4  O   UNL     1       2.842   4.059  16.569  0.00  0.00    +0.000 OA
ATOM      5  N   UNL     1       4.846   3.587  17.634  0.00  0.00    +0.000 N 
ATOM      6  H   UNL     1       5.172   2.859  18.265  0.00  0.00    +0.000 HD
BRANCH   5   7
ATOM      7  C   UNL     1       5.669   4.009  16.578  0.00  0.00    +0.000 A 
ATOM      8  C   UNL     1       5.634   3.229  15.411  0.00  0.00    +0.000 A 
ATOM      9  C   UNL     1       6.319   3.633  14.264  0.00  0.00    +0.000 A 
ATOM     10  C   UNL     1       7.077   4.807  14.295  0.00  0.00    +0.000 A 
ATOM     11  C   UNL     1       7.172   5.556  15.476  0.00  0.00    +0.000 A 
ATOM     12  C   UNL     1       6.480   5.156  16.641  0.00  0.00    +0.000 A 
BRANCH  12  13
ATOM     13  C   UNL     1       6.751   5.950  17.903  0.00  0.00    +0.000 C 
ATOM     14  F   UNL     1       6.671   5.273  19.082  0.00  0.00    +0.000 F 
ATOM     15  F   UNL     1       8.025   6.452  17.890  0.00  0.00    +0.000 F 
ATOM     16  F   UNL     1       5.945   7.042  18.024  0.00  0.00    +0.000 F 
ENDBRANCH  12  13
BRANCH  10  17
ATOM     17  N   UNL     1       7.788   5.254  13.092  0.00  0.00    +0.000 N 
ATOM     18  O   UNL     1       8.719   6.063  13.242  0.00  0.00    +0.000 OA
ATOM     19  O   UNL     1       7.419   4.804  12.001  0.00  0.00    +0.000 OA
ENDBRANCH  10  17
ENDBRANCH   5   7
ENDBRANCH   2   3
BRANCH   2  20
ATOM     20  O   UNL     1       1.885   1.966  18.443  0.00  0.00    +0.000 OA
ATOM     21  H   UNL     1       2.228   1.560  17.627  0.00  0.00    +0.000 HD
ENDBRANCH   2  20
BRANCH   2  22
ATOM     22  C   UNL     1       1.947   4.171  19.495  0.00  0.00    +0.000 C 
BRANCH  22  23
ATOM     23  S   UNL     1       3.064   5.490  20.121  0.00  0.00    +0.000 S 
BRANCH  23  24
ATOM     24  C   UNL     1       2.386   7.008  19.464  0.00  0.00    +0.000 A 
ATOM     25  C   UNL     1       2.682   7.558  18.219  0.00  0.00    +0.000 A 
ATOM     26  C   UNL     1       2.095   8.764  17.826  0.00  0.00    +0.000 A 
ATOM     27  C   UNL     1       1.183   9.403  18.666  0.00  0.00    +0.000 A 
ATOM     28  C   UNL     1       0.834   8.842  19.893  0.00  0.00    +0.000 A 
ATOM     29  C   UNL     1       1.473   7.670  20.304  0.00  0.00    +0.000 A 
BRANCH  28  30
ATOM     30  O   UNL     1      -0.081   9.549  20.610  0.00  0.00    +0.000 OA
BRANCH  30  31
ATOM     31  C   UNL     1       0.367  10.515  21.552  0.00  0.00    +0.000 C 
ATOM     32  F   UNL     1      -0.342  11.662  21.551  0.00  0.00    +0.000 F 
ATOM     33  F   UNL     1       0.337   9.979  22.792  0.00  0.00    +0.000 F 
ATOM     34  F   UNL     1       1.649  10.827  21.261  0.00  0.00    +0.000 F 
ENDBRANCH  30  31
ENDBRANCH  28  30
ENDBRANCH  23  24
ENDBRANCH  22  23
ENDBRANCH   2  22
TORSDOF 10
ENDMDL
