MODEL 1
REMARK VINA RESULT:      -9.4      0.000      0.000
REMARK  Name = 
REMARK  7 active torsions:
REMARK  status: ('A' for Active; 'I' for Inactive)
REMARK    1  A    between atoms: C_1  and  C_2
REMARK    2  A    between atoms: C_11  and  O_12
REMARK    3  A    between atoms: O_12  and  C_13
REMARK    4  A    between atoms: C_13  and  C_14
REMARK    5  A    between atoms: N_16  and  C_17
REMARK    6  A    between atoms: C_19  and  C_20
REMARK    7  A    between atoms: C_26  and  N_27
REMARK                            x       y       z     vdW  Elec       q    Type
REMARK                         _______ _______ _______ _____ _____    ______ ____
ROOT
ATOM      1  C   UNL     1       2.263   7.761  18.701  0.00  0.00    +0.000 C 
ATOM      2  O   UNL     1       2.166   7.486  19.895  0.00  0.00    +0.000 OA
ATOM      3  N   UNL     1       2.652   6.859  17.712  0.00  0.00    +0.000 N 
ATOM      4  H   UNL     1       2.301   7.026  16.778  0.00  0.00    +0.000 HD
ENDROOT
BRANCH   3   5
ATOM      5  C   UNL     1       2.920   5.504  18.028  0.00  0.00    +0.000 A 
ATOM      6  C   UNL     1       1.935   4.820  18.772  0.00  0.00    +0.000 A 
ATOM      7  C   UNL     1       2.146   3.518  19.238  0.00  0.00    +0.000 A 
ATOM      8  C   UNL     1       3.335   2.880  18.889  0.00  0.00    +0.000 A 
ATOM      9  C   UNL     1       4.306   3.555  18.142  0.00  0.00    +0.000 A 
ATOM     10  C   UNL     1       4.161   4.894  17.719  0.00  0.00    +0.000 A 
BRANCH  10  11
ATOM     11  N   UNL     1       5.180   5.477  16.979  0.00  0.00    +0.000 N 
ATOM     12  C   UNL     1       5.482   5.158  15.576  0.00  0.00    +0.000 C 
ATOM     13  C   UNL     1       7.000   5.079  15.345  0.00  0.00    +0.000 C 
ATOM     14  O   UNL     1       7.683   6.250  15.814  0.00  0.00    +0.000 OA
ATOM     15  C   UNL     1       7.446   6.423  17.220  0.00  0.00    +0.000 C 
ATOM     16  C   UNL     1       5.951   6.627  17.501  0.00  0.00    +0.000 C 
ENDBRANCH  10  11
BRANCH   7  17
ATOM     17  C   UNL     1       1.137   2.817  20.110  0.00  0.00    +0.000 C 
ATOM     18  F   UNL     1       0.765   3.531  21.208  0.00  0.00    +0.000 F 
ATOM     19  F   UNL     1      -0.014   2.516  19.447  0.00  0.00    +0.000 F 
ATOM     20  F   UNL     1       1.608   1.629  20.588  0.00  0.00    +0.000 F 
ENDBRANCH   7  17
ENDBRANCH   3   5
BRANCH   1  21
ATOM     21  C   UNL     1       1.927   9.159  18.170  0.00  0.00    +0.000 C 
BRANCH  21  22
ATOM     22  O   UNL     1       1.452  10.058  19.176  0.00  0.00    +0.000 OA
BRANCH  22  33
ATOM     23  C   UNL     1       0.118  11.817  21.077  0.00  0.00    +0.000 C 
ATOM     24  C   UNL     1      -0.515  11.296  19.826  0.00  0.00    +0.000 A 
ATOM     25  N   UNL     1      -1.806  11.669  19.625  0.00  0.00    +0.000 NA
ATOM     26  C   UNL     1      -2.403  11.238  18.499  0.00  0.00    +0.000 A 
ATOM     27  C   UNL     1      -3.729  11.571  18.242  0.00  0.00    +0.000 A 
ATOM     28  C   UNL     1      -4.377  11.133  17.085  0.00  0.00    +0.000 A 
ATOM     29  C   UNL     1      -3.688  10.357  16.161  0.00  0.00    +0.000 A 
ATOM     30  C   UNL     1      -2.361  10.010  16.411  0.00  0.00    +0.000 A 
ATOM     31  C   UNL     1      -1.713  10.427  17.569  0.00  0.00    +0.000 A 
ATOM     32  N   UNL     1      -0.440  10.044  17.782  0.00  0.00    +0.000 NA
ATOM     33  C   UNL     1       0.156  10.479  18.917  0.00  0.00    +0.000 A 
ENDBRANCH  22  33
ENDBRANCH  21  22
ENDBRANCH   1  21
TORSDOF 6
ENDMDL
MODEL 2
REMARK VINA RESULT:      -9.0      0.952      2.400
REMARK  Name = 
REMARK  7 active torsions:
REMARK  status: ('A' for Active; 'I' for Inactive)
REMARK    1  A    between atoms: C_1  and  C_2
REMARK    2  A    between atoms: C_11  and  O_12
REMARK    3  A    between atoms: O_12  and  C_13
REMARK    4  A    between atoms: C_13  and  C_14
REMARK    5  A    between atoms: N_16  and  C_17
REMARK    6  A    between atoms: C_19  and  C_20
REMARK    7  A    between atoms: C_26  and  N_27
REMARK                            x       y       z     vdW  Elec       q    Type
REMARK                         _______ _______ _______ _____ _____    ______ ____
ROOT
ATOM      1  C   UNL     1       2.349   7.814  18.651  0.00  0.00    +0.000 C 
ATOM      2  O   UNL     1       2.350   7.581  19.859  0.00  0.00    +0.000 OA
ATOM      3  N   UNL     1       2.636   6.872  17.665  0.00  0.00    +0.000 N 
ATOM      4  H   UNL     1       2.208   7.014  16.759  0.00  0.00    +0.000 HD
ENDROOT
BRANCH   3   5
ATOM      5  C   UNL     1       2.908   5.523  18.004  0.00  0.00    +0.000 A 
ATOM      6  C   UNL     1       1.914   4.841  18.737  0.00  0.00    +0.000 A 
ATOM      7  C   UNL     1       2.126   3.547  19.224  0.00  0.00    +0.000 A 
ATOM      8  C   UNL     1       3.326   2.914  18.907  0.00  0.00    +0.000 A 
ATOM      9  C   UNL     1       4.307   3.587  18.170  0.00  0.00    +0.000 A 
ATOM     10  C   UNL     1       4.160   4.920  17.727  0.00  0.00    +0.000 A 
BRANCH  10  11
ATOM     11  N   UNL     1       5.189   5.501  17.000  0.00  0.00    +0.000 N 
ATOM     12  C   UNL     1       5.479   5.215  15.587  0.00  0.00    +0.000 C 
ATOM     13  C   UNL     1       6.994   5.110  15.348  0.00  0.00    +0.000 C 
ATOM     14  O   UNL     1       7.704   6.253  15.847  0.00  0.00    +0.000 OA
ATOM     15  C   UNL     1       7.474   6.391  17.259  0.00  0.00    +0.000 C 
ATOM     16  C   UNL     1       5.985   6.620  17.550  0.00  0.00    +0.000 C 
ENDBRANCH  10  11
BRANCH   7  17
ATOM     17  C   UNL     1       1.105   2.849  20.085  0.00  0.00    +0.000 C 
ATOM     18  F   UNL     1       0.709   3.573  21.168  0.00  0.00    +0.000 F 
ATOM     19  F   UNL     1      -0.032   2.534  19.405  0.00  0.00    +0.000 F 
ATOM     20  F   UNL     1       1.575   1.669  20.585  0.00  0.00    +0.000 F 
ENDBRANCH   7  17
ENDBRANCH   3   5
BRANCH   1  21
ATOM     21  C   UNL     1       1.990   9.200  18.103  0.00  0.00    +0.000 C 
BRANCH  21  22
ATOM     22  O   UNL     1       0.654   9.294  17.603  0.00  0.00    +0.000 OA
BRANCH  22  33
ATOM     23  C   UNL     1      -2.078   9.877  16.775  0.00  0.00    +0.000 C 
ATOM     24  C   UNL     1      -1.436  10.429  18.009  0.00  0.00    +0.000 A 
ATOM     25  N   UNL     1      -2.206  11.278  18.738  0.00  0.00    +0.000 NA
ATOM     26  C   UNL     1      -1.671  11.778  19.867  0.00  0.00    +0.000 A 
ATOM     27  C   UNL     1      -2.402  12.665  20.651  0.00  0.00    +0.000 A 
ATOM     28  C   UNL     1      -1.871  13.206  21.824  0.00  0.00    +0.000 A 
ATOM     29  C   UNL     1      -0.591  12.848  22.230  0.00  0.00    +0.000 A 
ATOM     30  C   UNL     1       0.154  11.966  21.448  0.00  0.00    +0.000 A 
ATOM     31  C   UNL     1      -0.360  11.436  20.270  0.00  0.00    +0.000 A 
ATOM     32  N   UNL     1       0.406  10.611  19.533  0.00  0.00    +0.000 NA
ATOM     33  C   UNL     1      -0.136  10.110  18.398  0.00  0.00    +0.000 A 
ENDBRANCH  22  33
ENDBRANCH  21  22
ENDBRANCH   1  21
TORSDOF 6
ENDMDL
MODEL 3
REMARK VINA RESULT:      -9.0      2.274      3.318
REMARK  Name = 
REMARK  7 active torsions:
REMARK  status: ('A' for Active; 'I' for Inactive)
REMARK    1  A    between atoms: C_1  and  C_2
REMARK    2  A    between atoms: C_11  and  O_12
REMARK    3  A    between atoms: O_12  and  C_13
REMARK    4  A    between atoms: C_13  and  C_14
REMARK    5  A    between atoms: N_16  and  C_17
REMARK    6  A    between atoms: C_19  and  C_20
REMARK    7  A    between atoms: C_26  and  N_27
REMARK                            x       y       z     vdW  Elec       q    Type
REMARK                         _______ _______ _______ _____ _____    ______ ____
ROOT
ATOM      1  C   UNL     1       2.312   7.773  18.463  0.00  0.00    +0.000 C 
ATOM      2  O   UNL     1       2.308   7.605  19.681  0.00  0.00    +0.000 OA
ATOM      3  N   UNL     1       2.622   6.784  17.531  0.00  0.00    +0.000 N 
ATOM      4  H   UNL     1       2.199   6.870  16.616  0.00  0.00    +0.000 HD
ENDROOT
BRANCH   3   5
ATOM      5  C   UNL     1       2.914   5.460  17.944  0.00  0.00    +0.000 A 
ATOM      6  C   UNL     1       1.932   4.807  18.718  0.00  0.00    +0.000 A 
ATOM      7  C   UNL     1       2.164   3.545  19.276  0.00  0.00    +0.000 A 
ATOM      8  C   UNL     1       3.373   2.912  18.991  0.00  0.00    +0.000 A 
ATOM      9  C   UNL     1       4.341   3.557  18.214  0.00  0.00    +0.000 A 
ATOM     10  C   UNL     1       4.174   4.860  17.697  0.00  0.00    +0.000 A 
BRANCH  10  11
ATOM     11  N   UNL     1       5.193   5.415  16.935  0.00  0.00    +0.000 N 
ATOM     12  C   UNL     1       5.481   5.057  15.539  0.00  0.00    +0.000 C 
ATOM     13  C   UNL     1       6.996   4.958  15.298  0.00  0.00    +0.000 C 
ATOM     14  O   UNL     1       7.694   6.134  15.732  0.00  0.00    +0.000 OA
ATOM     15  C   UNL     1       7.468   6.345  17.135  0.00  0.00    +0.000 C 
ATOM     16  C   UNL     1       5.978   6.571  17.421  0.00  0.00    +0.000 C 
ENDBRANCH  10  11
BRANCH   7  17
ATOM     17  C   UNL     1       1.155   2.882  20.178  0.00  0.00    +0.000 C 
ATOM     18  F   UNL     1       0.017   2.493  19.541  0.00  0.00    +0.000 F 
ATOM     19  F   UNL     1       1.647   1.768  20.788  0.00  0.00    +0.000 F 
ATOM     20  F   UNL     1       0.748   3.706  21.187  0.00  0.00    +0.000 F 
ENDBRANCH   7  17
ENDBRANCH   3   5
BRANCH   1  21
ATOM     21  C   UNL     1       1.934   9.121  17.838  0.00  0.00    +0.000 C 
BRANCH  21  22
ATOM     22  O   UNL     1       0.806   9.746  18.456  0.00  0.00    +0.000 OA
BRANCH  22  33
ATOM     23  C   UNL     1       0.059   9.972  21.263  0.00  0.00    +0.000 C 
ATOM     24  C   UNL     1       0.801  11.025  20.501  0.00  0.00    +0.000 A 
ATOM     25  N   UNL     1       1.093  12.154  21.200  0.00  0.00    +0.000 NA
ATOM     26  C   UNL     1       1.780  13.115  20.555  0.00  0.00    +0.000 A 
ATOM     27  C   UNL     1       2.096  14.302  21.209  0.00  0.00    +0.000 A 
ATOM     28  C   UNL     1       2.801  15.320  20.564  0.00  0.00    +0.000 A 
ATOM     29  C   UNL     1       3.208  15.150  19.246  0.00  0.00    +0.000 A 
ATOM     30  C   UNL     1       2.889  13.968  18.578  0.00  0.00    +0.000 A 
ATOM     31  C   UNL     1       2.173  12.956  19.207  0.00  0.00    +0.000 A 
ATOM     32  N   UNL     1       1.863  11.844  18.514  0.00  0.00    +0.000 NA
ATOM     33  C   UNL     1       1.173  10.879  19.166  0.00  0.00    +0.000 A 
ENDBRANCH  22  33
ENDBRANCH  21  22
ENDBRANCH   1  21
TORSDOF 6
ENDMDL
MODEL 4
REMARK VINA RESULT:      -8.9      0.922      1.270
REMARK  Name = 
REMARK  7 active torsions:
REMARK  status: ('A' for Active; 'I' for Inactive)
REMARK    1  A    between atoms: C_1  and  C_2
REMARK    2  A    between atoms: C_11  and  O_12
REMARK    3  A    between atoms: O_12  and  C_13
REMARK    4  A    between atoms: C_13  and  C_14
REMARK    5  A    between atoms: N_16  and  C_17
REMARK    6  A    between atoms: C_19  and  C_20
REMARK    7  A    between atoms: C_26  and  N_27
REMARK                            x       y       z     vdW  Elec       q    Type
REMARK                         _______ _______ _______ _____ _____    ______ ____
ROOT
ATOM      1  C   UNL     1       2.579   7.464  18.584  0.00  0.00    +0.000 C 
ATOM      2  O   UNL     1       2.257   7.381  19.768  0.00  0.00    +0.000 OA
ATOM      3  N   UNL     1       3.190   6.442  17.858  0.00  0.00    +0.000 N 
ATOM      4  H   UNL     1       3.025   6.429  16.860  0.00  0.00    +0.000 HD
ENDROOT
BRANCH   3   5
ATOM      5  C   UNL     1       3.440   5.179  18.450  0.00  0.00    +0.000 A 
ATOM      6  C   UNL     1       2.352   4.555  19.096  0.00  0.00    +0.000 A 
ATOM      7  C   UNL     1       2.514   3.364  19.812  0.00  0.00    +0.000 A 
ATOM      8  C   UNL     1       3.773   2.766  19.815  0.00  0.00    +0.000 A 
ATOM      9  C   UNL     1       4.849   3.380  19.165  0.00  0.00    +0.000 A 
ATOM     10  C   UNL     1       4.741   4.619  18.497  0.00  0.00    +0.000 A 
BRANCH  10  11
ATOM     11  N   UNL     1       5.866   5.147  17.879  0.00  0.00    +0.000 N 
ATOM     12  C   UNL     1       6.707   6.212  18.444  0.00  0.00    +0.000 C 
ATOM     13  C   UNL     1       7.125   7.216  17.358  0.00  0.00    +0.000 C 
ATOM     14  O   UNL     1       7.721   6.573  16.222  0.00  0.00    +0.000 OA
ATOM     15  C   UNL     1       6.791   5.641  15.647  0.00  0.00    +0.000 C 
ATOM     16  C   UNL     1       6.427   4.540  16.652  0.00  0.00    +0.000 C 
ENDBRANCH  10  11
BRANCH   7  17
ATOM     17  C   UNL     1       1.377   2.741  20.580  0.00  0.00    +0.000 C 
ATOM     18  F   UNL     1       0.394   3.621  20.919  0.00  0.00    +0.000 F 
ATOM     19  F   UNL     1       0.765   1.737  19.894  0.00  0.00    +0.000 F 
ATOM     20  F   UNL     1       1.793   2.186  21.754  0.00  0.00    +0.000 F 
ENDBRANCH   7  17
ENDBRANCH   3   5
BRANCH   1  21
ATOM     21  C   UNL     1       2.302   8.729  17.765  0.00  0.00    +0.000 C 
BRANCH  21  22
ATOM     22  O   UNL     1       2.214   9.919  18.554  0.00  0.00    +0.000 OA
BRANCH  22  33
ATOM     23  C   UNL     1       1.594  12.162  20.306  0.00  0.00    +0.000 C 
ATOM     24  C   UNL     1       0.594  11.477  19.430  0.00  0.00    +0.000 A 
ATOM     25  N   UNL     1      -0.678  11.947  19.517  0.00  0.00    +0.000 NA
ATOM     26  C   UNL     1      -1.603  11.371  18.728  0.00  0.00    +0.000 A 
ATOM     27  C   UNL     1      -2.927  11.794  18.781  0.00  0.00    +0.000 A 
ATOM     28  C   UNL     1      -3.909  11.210  17.979  0.00  0.00    +0.000 A 
ATOM     29  C   UNL     1      -3.565  10.191  17.098  0.00  0.00    +0.000 A 
ATOM     30  C   UNL     1      -2.243   9.753  17.042  0.00  0.00    +0.000 A 
ATOM     31  C   UNL     1      -1.262  10.317  17.849  0.00  0.00    +0.000 A 
ATOM     32  N   UNL     1      -0.004   9.841  17.781  0.00  0.00    +0.000 NA
ATOM     33  C   UNL     1       0.923  10.424  18.577  0.00  0.00    +0.000 A 
ENDBRANCH  22  33
ENDBRANCH  21  22
ENDBRANCH   1  21
TORSDOF 6
ENDMDL
MODEL 5
REMARK VINA RESULT:      -8.8      1.749      2.857
REMARK  Name = 
REMARK  7 active torsions:
REMARK  status: ('A' for Active; 'I' for Inactive)
REMARK    1  A    between atoms: C_1  and  C_2
REMARK    2  A    between atoms: C_11  and  O_12
REMARK    3  A    between atoms: O_12  and  C_13
REMARK    4  A    between atoms: C_13  and  C_14
REMARK    5  A    between atoms: N_16  and  C_17
REMARK    6  A    between atoms: C_19  and  C_20
REMARK    7  A    between atoms: C_26  and  N_27
REMARK                            x       y       z     vdW  Elec       q    Type
REMARK                         _______ _______ _______ _____ _____    ______ ____
ROOT
ATOM      1  C   UNL     1       2.395   7.737  18.592  0.00  0.00    +0.000 C 
ATOM      2  O   UNL     1       2.395   7.453  19.788  0.00  0.00    +0.000 OA
ATOM      3  N   UNL     1       2.651   6.830  17.565  0.00  0.00    +0.000 N 
ATOM      4  H   UNL     1       2.224   7.023  16.668  0.00  0.00    +0.000 HD
ENDROOT
BRANCH   3   5
ATOM      5  C   UNL     1       2.885   5.461  17.845  0.00  0.00    +0.000 A 
ATOM      6  C   UNL     1       1.865   4.773  18.536  0.00  0.00    +0.000 A 
ATOM      7  C   UNL     1       2.039   3.453  18.966  0.00  0.00    +0.000 A 
ATOM      8  C   UNL     1       3.226   2.804  18.634  0.00  0.00    +0.000 A 
ATOM      9  C   UNL     1       4.232   3.484  17.939  0.00  0.00    +0.000 A 
ATOM     10  C   UNL     1       4.125   4.839  17.555  0.00  0.00    +0.000 A 
BRANCH  10  11
ATOM     11  N   UNL     1       5.176   5.426  16.866  0.00  0.00    +0.000 N 
ATOM     12  C   UNL     1       5.521   5.139  15.466  0.00  0.00    +0.000 C 
ATOM     13  C   UNL     1       7.045   5.044  15.284  0.00  0.00    +0.000 C 
ATOM     14  O   UNL     1       7.728   6.191  15.808  0.00  0.00    +0.000 OA
ATOM     15  C   UNL     1       7.445   6.330  17.209  0.00  0.00    +0.000 C 
ATOM     16  C   UNL     1       5.945   6.550  17.445  0.00  0.00    +0.000 C 
ENDBRANCH  10  11
BRANCH   7  17
ATOM     17  C   UNL     1       0.990   2.743  19.784  0.00  0.00    +0.000 C 
ATOM     18  F   UNL     1       0.062   2.083  19.038  0.00  0.00    +0.000 F 
ATOM     19  F   UNL     1       1.520   1.819  20.632  0.00  0.00    +0.000 F 
ATOM     20  F   UNL     1       0.283   3.604  20.571  0.00  0.00    +0.000 F 
ENDBRANCH   7  17
ENDBRANCH   3   5
BRANCH   1  21
ATOM     21  C   UNL     1       2.076   9.155  18.105  0.00  0.00    +0.000 C 
BRANCH  21  22
ATOM     22  O   UNL     1       0.682   9.476  18.138  0.00  0.00    +0.000 OA
BRANCH  22  33
ATOM     23  C   UNL     1      -2.045  10.496  18.234  0.00  0.00    +0.000 C 
ATOM     24  C   UNL     1      -0.822  11.346  18.384  0.00  0.00    +0.000 A 
ATOM     25  N   UNL     1      -1.051  12.676  18.539  0.00  0.00    +0.000 NA
ATOM     26  C   UNL     1       0.024  13.470  18.699  0.00  0.00    +0.000 A 
ATOM     27  C   UNL     1      -0.141  14.844  18.847  0.00  0.00    +0.000 A 
ATOM     28  C   UNL     1       0.955  15.694  19.008  0.00  0.00    +0.000 A 
ATOM     29  C   UNL     1       2.240  15.165  19.032  0.00  0.00    +0.000 A 
ATOM     30  C   UNL     1       2.418  13.791  18.877  0.00  0.00    +0.000 A 
ATOM     31  C   UNL     1       1.334  12.939  18.699  0.00  0.00    +0.000 A 
ATOM     32  N   UNL     1       1.555  11.623  18.525  0.00  0.00    +0.000 NA
ATOM     33  C   UNL     1       0.472  10.827  18.364  0.00  0.00    +0.000 A 
ENDBRANCH  22  33
ENDBRANCH  21  22
ENDBRANCH   1  21
TORSDOF 6
ENDMDL
MODEL 6
REMARK VINA RESULT:      -8.8      3.483      8.876
REMARK  Name = 
REMARK  7 active torsions:
REMARK  status: ('A' for Active; 'I' for Inactive)
REMARK    1  A    between atoms: C_1  and  C_2
REMARK    2  A    between atoms: C_11  and  O_12
REMARK    3  A    between atoms: O_12  and  C_13
REMARK    4  A    between atoms: C_13  and  C_14
REMARK    5  A    between atoms: N_16  and  C_17
REMARK    6  A    between atoms: C_19  and  C_20
REMARK    7  A    between atoms: C_26  and  N_27
REMARK                            x       y       z     vdW  Elec       q    Type
REMARK                         _______ _______ _______ _____ _____    ______ ____
ROOT
ATOM      1  C   UNL     1       0.246   8.883  20.422  0.00  0.00    +0.000 C 
ATOM      2  O   UNL     1      -0.753   8.539  21.052  0.00  0.00    +0.000 OA
ATOM      3  N   UNL     1       0.246   9.823  19.394  0.00  0.00    +0.000 N 
ATOM      4  H   UNL     1       1.104  10.338  19.246  0.00  0.00    +0.000 HD
ENDROOT
BRANCH   3   5
ATOM      5  C   UNL     1      -0.942  10.504  19.030  0.00  0.00    +0.000 A 
ATOM      6  C   UNL     1      -1.558  10.104  17.826  0.00  0.00    +0.000 A 
ATOM      7  C   UNL     1      -2.668  10.785  17.313  0.00  0.00    +0.000 A 
ATOM      8  C   UNL     1      -3.197  11.836  18.060  0.00  0.00    +0.000 A 
ATOM      9  C   UNL     1      -2.591  12.224  19.260  0.00  0.00    +0.000 A 
ATOM     10  C   UNL     1      -1.427  11.611  19.771  0.00  0.00    +0.000 A 
BRANCH  10  11
ATOM     11  N   UNL     1      -0.901  12.066  20.972  0.00  0.00    +0.000 N 
ATOM     12  C   UNL     1      -1.395  11.677  22.301  0.00  0.00    +0.000 C 
ATOM     13  C   UNL     1      -1.429  12.886  23.249  0.00  0.00    +0.000 C 
ATOM     14  O   UNL     1      -0.172  13.577  23.297  0.00  0.00    +0.000 OA
ATOM     15  C   UNL     1       0.180  14.039  21.983  0.00  0.00    +0.000 C 
ATOM     16  C   UNL     1       0.346  12.860  21.015  0.00  0.00    +0.000 C 
ENDBRANCH  10  11
BRANCH   7  17
ATOM     17  C   UNL     1      -3.274  10.421  15.982  0.00  0.00    +0.000 C 
ATOM     18  F   UNL     1      -4.578  10.789  15.851  0.00  0.00    +0.000 F 
ATOM     19  F   UNL     1      -2.615  10.983  14.931  0.00  0.00    +0.000 F 
ATOM     20  F   UNL     1      -3.248   9.075  15.757  0.00  0.00    +0.000 F 
ENDBRANCH   7  17
ENDBRANCH   3   5
BRANCH   1  21
ATOM     21  C   UNL     1       1.631   8.310  20.743  0.00  0.00    +0.000 C 
BRANCH  21  22
ATOM     22  O   UNL     1       1.635   6.897  20.958  0.00  0.00    +0.000 OA
BRANCH  22  33
ATOM     23  C   UNL     1       1.223   4.025  20.686  0.00  0.00    +0.000 C 
ATOM     24  C   UNL     1       2.090   4.841  19.780  0.00  0.00    +0.000 A 
ATOM     25  N   UNL     1       2.730   4.147  18.803  0.00  0.00    +0.000 NA
ATOM     26  C   UNL     1       3.502   4.849  17.954  0.00  0.00    +0.000 A 
ATOM     27  C   UNL     1       4.198   4.196  16.942  0.00  0.00    +0.000 A 
ATOM     28  C   UNL     1       5.012   4.897  16.050  0.00  0.00    +0.000 A 
ATOM     29  C   UNL     1       5.128   6.278  16.162  0.00  0.00    +0.000 A 
ATOM     30  C   UNL     1       4.442   6.942  17.177  0.00  0.00    +0.000 A 
ATOM     31  C   UNL     1       3.643   6.250  18.080  0.00  0.00    +0.000 A 
ATOM     32  N   UNL     1       3.022   6.931  19.062  0.00  0.00    +0.000 NA
ATOM     33  C   UNL     1       2.246   6.220  19.914  0.00  0.00    +0.000 A 
ENDBRANCH  22  33
ENDBRANCH  21  22
ENDBRANCH   1  21
TORSDOF 6
ENDMDL
MODEL 7
REMARK VINA RESULT:      -8.8      2.298      3.289
REMARK  Name = 
REMARK  7 active torsions:
REMARK  status: ('A' for Active; 'I' for Inactive)
REMARK    1  A    between atoms: C_1  and  C_2
REMARK    2  A    between atoms: C_11  and  O_12
REMARK    3  A    between atoms: O_12  and  C_13
REMARK    4  A    between atoms: C_13  and  C_14
REMARK    5  A    between atoms: N_16  and  C_17
REMARK    6  A    between atoms: C_19  and  C_20
REMARK    7  A    between atoms: C_26  and  N_27
REMARK                            x       y       z     vdW  Elec       q    Type
REMARK                         _______ _______ _______ _____ _____    ______ ____
ROOT
ATOM      1  C   UNL     1       2.662   7.426  18.543  0.00  0.00    +0.000 C 
ATOM      2  O   UNL     1       2.369   7.375  19.736  0.00  0.00    +0.000 OA
ATOM      3  N   UNL     1       3.243   6.381  17.826  0.00  0.00    +0.000 N 
ATOM      4  H   UNL     1       3.053   6.347  16.833  0.00  0.00    +0.000 HD
ENDROOT
BRANCH   3   5
ATOM      5  C   UNL     1       3.494   5.129  18.440  0.00  0.00    +0.000 A 
ATOM      6  C   UNL     1       2.408   4.522  19.107  0.00  0.00    +0.000 A 
ATOM      7  C   UNL     1       2.573   3.345  19.845  0.00  0.00    +0.000 A 
ATOM      8  C   UNL     1       3.829   2.742  19.851  0.00  0.00    +0.000 A 
ATOM      9  C   UNL     1       4.902   3.340  19.180  0.00  0.00    +0.000 A 
ATOM     10  C   UNL     1       4.793   4.566  18.488  0.00  0.00    +0.000 A 
BRANCH  10  11
ATOM     11  N   UNL     1       5.915   5.078  17.852  0.00  0.00    +0.000 N 
ATOM     12  C   UNL     1       6.803   6.102  18.420  0.00  0.00    +0.000 C 
ATOM     13  C   UNL     1       7.219   7.123  17.349  0.00  0.00    +0.000 C 
ATOM     14  O   UNL     1       7.763   6.494  16.179  0.00  0.00    +0.000 OA
ATOM     15  C   UNL     1       6.790   5.605  15.607  0.00  0.00    +0.000 C 
ATOM     16  C   UNL     1       6.423   4.489  16.593  0.00  0.00    +0.000 C 
ENDBRANCH  10  11
BRANCH   7  17
ATOM     17  C   UNL     1       1.439   2.741  20.634  0.00  0.00    +0.000 C 
ATOM     18  F   UNL     1       1.789   2.347  21.889  0.00  0.00    +0.000 F 
ATOM     19  F   UNL     1       0.389   3.595  20.785  0.00  0.00    +0.000 F 
ATOM     20  F   UNL     1       0.927   1.630  20.030  0.00  0.00    +0.000 F 
ENDBRANCH   7  17
ENDBRANCH   3   5
BRANCH   1  21
ATOM     21  C   UNL     1       2.379   8.676  17.702  0.00  0.00    +0.000 C 
BRANCH  21  22
ATOM     22  O   UNL     1       1.132   9.306  18.007  0.00  0.00    +0.000 OA
BRANCH  22  33
ATOM     23  C   UNL     1      -0.147   9.616  20.606  0.00  0.00    +0.000 C 
ATOM     24  C   UNL     1       0.686  10.670  19.946  0.00  0.00    +0.000 A 
ATOM     25  N   UNL     1       0.795  11.840  20.628  0.00  0.00    +0.000 NA
ATOM     26  C   UNL     1       1.555  12.804  20.077  0.00  0.00    +0.000 A 
ATOM     27  C   UNL     1       1.694  14.032  20.717  0.00  0.00    +0.000 A 
ATOM     28  C   UNL     1       2.470  15.054  20.166  0.00  0.00    +0.000 A 
ATOM     29  C   UNL     1       3.128  14.847  18.960  0.00  0.00    +0.000 A 
ATOM     30  C   UNL     1       2.989  13.624  18.306  0.00  0.00    +0.000 A 
ATOM     31  C   UNL     1       2.205  12.606  18.838  0.00  0.00    +0.000 A 
ATOM     32  N   UNL     1       2.077  11.452  18.157  0.00  0.00    +0.000 NA
ATOM     33  C   UNL     1       1.312  10.484  18.714  0.00  0.00    +0.000 A 
ENDBRANCH  22  33
ENDBRANCH  21  22
ENDBRANCH   1  21
TORSDOF 6
ENDMDL
MODEL 8
REMARK VINA RESULT:      -8.7      3.330      8.591
REMARK  Name = 
REMARK  7 active torsions:
REMARK  status: ('A' for Active; 'I' for Inactive)
REMARK    1  A    between atoms: C_1  and  C_2
REMARK    2  A    between atoms: C_11  and  O_12
REMARK    3  A    between atoms: O_12  and  C_13
REMARK    4  A    between atoms: C_13  and  C_14
REMARK    5  A    between atoms: N_16  and  C_17
REMARK    6  A    between atoms: C_19  and  C_20
REMARK    7  A    between atoms: C_26  and  N_27
REMARK                            x       y       z     vdW  Elec       q    Type
REMARK                         _______ _______ _______ _____ _____    ______ ____
ROOT
ATOM      1  C   UNL     1       1.704   8.806  18.627  0.00  0.00    +0.000 C 
ATOM      2  O   UNL     1       1.723   8.970  17.409  0.00  0.00    +0.000 OA
ATOM      3  N   UNL     1       0.869   9.497  19.504  0.00  0.00    +0.000 N 
ATOM      4  H   UNL     1       0.615   9.023  20.361  0.00  0.00    +0.000 HD
ENDROOT
BRANCH   3   5
ATOM      5  C   UNL     1      -0.081  10.430  19.020  0.00  0.00    +0.000 A 
ATOM      6  C   UNL     1      -1.331   9.912  18.621  0.00  0.00    +0.000 A 
ATOM      7  C   UNL     1      -2.299  10.726  18.021  0.00  0.00    +0.000 A 
ATOM      8  C   UNL     1      -2.024  12.085  17.887  0.00  0.00    +0.000 A 
ATOM      9  C   UNL     1      -0.788  12.599  18.295  0.00  0.00    +0.000 A 
ATOM     10  C   UNL     1       0.242  11.798  18.834  0.00  0.00    +0.000 A 
BRANCH  10  11
ATOM     11  N   UNL     1       1.433  12.401  19.211  0.00  0.00    +0.000 N 
ATOM     12  C   UNL     1       1.784  12.766  20.591  0.00  0.00    +0.000 C 
ATOM     13  C   UNL     1       2.480  14.136  20.636  0.00  0.00    +0.000 C 
ATOM     14  O   UNL     1       3.593  14.212  19.733  0.00  0.00    +0.000 OA
ATOM     15  C   UNL     1       3.148  13.972  18.389  0.00  0.00    +0.000 C 
ATOM     16  C   UNL     1       2.550  12.565  18.254  0.00  0.00    +0.000 C 
ENDBRANCH  10  11
BRANCH   7  17
ATOM     17  C   UNL     1      -3.599  10.161  17.508  0.00  0.00    +0.000 C 
ATOM     18  F   UNL     1      -4.699  10.851  17.918  0.00  0.00    +0.000 F 
ATOM     19  F   UNL     1      -3.659  10.127  16.148  0.00  0.00    +0.000 F 
ATOM     20  F   UNL     1      -3.798   8.876  17.919  0.00  0.00    +0.000 F 
ENDBRANCH   7  17
ENDBRANCH   3   5
BRANCH   1  21
ATOM     21  C   UNL     1       2.605   7.771  19.311  0.00  0.00    +0.000 C 
BRANCH  21  22
ATOM     22  O   UNL     1       2.188   6.418  19.105  0.00  0.00    +0.000 OA
BRANCH  22  33
ATOM     23  C   UNL     1       1.410   3.796  18.102  0.00  0.00    +0.000 C 
ATOM     24  C   UNL     1       2.698   4.479  17.765  0.00  0.00    +0.000 A 
ATOM     25  N   UNL     1       3.539   3.775  16.962  0.00  0.00    +0.000 NA
ATOM     26  C   UNL     1       4.698   4.365  16.618  0.00  0.00    +0.000 A 
ATOM     27  C   UNL     1       5.611   3.691  15.811  0.00  0.00    +0.000 A 
ATOM     28  C   UNL     1       6.825   4.275  15.444  0.00  0.00    +0.000 A 
ATOM     29  C   UNL     1       7.132   5.559  15.879  0.00  0.00    +0.000 A 
ATOM     30  C   UNL     1       6.230   6.240  16.694  0.00  0.00    +0.000 A 
ATOM     31  C   UNL     1       5.026   5.660  17.079  0.00  0.00    +0.000 A 
ATOM     32  N   UNL     1       4.199   6.345  17.891  0.00  0.00    +0.000 NA
ATOM     33  C   UNL     1       3.033   5.748  18.235  0.00  0.00    +0.000 A 
ENDBRANCH  22  33
ENDBRANCH  21  22
ENDBRANCH   1  21
TORSDOF 6
ENDMDL
MODEL 9
REMARK VINA RESULT:      -8.6      0.829      1.063
REMARK  Name = 
REMARK  7 active torsions:
REMARK  status: ('A' for Active; 'I' for Inactive)
REMARK    1  A    between atoms: C_1  and  C_2
REMARK    2  A    between atoms: C_11  and  O_12
REMARK    3  A    between atoms: O_12  and  C_13
REMARK    4  A    between atoms: C_13  and  C_14
REMARK    5  A    between atoms: N_16  and  C_17
REMARK    6  A    between atoms: C_19  and  C_20
REMARK    7  A    between atoms: C_26  and  N_27
REMARK                            x       y       z     vdW  Elec       q    Type
REMARK                         _______ _______ _______ _____ _____    ______ ____
ROOT
ATOM      1  C   UNL     1       2.406   7.649  18.757  0.00  0.00    +0.000 C 
ATOM      2  O   UNL     1       2.197   7.337  19.927  0.00  0.00    +0.000 OA
ATOM      3  N   UNL     1       2.935   6.792  17.793  0.00  0.00    +0.000 N 
ATOM      4  H   UNL     1       2.676   6.971  16.831  0.00  0.00    +0.000 HD
ENDROOT
BRANCH   3   5
ATOM      5  C   UNL     1       3.228   5.441  18.102  0.00  0.00    +0.000 A 
ATOM      6  C   UNL     1       2.144   4.634  18.507  0.00  0.00    +0.000 A 
ATOM      7  C   UNL     1       2.337   3.321  18.947  0.00  0.00    +0.000 A 
ATOM      8  C   UNL     1       3.629   2.799  18.912  0.00  0.00    +0.000 A 
ATOM      9  C   UNL     1       4.702   3.597  18.500  0.00  0.00    +0.000 A 
ATOM     10  C   UNL     1       4.557   4.949  18.121  0.00  0.00    +0.000 A 
BRANCH  10  11
ATOM     11  N   UNL     1       5.682   5.658  17.725  0.00  0.00    +0.000 N 
ATOM     12  C   UNL     1       7.052   5.369  18.174  0.00  0.00    +0.000 C 
ATOM     13  C   UNL     1       7.821   6.668  18.463  0.00  0.00    +0.000 C 
ATOM     14  O   UNL     1       7.772   7.586  17.361  0.00  0.00    +0.000 OA
ATOM     15  C   UNL     1       6.407   7.922  17.066  0.00  0.00    +0.000 C 
ATOM     16  C   UNL     1       5.615   6.674  16.652  0.00  0.00    +0.000 C 
ENDBRANCH  10  11
BRANCH   7  17
ATOM     17  C   UNL     1       1.196   2.485  19.468  0.00  0.00    +0.000 C 
ATOM     18  F   UNL     1       0.729   2.884  20.683  0.00  0.00    +0.000 F 
ATOM     19  F   UNL     1       0.121   2.483  18.632  0.00  0.00    +0.000 F 
ATOM     20  F   UNL     1       1.546   1.175  19.622  0.00  0.00    +0.000 F 
ENDBRANCH   7  17
ENDBRANCH   3   5
BRANCH   1  21
ATOM     21  C   UNL     1       2.065   9.047  18.227  0.00  0.00    +0.000 C 
BRANCH  21  22
ATOM     22  O   UNL     1       1.598   9.947  19.236  0.00  0.00    +0.000 OA
BRANCH  22  33
ATOM     23  C   UNL     1       0.315  11.787  21.095  0.00  0.00    +0.000 C 
ATOM     24  C   UNL     1      -0.336  11.247  19.861  0.00  0.00    +0.000 A 
ATOM     25  N   UNL     1      -1.619  11.645  19.656  0.00  0.00    +0.000 NA
ATOM     26  C   UNL     1      -2.231  11.199  18.544  0.00  0.00    +0.000 A 
ATOM     27  C   UNL     1      -3.550  11.556  18.284  0.00  0.00    +0.000 A 
ATOM     28  C   UNL     1      -4.214  11.102  17.142  0.00  0.00    +0.000 A 
ATOM     29  C   UNL     1      -3.548  10.285  16.236  0.00  0.00    +0.000 A 
ATOM     30  C   UNL     1      -2.229   9.914  16.491  0.00  0.00    +0.000 A 
ATOM     31  C   UNL     1      -1.565  10.347  17.633  0.00  0.00    +0.000 A 
ATOM     32  N   UNL     1      -0.301   9.940  17.852  0.00  0.00    +0.000 NA
ATOM     33  C   UNL     1       0.312  10.391  18.971  0.00  0.00    +0.000 A 
ENDBRANCH  22  33
ENDBRANCH  21  22
ENDBRANCH   1  21
TORSDOF 6
ENDMDL
