MODEL 1
REMARK VINA RESULT:      -8.2      0.000      0.000
REMARK  Name = 
REMARK  6 active torsions:
REMARK  status: ('A' for Active; 'I' for Inactive)
REMARK    1  A    between atoms: C_1  and  C_2
REMARK    2  A    between atoms: C_2  and  O_4
REMARK    3  A    between atoms: O_4  and  C_5
REMARK    4  A    between atoms: C_14  and  C_15
REMARK    5  A    between atoms: C_16  and  C_17
REMARK    6  A    between atoms: C_22  and  C_23
REMARK                            x       y       z     vdW  Elec       q    Type
REMARK                         _______ _______ _______ _____ _____    ______ ____
ROOT
ATOM      1  C   UNL     1       3.321   4.877  19.802  0.00  0.00    +0.000 A 
ATOM      2  C   UNL     1       4.142   3.987  19.105  0.00  0.00    +0.000 A 
ATOM      3 CL   UNL     1       4.448   2.392  19.683  0.00  0.00    +0.000 Cl
ATOM      4  C   UNL     1       4.698   4.371  17.892  0.00  0.00    +0.000 A 
ATOM      5  C   UNL     1       4.407   5.635  17.376  0.00  0.00    +0.000 A 
ATOM      6 CL   UNL     1       5.134   6.047  15.858  0.00  0.00    +0.000 Cl
ATOM      7  C   UNL     1       3.535   6.526  18.055  0.00  0.00    +0.000 A 
ATOM      8  C   UNL     1       3.151   7.792  17.563  0.00  0.00    +0.000 A 
ATOM      9  C   UNL     1       2.275   8.603  18.282  0.00  0.00    +0.000 A 
ATOM     10  C   UNL     1       1.784   8.140  19.487  0.00  0.00    +0.000 A 
ATOM     11  N   UNL     1       2.102   6.917  19.960  0.00  0.00    +0.000 NA
ATOM     12  C   UNL     1       2.977   6.134  19.288  0.00  0.00    +0.000 A 
ENDROOT
BRANCH  10  13
ATOM     13  C   UNL     1       0.874   8.962  20.296  0.00  0.00    +0.000 C 
ATOM     14  C   UNL     1       0.285  10.085  19.852  0.00  0.00    +0.000 C 
BRANCH  14  15
ATOM     15  C   UNL     1      -0.576  10.906  20.710  0.00  0.00    +0.000 A 
ATOM     16  C   UNL     1      -0.370  10.832  22.097  0.00  0.00    +0.000 A 
ATOM     17  C   UNL     1      -1.145  11.591  22.976  0.00  0.00    +0.000 A 
ATOM     18  C   UNL     1      -2.133  12.438  22.479  0.00  0.00    +0.000 A 
ATOM     19  C   UNL     1      -2.349  12.519  21.103  0.00  0.00    +0.000 A 
ATOM     20  C   UNL     1      -1.581  11.757  20.211  0.00  0.00    +0.000 A 
BRANCH  20  21
ATOM     21  C   UNL     1      -1.850  11.868  18.802  0.00  0.00    +0.000 C 
ATOM     22  N   UNL     1      -2.030  11.926  17.659  0.00  0.00    +0.000 NA
ENDBRANCH  20  21
ENDBRANCH  14  15
ENDBRANCH  10  13
BRANCH   1  23
ATOM     23  O   UNL     1       2.691   4.425  20.982  0.00  0.00    +0.000 OA
BRANCH  23  25
ATOM     24  C   UNL     1       1.559   2.559  21.837  0.00  0.00    +0.000 C 
ATOM     25  C   UNL     1       1.556   3.638  20.797  0.00  0.00    +0.000 C 
ATOM     26  O   UNL     1       0.692   3.791  19.942  0.00  0.00    +0.000 OA
ENDBRANCH  23  25
ENDBRANCH   1  23
TORSDOF 5
ENDMDL
MODEL 2
REMARK VINA RESULT:      -8.0      1.336      1.604
REMARK  Name = 
REMARK  6 active torsions:
REMARK  status: ('A' for Active; 'I' for Inactive)
REMARK    1  A    between atoms: C_1  and  C_2
REMARK    2  A    between atoms: C_2  and  O_4
REMARK    3  A    between atoms: O_4  and  C_5
REMARK    4  A    between atoms: C_14  and  C_15
REMARK    5  A    between atoms: C_16  and  C_17
REMARK    6  A    between atoms: C_22  and  C_23
REMARK                            x       y       z     vdW  Elec       q    Type
REMARK                         _______ _______ _______ _____ _____    ______ ____
ROOT
ATOM      1  C   UNL     1       3.130   3.790  18.679  0.00  0.00    +0.000 A 
ATOM      2  C   UNL     1       3.843   2.972  17.799  0.00  0.00    +0.000 A 
ATOM      3 CL   UNL     1       3.755   1.252  17.885  0.00  0.00    +0.000 Cl
ATOM      4  C   UNL     1       4.615   3.547  16.798  0.00  0.00    +0.000 A 
ATOM      5  C   UNL     1       4.646   4.937  16.672  0.00  0.00    +0.000 A 
ATOM      6 CL   UNL     1       5.628   5.587  15.401  0.00  0.00    +0.000 Cl
ATOM      7  C   UNL     1       3.884   5.773  17.531  0.00  0.00    +0.000 A 
ATOM      8  C   UNL     1       3.821   7.178  17.423  0.00  0.00    +0.000 A 
ATOM      9  C   UNL     1       3.036   7.928  18.295  0.00  0.00    +0.000 A 
ATOM     10  C   UNL     1       2.314   7.267  19.269  0.00  0.00    +0.000 A 
ATOM     11  N   UNL     1       2.323   5.922  19.368  0.00  0.00    +0.000 NA
ATOM     12  C   UNL     1       3.106   5.184  18.549  0.00  0.00    +0.000 A 
ENDROOT
BRANCH  10  13
ATOM     13  C   UNL     1       1.485   8.010  20.228  0.00  0.00    +0.000 C 
ATOM     14  C   UNL     1       0.994   9.239  19.999  0.00  0.00    +0.000 C 
BRANCH  14  15
ATOM     15  C   UNL     1       0.215   9.968  21.006  0.00  0.00    +0.000 A 
ATOM     16  C   UNL     1      -0.011   9.332  22.237  0.00  0.00    +0.000 A 
ATOM     17  C   UNL     1      -0.735   9.968  23.247  0.00  0.00    +0.000 A 
ATOM     18  C   UNL     1      -1.240  11.250  23.041  0.00  0.00    +0.000 A 
ATOM     19  C   UNL     1      -1.024  11.892  21.821  0.00  0.00    +0.000 A 
ATOM     20  C   UNL     1      -0.302  11.262  20.797  0.00  0.00    +0.000 A 
BRANCH  20  21
ATOM     21  C   UNL     1      -0.116  11.961  19.554  0.00  0.00    +0.000 C 
ATOM     22  N   UNL     1       0.075  12.499  18.546  0.00  0.00    +0.000 NA
ENDBRANCH  20  21
ENDBRANCH  14  15
ENDBRANCH  10  13
BRANCH   1  23
ATOM     23  O   UNL     1       2.277   3.177  19.622  0.00  0.00    +0.000 OA
BRANCH  23  25
ATOM     24  C   UNL     1       1.859   3.077  21.926  0.00  0.00    +0.000 C 
ATOM     25  C   UNL     1       2.864   2.843  20.841  0.00  0.00    +0.000 C 
ATOM     26  O   UNL     1       4.003   2.423  21.012  0.00  0.00    +0.000 OA
ENDBRANCH  23  25
ENDBRANCH   1  23
TORSDOF 5
ENDMDL
MODEL 3
REMARK VINA RESULT:      -7.8      0.956      1.204
REMARK  Name = 
REMARK  6 active torsions:
REMARK  status: ('A' for Active; 'I' for Inactive)
REMARK    1  A    between atoms: C_1  and  C_2
REMARK    2  A    between atoms: C_2  and  O_4
REMARK    3  A    between atoms: O_4  and  C_5
REMARK    4  A    between atoms: C_14  and  C_15
REMARK    5  A    between atoms: C_16  and  C_17
REMARK    6  A    between atoms: C_22  and  C_23
REMARK                            x       y       z     vdW  Elec       q    Type
REMARK                         _______ _______ _______ _____ _____    ______ ____
ROOT
ATOM      1  C   UNL     1       3.467   4.791  19.761  0.00  0.00    +0.000 A 
ATOM      2  C   UNL     1       4.345   3.800  19.314  0.00  0.00    +0.000 A 
ATOM      3 CL   UNL     1       4.468   2.273  20.106  0.00  0.00    +0.000 Cl
ATOM      4  C   UNL     1       5.114   4.022  18.179  0.00  0.00    +0.000 A 
ATOM      5  C   UNL     1       4.978   5.227  17.488  0.00  0.00    +0.000 A 
ATOM      6 CL   UNL     1       5.967   5.437  16.080  0.00  0.00    +0.000 Cl
ATOM      7  C   UNL     1       4.052   6.219  17.907  0.00  0.00    +0.000 A 
ATOM      8  C   UNL     1       3.821   7.431  17.222  0.00  0.00    +0.000 A 
ATOM      9  C   UNL     1       2.881   8.347  17.688  0.00  0.00    +0.000 A 
ATOM     10  C   UNL     1       2.175   8.043  18.835  0.00  0.00    +0.000 A 
ATOM     11  N   UNL     1       2.346   6.874  19.486  0.00  0.00    +0.000 NA
ATOM     12  C   UNL     1       3.278   5.990  19.062  0.00  0.00    +0.000 A 
ENDROOT
BRANCH  10  13
ATOM     13  C   UNL     1       1.186   8.983  19.383  0.00  0.00    +0.000 C 
ATOM     14  C   UNL     1       0.228   9.573  18.650  0.00  0.00    +0.000 C 
BRANCH  14  15
ATOM     15  C   UNL     1      -0.707  10.547  19.226  0.00  0.00    +0.000 A 
ATOM     16  C   UNL     1      -0.452  10.996  20.532  0.00  0.00    +0.000 A 
ATOM     17  C   UNL     1      -1.292  11.929  21.143  0.00  0.00    +0.000 A 
ATOM     18  C   UNL     1      -2.395  12.429  20.453  0.00  0.00    +0.000 A 
ATOM     19  C   UNL     1      -2.660  11.988  19.156  0.00  0.00    +0.000 A 
ATOM     20  C   UNL     1      -1.827  11.047  18.535  0.00  0.00    +0.000 A 
BRANCH  20  21
ATOM     21  C   UNL     1      -2.149  10.617  17.200  0.00  0.00    +0.000 C 
ATOM     22  N   UNL     1      -2.365  10.248  16.124  0.00  0.00    +0.000 NA
ENDBRANCH  20  21
ENDBRANCH  14  15
ENDBRANCH  10  13
BRANCH   1  23
ATOM     23  O   UNL     1       2.627   4.499  20.857  0.00  0.00    +0.000 OA
BRANCH  23  25
ATOM     24  C   UNL     1       1.443   2.642  21.659  0.00  0.00    +0.000 C 
ATOM     25  C   UNL     1       1.536   3.679  20.582  0.00  0.00    +0.000 C 
ATOM     26  O   UNL     1       0.770   3.776  19.630  0.00  0.00    +0.000 OA
ENDBRANCH  23  25
ENDBRANCH   1  23
TORSDOF 5
ENDMDL
MODEL 4
REMARK VINA RESULT:      -7.7      1.440      1.778
REMARK  Name = 
REMARK  6 active torsions:
REMARK  status: ('A' for Active; 'I' for Inactive)
REMARK    1  A    between atoms: C_1  and  C_2
REMARK    2  A    between atoms: C_2  and  O_4
REMARK    3  A    between atoms: O_4  and  C_5
REMARK    4  A    between atoms: C_14  and  C_15
REMARK    5  A    between atoms: C_16  and  C_17
REMARK    6  A    between atoms: C_22  and  C_23
REMARK                            x       y       z     vdW  Elec       q    Type
REMARK                         _______ _______ _______ _____ _____    ______ ____
ROOT
ATOM      1  C   UNL     1       2.805   4.155  18.621  0.00  0.00    +0.000 A 
ATOM      2  C   UNL     1       3.569   3.105  18.103  0.00  0.00    +0.000 A 
ATOM      3 CL   UNL     1       3.216   1.458  18.472  0.00  0.00    +0.000 Cl
ATOM      4  C   UNL     1       4.617   3.380  17.235  0.00  0.00    +0.000 A 
ATOM      5  C   UNL     1       4.875   4.703  16.873  0.00  0.00    +0.000 A 
ATOM      6 CL   UNL     1       6.197   4.973  15.785  0.00  0.00    +0.000 Cl
ATOM      7  C   UNL     1       4.073   5.770  17.355  0.00  0.00    +0.000 A 
ATOM      8  C   UNL     1       4.240   7.121  16.984  0.00  0.00    +0.000 A 
ATOM      9  C   UNL     1       3.399   8.111  17.488  0.00  0.00    +0.000 A 
ATOM     10  C   UNL     1       2.392   7.741  18.359  0.00  0.00    +0.000 A 
ATOM     11  N   UNL     1       2.184   6.452  18.698  0.00  0.00    +0.000 NA
ATOM     12  C   UNL     1       3.014   5.487  18.241  0.00  0.00    +0.000 A 
ENDROOT
BRANCH  10  13
ATOM     13  C   UNL     1       1.490   8.747  18.938  0.00  0.00    +0.000 C 
ATOM     14  C   UNL     1       0.923   9.739  18.232  0.00  0.00    +0.000 C 
BRANCH  14  15
ATOM     15  C   UNL     1       0.069  10.754  18.859  0.00  0.00    +0.000 A 
ATOM     16  C   UNL     1       0.605  11.475  19.938  0.00  0.00    +0.000 A 
ATOM     17  C   UNL     1      -0.145  12.463  20.579  0.00  0.00    +0.000 A 
ATOM     18  C   UNL     1      -1.439  12.746  20.146  0.00  0.00    +0.000 A 
ATOM     19  C   UNL     1      -1.983  12.034  19.077  0.00  0.00    +0.000 A 
ATOM     20  C   UNL     1      -1.242  11.036  18.429  0.00  0.00    +0.000 A 
BRANCH  20  21
ATOM     21  C   UNL     1      -1.852  10.323  17.338  0.00  0.00    +0.000 C 
ATOM     22  N   UNL     1      -2.379   9.736  16.490  0.00  0.00    +0.000 NA
ENDBRANCH  20  21
ENDBRANCH  14  15
ENDBRANCH  10  13
BRANCH   1  23
ATOM     23  O   UNL     1       1.687   3.839  19.422  0.00  0.00    +0.000 OA
BRANCH  23  25
ATOM     24  C   UNL     1       1.375   2.562  21.362  0.00  0.00    +0.000 C 
ATOM     25  C   UNL     1       1.907   3.843  20.797  0.00  0.00    +0.000 C 
ATOM     26  O   UNL     1       2.446   4.731  21.448  0.00  0.00    +0.000 OA
ENDBRANCH  23  25
ENDBRANCH   1  23
TORSDOF 5
ENDMDL
MODEL 5
REMARK VINA RESULT:      -7.7      1.384      2.028
REMARK  Name = 
REMARK  6 active torsions:
REMARK  status: ('A' for Active; 'I' for Inactive)
REMARK    1  A    between atoms: C_1  and  C_2
REMARK    2  A    between atoms: C_2  and  O_4
REMARK    3  A    between atoms: O_4  and  C_5
REMARK    4  A    between atoms: C_14  and  C_15
REMARK    5  A    between atoms: C_16  and  C_17
REMARK    6  A    between atoms: C_22  and  C_23
REMARK                            x       y       z     vdW  Elec       q    Type
REMARK                         _______ _______ _______ _____ _____    ______ ____
ROOT
ATOM      1  C   UNL     1       3.143   5.336  19.836  0.00  0.00    +0.000 A 
ATOM      2  C   UNL     1       4.120   4.502  19.286  0.00  0.00    +0.000 A 
ATOM      3 CL   UNL     1       4.463   2.948  19.949  0.00  0.00    +0.000 Cl
ATOM      4  C   UNL     1       4.810   4.907  18.151  0.00  0.00    +0.000 A 
ATOM      5  C   UNL     1       4.498   6.134  17.563  0.00  0.00    +0.000 A 
ATOM      6 CL   UNL     1       5.397   6.574  16.149  0.00  0.00    +0.000 Cl
ATOM      7  C   UNL     1       3.472   6.964  18.087  0.00  0.00    +0.000 A 
ATOM      8  C   UNL     1       3.065   8.185  17.509  0.00  0.00    +0.000 A 
ATOM      9  C   UNL     1       2.037   8.936  18.074  0.00  0.00    +0.000 A 
ATOM     10  C   UNL     1       1.419   8.458  19.213  0.00  0.00    +0.000 A 
ATOM     11  N   UNL     1       1.760   7.274  19.762  0.00  0.00    +0.000 NA
ATOM     12  C   UNL     1       2.778   6.552  19.242  0.00  0.00    +0.000 A 
ENDROOT
BRANCH  10  13
ATOM     13  C   UNL     1       0.343   9.220  19.863  0.00  0.00    +0.000 C 
ATOM     14  C   UNL     1       0.500  10.453  20.371  0.00  0.00    +0.000 C 
BRANCH  14  15
ATOM     15  C   UNL     1      -0.587  11.157  21.059  0.00  0.00    +0.000 A 
ATOM     16  C   UNL     1      -1.368  12.044  20.301  0.00  0.00    +0.000 A 
ATOM     17  C   UNL     1      -2.426  12.743  20.884  0.00  0.00    +0.000 A 
ATOM     18  C   UNL     1      -2.720  12.561  22.234  0.00  0.00    +0.000 A 
ATOM     19  C   UNL     1      -1.950  11.684  22.999  0.00  0.00    +0.000 A 
ATOM     20  C   UNL     1      -0.882  10.981  22.425  0.00  0.00    +0.000 A 
BRANCH  20  21
ATOM     21  C   UNL     1      -0.111  10.097  23.259  0.00  0.00    +0.000 C 
ATOM     22  N   UNL     1       0.532   9.370  23.891  0.00  0.00    +0.000 NA
ENDBRANCH  20  21
ENDBRANCH  14  15
ENDBRANCH  10  13
BRANCH   1  23
ATOM     23  O   UNL     1       2.389   4.857  20.930  0.00  0.00    +0.000 OA
BRANCH  23  25
ATOM     24  C   UNL     1       1.494   2.835  21.706  0.00  0.00    +0.000 C 
ATOM     25  C   UNL     1       1.446   3.877  20.631  0.00  0.00    +0.000 C 
ATOM     26  O   UNL     1       0.695   3.857  19.663  0.00  0.00    +0.000 OA
ENDBRANCH  23  25
ENDBRANCH   1  23
TORSDOF 5
ENDMDL
MODEL 6
REMARK VINA RESULT:      -7.7      1.807      2.571
REMARK  Name = 
REMARK  6 active torsions:
REMARK  status: ('A' for Active; 'I' for Inactive)
REMARK    1  A    between atoms: C_1  and  C_2
REMARK    2  A    between atoms: C_2  and  O_4
REMARK    3  A    between atoms: O_4  and  C_5
REMARK    4  A    between atoms: C_14  and  C_15
REMARK    5  A    between atoms: C_16  and  C_17
REMARK    6  A    between atoms: C_22  and  C_23
REMARK                            x       y       z     vdW  Elec       q    Type
REMARK                         _______ _______ _______ _____ _____    ______ ____
ROOT
ATOM      1  C   UNL     1       2.895   4.172  18.446  0.00  0.00    +0.000 A 
ATOM      2  C   UNL     1       3.624   3.024  18.127  0.00  0.00    +0.000 A 
ATOM      3 CL   UNL     1       3.098   1.453  18.604  0.00  0.00    +0.000 Cl
ATOM      4  C   UNL     1       4.784   3.134  17.371  0.00  0.00    +0.000 A 
ATOM      5  C   UNL     1       5.189   4.392  16.920  0.00  0.00    +0.000 A 
ATOM      6 CL   UNL     1       6.644   4.455  15.981  0.00  0.00    +0.000 Cl
ATOM      7  C   UNL     1       4.426   5.556  17.198  0.00  0.00    +0.000 A 
ATOM      8  C   UNL     1       4.744   6.847  16.724  0.00  0.00    +0.000 A 
ATOM      9  C   UNL     1       3.934   7.939  17.027  0.00  0.00    +0.000 A 
ATOM     10  C   UNL     1       2.808   7.733  17.798  0.00  0.00    +0.000 A 
ATOM     11  N   UNL     1       2.458   6.503  18.229  0.00  0.00    +0.000 NA
ATOM     12  C   UNL     1       3.253   5.440  17.970  0.00  0.00    +0.000 A 
ENDROOT
BRANCH  10  13
ATOM     13  C   UNL     1       1.929   8.853  18.165  0.00  0.00    +0.000 C 
ATOM     14  C   UNL     1       1.137   8.859  19.249  0.00  0.00    +0.000 C 
BRANCH  14  15
ATOM     15  C   UNL     1       0.236   9.977  19.551  0.00  0.00    +0.000 A 
ATOM     16  C   UNL     1      -0.441  10.573  18.474  0.00  0.00    +0.000 A 
ATOM     17  C   UNL     1      -1.322  11.635  18.684  0.00  0.00    +0.000 A 
ATOM     18  C   UNL     1      -1.541  12.112  19.975  0.00  0.00    +0.000 A 
ATOM     19  C   UNL     1      -0.873  11.530  21.053  0.00  0.00    +0.000 A 
ATOM     20  C   UNL     1       0.018  10.467  20.853  0.00  0.00    +0.000 A 
BRANCH  20  21
ATOM     21  C   UNL     1       0.691   9.908  21.995  0.00  0.00    +0.000 C 
ATOM     22  N   UNL     1       1.200   9.480  22.944  0.00  0.00    +0.000 NA
ENDBRANCH  20  21
ENDBRANCH  14  15
ENDBRANCH  10  13
BRANCH   1  23
ATOM     23  O   UNL     1       1.669   4.020  19.130  0.00  0.00    +0.000 OA
BRANCH  23  25
ATOM     24  C   UNL     1       1.123   2.813  21.063  0.00  0.00    +0.000 C 
ATOM     25  C   UNL     1       1.744   4.064  20.521  0.00  0.00    +0.000 C 
ATOM     26  O   UNL     1       2.233   4.960  21.198  0.00  0.00    +0.000 OA
ENDBRANCH  23  25
ENDBRANCH   1  23
TORSDOF 5
ENDMDL
MODEL 7
REMARK VINA RESULT:      -7.6      1.599      2.237
REMARK  Name = 
REMARK  6 active torsions:
REMARK  status: ('A' for Active; 'I' for Inactive)
REMARK    1  A    between atoms: C_1  and  C_2
REMARK    2  A    between atoms: C_2  and  O_4
REMARK    3  A    between atoms: O_4  and  C_5
REMARK    4  A    between atoms: C_14  and  C_15
REMARK    5  A    between atoms: C_16  and  C_17
REMARK    6  A    between atoms: C_22  and  C_23
REMARK                            x       y       z     vdW  Elec       q    Type
REMARK                         _______ _______ _______ _____ _____    ______ ____
ROOT
ATOM      1  C   UNL     1       3.534   4.712  19.717  0.00  0.00    +0.000 A 
ATOM      2  C   UNL     1       4.402   3.637  19.504  0.00  0.00    +0.000 A 
ATOM      3 CL   UNL     1       4.325   2.204  20.460  0.00  0.00    +0.000 Cl
ATOM      4  C   UNL     1       5.329   3.697  18.472  0.00  0.00    +0.000 A 
ATOM      5  C   UNL     1       5.362   4.822  17.647  0.00  0.00    +0.000 A 
ATOM      6 CL   UNL     1       6.542   4.829  16.378  0.00  0.00    +0.000 Cl
ATOM      7  C   UNL     1       4.450   5.896  17.826  0.00  0.00    +0.000 A 
ATOM      8  C   UNL     1       4.387   7.033  16.994  0.00  0.00    +0.000 A 
ATOM      9  C   UNL     1       3.451   8.038  17.225  0.00  0.00    +0.000 A 
ATOM     10  C   UNL     1       2.578   7.896  18.286  0.00  0.00    +0.000 A 
ATOM     11  N   UNL     1       2.589   6.800  19.072  0.00  0.00    +0.000 NA
ATOM     12  C   UNL     1       3.514   5.833  18.878  0.00  0.00    +0.000 A 
ENDROOT
BRANCH  10  13
ATOM     13  C   UNL     1       1.584   8.936  18.589  0.00  0.00    +0.000 C 
ATOM     14  C   UNL     1       1.043   9.123  19.804  0.00  0.00    +0.000 C 
BRANCH  14  15
ATOM     15  C   UNL     1       0.014  10.139  20.051  0.00  0.00    +0.000 A 
ATOM     16  C   UNL     1      -0.614  10.712  18.933  0.00  0.00    +0.000 A 
ATOM     17  C   UNL     1      -1.610  11.678  19.090  0.00  0.00    +0.000 A 
ATOM     18  C   UNL     1      -1.993  12.081  20.368  0.00  0.00    +0.000 A 
ATOM     19  C   UNL     1      -1.375  11.521  21.486  0.00  0.00    +0.000 A 
ATOM     20  C   UNL     1      -0.370  10.554  21.341  0.00  0.00    +0.000 A 
BRANCH  20  21
ATOM     21  C   UNL     1       0.244  10.015  22.525  0.00  0.00    +0.000 C 
ATOM     22  N   UNL     1       0.751   9.542  23.452  0.00  0.00    +0.000 NA
ENDBRANCH  20  21
ENDBRANCH  14  15
ENDBRANCH  10  13
BRANCH   1  23
ATOM     23  O   UNL     1       2.538   4.583  20.709  0.00  0.00    +0.000 OA
BRANCH  23  25
ATOM     24  C   UNL     1       1.217   2.845  21.563  0.00  0.00    +0.000 C 
ATOM     25  C   UNL     1       1.473   3.742  20.391  0.00  0.00    +0.000 C 
ATOM     26  O   UNL     1       0.841   3.729  19.341  0.00  0.00    +0.000 OA
ENDBRANCH  23  25
ENDBRANCH   1  23
TORSDOF 5
ENDMDL
MODEL 8
REMARK VINA RESULT:      -7.5      1.748      2.061
REMARK  Name = 
REMARK  6 active torsions:
REMARK  status: ('A' for Active; 'I' for Inactive)
REMARK    1  A    between atoms: C_1  and  C_2
REMARK    2  A    between atoms: C_2  and  O_4
REMARK    3  A    between atoms: O_4  and  C_5
REMARK    4  A    between atoms: C_14  and  C_15
REMARK    5  A    between atoms: C_16  and  C_17
REMARK    6  A    between atoms: C_22  and  C_23
REMARK                            x       y       z     vdW  Elec       q    Type
REMARK                         _______ _______ _______ _____ _____    ______ ____
ROOT
ATOM      1  C   UNL     1       3.553   4.639  19.770  0.00  0.00    +0.000 A 
ATOM      2  C   UNL     1       4.404   3.580  19.444  0.00  0.00    +0.000 A 
ATOM      3 CL   UNL     1       4.411   2.110  20.346  0.00  0.00    +0.000 Cl
ATOM      4  C   UNL     1       5.242   3.686  18.342  0.00  0.00    +0.000 A 
ATOM      5  C   UNL     1       5.203   4.843  17.562  0.00  0.00    +0.000 A 
ATOM      6 CL   UNL     1       6.274   4.906  16.202  0.00  0.00    +0.000 Cl
ATOM      7  C   UNL     1       4.305   5.902  17.858  0.00  0.00    +0.000 A 
ATOM      8  C   UNL     1       4.170   7.071  17.079  0.00  0.00    +0.000 A 
ATOM      9  C   UNL     1       3.252   8.059  17.426  0.00  0.00    +0.000 A 
ATOM     10  C   UNL     1       2.471   7.870  18.549  0.00  0.00    +0.000 A 
ATOM     11  N   UNL     1       2.550   6.744  19.288  0.00  0.00    +0.000 NA
ATOM     12  C   UNL     1       3.459   5.792  18.980  0.00  0.00    +0.000 A 
ENDROOT
BRANCH  10  13
ATOM     13  C   UNL     1       1.501   8.890  18.973  0.00  0.00    +0.000 C 
ATOM     14  C   UNL     1       1.024   9.851  18.165  0.00  0.00    +0.000 C 
BRANCH  14  15
ATOM     15  C   UNL     1       0.096  10.883  18.644  0.00  0.00    +0.000 A 
ATOM     16  C   UNL     1      -1.222  10.491  18.925  0.00  0.00    +0.000 A 
ATOM     17  C   UNL     1      -2.158  11.414  19.393  0.00  0.00    +0.000 A 
ATOM     18  C   UNL     1      -1.786  12.743  19.589  0.00  0.00    +0.000 A 
ATOM     19  C   UNL     1      -0.480  13.146  19.311  0.00  0.00    +0.000 A 
ATOM     20  C   UNL     1       0.467  12.228  18.836  0.00  0.00    +0.000 A 
BRANCH  20  21
ATOM     21  C   UNL     1       1.798  12.695  18.554  0.00  0.00    +0.000 C 
ATOM     22  N   UNL     1       2.865  13.056  18.282  0.00  0.00    +0.000 NA
ENDBRANCH  20  21
ENDBRANCH  14  15
ENDBRANCH  10  13
BRANCH   1  23
ATOM     23  O   UNL     1       2.642   4.465  20.835  0.00  0.00    +0.000 OA
BRANCH  23  25
ATOM     24  C   UNL     1       1.331   2.720  21.689  0.00  0.00    +0.000 C 
ATOM     25  C   UNL     1       1.527   3.678  20.554  0.00  0.00    +0.000 C 
ATOM     26  O   UNL     1       0.815   3.749  19.560  0.00  0.00    +0.000 OA
ENDBRANCH  23  25
ENDBRANCH   1  23
TORSDOF 5
ENDMDL
MODEL 9
REMARK VINA RESULT:      -7.4      1.813      2.297
REMARK  Name = 
REMARK  6 active torsions:
REMARK  status: ('A' for Active; 'I' for Inactive)
REMARK    1  A    between atoms: C_1  and  C_2
REMARK    2  A    between atoms: C_2  and  O_4
REMARK    3  A    between atoms: O_4  and  C_5
REMARK    4  A    between atoms: C_14  and  C_15
REMARK    5  A    between atoms: C_16  and  C_17
REMARK    6  A    between atoms: C_22  and  C_23
REMARK                            x       y       z     vdW  Elec       q    Type
REMARK                         _______ _______ _______ _____ _____    ______ ____
ROOT
ATOM      1  C   UNL     1       2.813   4.163  18.609  0.00  0.00    +0.000 A 
ATOM      2  C   UNL     1       3.573   3.088  18.140  0.00  0.00    +0.000 A 
ATOM      3 CL   UNL     1       3.186   1.458  18.545  0.00  0.00    +0.000 Cl
ATOM      4  C   UNL     1       4.647   3.324  17.292  0.00  0.00    +0.000 A 
ATOM      5  C   UNL     1       4.935   4.633  16.902  0.00  0.00    +0.000 A 
ATOM      6 CL   UNL     1       6.288   4.854  15.842  0.00  0.00    +0.000 Cl
ATOM      7  C   UNL     1       4.137   5.725  17.334  0.00  0.00    +0.000 A 
ATOM      8  C   UNL     1       4.334   7.062  16.931  0.00  0.00    +0.000 A 
ATOM      9  C   UNL     1       3.495   8.077  17.386  0.00  0.00    +0.000 A 
ATOM     10  C   UNL     1       2.461   7.747  18.239  0.00  0.00    +0.000 A 
ATOM     11  N   UNL     1       2.225   6.471  18.607  0.00  0.00    +0.000 NA
ATOM     12  C   UNL     1       3.051   5.481  18.198  0.00  0.00    +0.000 A 
ENDROOT
BRANCH  10  13
ATOM     13  C   UNL     1       1.559   8.781  18.767  0.00  0.00    +0.000 C 
ATOM     14  C   UNL     1       1.429  10.005  18.231  0.00  0.00    +0.000 C 
BRANCH  14  15
ATOM     15  C   UNL     1       0.556  11.026  18.820  0.00  0.00    +0.000 A 
ATOM     16  C   UNL     1      -0.702  10.613  19.288  0.00  0.00    +0.000 A 
ATOM     17  C   UNL     1      -1.583  11.526  19.870  0.00  0.00    +0.000 A 
ATOM     18  C   UNL     1      -1.215  12.864  19.995  0.00  0.00    +0.000 A 
ATOM     19  C   UNL     1       0.031  13.288  19.532  0.00  0.00    +0.000 A 
ATOM     20  C   UNL     1       0.921  12.381  18.942  0.00  0.00    +0.000 A 
BRANCH  20  21
ATOM     21  C   UNL     1       2.190  12.869  18.471  0.00  0.00    +0.000 C 
ATOM     22  N   UNL     1       3.215  13.290  18.131  0.00  0.00    +0.000 NA
ENDBRANCH  20  21
ENDBRANCH  14  15
ENDBRANCH  10  13
BRANCH   1  23
ATOM     23  O   UNL     1       1.669   3.886  19.388  0.00  0.00    +0.000 OA
BRANCH  23  25
ATOM     24  C   UNL     1       1.319   2.616  21.327  0.00  0.00    +0.000 C 
ATOM     25  C   UNL     1       1.861   3.896  20.768  0.00  0.00    +0.000 C 
ATOM     26  O   UNL     1       2.384   4.787  21.427  0.00  0.00    +0.000 OA
ENDBRANCH  23  25
ENDBRANCH   1  23
TORSDOF 5
ENDMDL
