MODEL 1
REMARK VINA RESULT:      -6.4      0.000      0.000
REMARK  Name = 
REMARK  6 active torsions:
REMARK  status: ('A' for Active; 'I' for Inactive)
REMARK    1  A    between atoms: C_1  and  O_2
REMARK    2  A    between atoms: O_2  and  C_3
REMARK    3  A    between atoms: C_3  and  C_4
REMARK    4  A    between atoms: C_3  and  C_6
REMARK    5  A    between atoms: C_4  and  O_5
REMARK    6  A    between atoms: C_6  and  N_7
REMARK                            x       y       z     vdW  Elec       q    Type
REMARK                         _______ _______ _______ _____ _____    ______ ____
ROOT
ATOM      1  N   UNL     1       4.541   3.662  18.585  0.00  0.00    +0.000 N 
ATOM      2  C   UNL     1       4.135   3.411  17.299  0.00  0.00    +0.000 A 
ATOM      3  N   UNL     1       4.921   3.986  16.413  0.00  0.00    +0.000 NA
ATOM      4  C   UNL     1       5.876   4.640  17.165  0.00  0.00    +0.000 A 
ATOM      5  C   UNL     1       7.014   5.384  16.812  0.00  0.00    +0.000 A 
ATOM      6  N   UNL     1       7.430   5.557  15.498  0.00  0.00    +0.000 N 
ATOM      7  N   UNL     1       7.747   5.950  17.798  0.00  0.00    +0.000 NA
ATOM      8  C   UNL     1       7.373   5.732  19.078  0.00  0.00    +0.000 A 
ATOM      9  N   UNL     1       6.333   5.006  19.543  0.00  0.00    +0.000 NA
ATOM     10  C   UNL     1       5.629   4.486  18.521  0.00  0.00    +0.000 A 
ATOM     11  H   UNL     1       6.710   5.383  14.808  0.00  0.00    +0.000 HD
ATOM     12  H   UNL     1       8.041   6.350  15.374  0.00  0.00    +0.000 HD
ENDROOT
BRANCH   1  13
ATOM     13  C   UNL     1       4.017   3.017  19.774  0.00  0.00    +0.000 C 
BRANCH  13  14
ATOM     14  C   UNL     1       2.535   3.321  20.037  0.00  0.00    +0.000 C 
BRANCH  14  16
ATOM     15  C   UNL     1       0.792   2.304  18.734  0.00  0.00    +0.000 C 
ATOM     16  O   UNL     1       1.777   2.128  19.747  0.00  0.00    +0.000 OA
ENDBRANCH  14  16
BRANCH  14  17
ATOM     17  C   UNL     1       2.354   3.714  21.514  0.00  0.00    +0.000 C 
BRANCH  17  18
ATOM     18  O   UNL     1       1.715   2.661  22.236  0.00  0.00    +0.000 OA
ATOM     19  H   UNL     1       1.646   2.961  23.161  0.00  0.00    +0.000 HD
ENDBRANCH  17  18
ENDBRANCH  14  17
ENDBRANCH  13  14
ENDBRANCH   1  13
TORSDOF 5
ENDMDL
MODEL 2
REMARK VINA RESULT:      -6.3      3.252      5.639
REMARK  Name = 
REMARK  6 active torsions:
REMARK  status: ('A' for Active; 'I' for Inactive)
REMARK    1  A    between atoms: C_1  and  O_2
REMARK    2  A    between atoms: O_2  and  C_3
REMARK    3  A    between atoms: C_3  and  C_4
REMARK    4  A    between atoms: C_3  and  C_6
REMARK    5  A    between atoms: C_4  and  O_5
REMARK    6  A    between atoms: C_6  and  N_7
REMARK                            x       y       z     vdW  Elec       q    Type
REMARK                         _______ _______ _______ _____ _____    ______ ____
ROOT
ATOM      1  N   UNL     1       4.578   5.549  18.261  0.00  0.00    +0.000 N 
ATOM      2  C   UNL     1       3.438   6.223  17.907  0.00  0.00    +0.000 A 
ATOM      3  N   UNL     1       2.352   5.613  18.331  0.00  0.00    +0.000 NA
ATOM      4  C   UNL     1       2.816   4.490  18.988  0.00  0.00    +0.000 A 
ATOM      5  C   UNL     1       2.162   3.472  19.700  0.00  0.00    +0.000 A 
ATOM      6  N   UNL     1       0.791   3.459  19.922  0.00  0.00    +0.000 N 
ATOM      7  N   UNL     1       2.904   2.459  20.205  0.00  0.00    +0.000 NA
ATOM      8  C   UNL     1       4.244   2.503  20.038  0.00  0.00    +0.000 A 
ATOM      9  N   UNL     1       4.987   3.442  19.415  0.00  0.00    +0.000 NA
ATOM     10  C   UNL     1       4.199   4.411  18.916  0.00  0.00    +0.000 A 
ATOM     11  H   UNL     1       0.263   4.048  19.290  0.00  0.00    +0.000 HD
ATOM     12  H   UNL     1       0.432   2.544  20.150  0.00  0.00    +0.000 HD
ENDROOT
BRANCH   1  13
ATOM     13  C   UNL     1       5.931   6.054  18.124  0.00  0.00    +0.000 C 
BRANCH  13  14
ATOM     14  C   UNL     1       6.524   5.854  16.721  0.00  0.00    +0.000 C 
BRANCH  14  16
ATOM     15  C   UNL     1       7.636   7.811  17.561  0.00  0.00    +0.000 C 
ATOM     16  O   UNL     1       7.589   6.812  16.548  0.00  0.00    +0.000 OA
ENDBRANCH  14  16
BRANCH  14  17
ATOM     17  C   UNL     1       7.078   4.424  16.605  0.00  0.00    +0.000 C 
BRANCH  17  18
ATOM     18  O   UNL     1       7.732   4.041  17.814  0.00  0.00    +0.000 OA
ATOM     19  H   UNL     1       7.433   3.135  18.017  0.00  0.00    +0.000 HD
ENDBRANCH  17  18
ENDBRANCH  14  17
ENDBRANCH  13  14
ENDBRANCH   1  13
TORSDOF 5
ENDMDL
MODEL 3
REMARK VINA RESULT:      -6.2      3.090      5.506
REMARK  Name = 
REMARK  6 active torsions:
REMARK  status: ('A' for Active; 'I' for Inactive)
REMARK    1  A    between atoms: C_1  and  O_2
REMARK    2  A    between atoms: O_2  and  C_3
REMARK    3  A    between atoms: C_3  and  C_4
REMARK    4  A    between atoms: C_3  and  C_6
REMARK    5  A    between atoms: C_4  and  O_5
REMARK    6  A    between atoms: C_6  and  N_7
REMARK                            x       y       z     vdW  Elec       q    Type
REMARK                         _______ _______ _______ _____ _____    ______ ____
ROOT
ATOM      1  N   UNL     1       4.177   5.316  18.390  0.00  0.00    +0.000 N 
ATOM      2  C   UNL     1       3.518   6.148  19.259  0.00  0.00    +0.000 A 
ATOM      3  N   UNL     1       2.518   5.540  19.861  0.00  0.00    +0.000 NA
ATOM      4  C   UNL     1       2.534   4.256  19.353  0.00  0.00    +0.000 A 
ATOM      5  C   UNL     1       1.761   3.117  19.633  0.00  0.00    +0.000 A 
ATOM      6  N   UNL     1       0.778   3.088  20.614  0.00  0.00    +0.000 N 
ATOM      7  N   UNL     1       1.993   1.989  18.923  0.00  0.00    +0.000 NA
ATOM      8  C   UNL     1       2.989   2.002  18.010  0.00  0.00    +0.000 A 
ATOM      9  N   UNL     1       3.822   3.012  17.682  0.00  0.00    +0.000 NA
ATOM     10  C   UNL     1       3.534   4.111  18.403  0.00  0.00    +0.000 A 
ATOM     11  H   UNL     1       0.445   4.002  20.894  0.00  0.00    +0.000 HD
ATOM     12  H   UNL     1       0.109   2.344  20.487  0.00  0.00    +0.000 HD
ENDROOT
BRANCH   1  13
ATOM     13  C   UNL     1       5.434   5.616  17.730  0.00  0.00    +0.000 C 
BRANCH  13  14
ATOM     14  C   UNL     1       6.643   4.904  18.353  0.00  0.00    +0.000 C 
BRANCH  14  16
ATOM     15  C   UNL     1       6.902   4.584  15.987  0.00  0.00    +0.000 C 
ATOM     16  O   UNL     1       7.390   4.278  17.288  0.00  0.00    +0.000 OA
ENDBRANCH  14  16
BRANCH  14  17
ATOM     17  C   UNL     1       7.523   5.938  19.076  0.00  0.00    +0.000 C 
BRANCH  17  18
ATOM     18  O   UNL     1       7.879   5.471  20.377  0.00  0.00    +0.000 OA
ATOM     19  H   UNL     1       8.726   4.998  20.280  0.00  0.00    +0.000 HD
ENDBRANCH  17  18
ENDBRANCH  14  17
ENDBRANCH  13  14
ENDBRANCH   1  13
TORSDOF 5
ENDMDL
MODEL 4
REMARK VINA RESULT:      -6.1      3.112      5.872
REMARK  Name = 
REMARK  6 active torsions:
REMARK  status: ('A' for Active; 'I' for Inactive)
REMARK    1  A    between atoms: C_1  and  O_2
REMARK    2  A    between atoms: O_2  and  C_3
REMARK    3  A    between atoms: C_3  and  C_4
REMARK    4  A    between atoms: C_3  and  C_6
REMARK    5  A    between atoms: C_4  and  O_5
REMARK    6  A    between atoms: C_6  and  N_7
REMARK                            x       y       z     vdW  Elec       q    Type
REMARK                         _______ _______ _______ _____ _____    ______ ____
ROOT
ATOM      1  N   UNL     1       4.737   4.729  18.383  0.00  0.00    +0.000 N 
ATOM      2  C   UNL     1       4.373   5.669  19.313  0.00  0.00    +0.000 A 
ATOM      3  N   UNL     1       3.216   5.387  19.873  0.00  0.00    +0.000 NA
ATOM      4  C   UNL     1       2.815   4.210  19.273  0.00  0.00    +0.000 A 
ATOM      5  C   UNL     1       1.703   3.376  19.473  0.00  0.00    +0.000 A 
ATOM      6  N   UNL     1       0.746   3.607  20.453  0.00  0.00    +0.000 N 
ATOM      7  N   UNL     1       1.561   2.288  18.680  0.00  0.00    +0.000 NA
ATOM      8  C   UNL     1       2.523   2.033  17.766  0.00  0.00    +0.000 A 
ATOM      9  N   UNL     1       3.651   2.730  17.510  0.00  0.00    +0.000 NA
ATOM     10  C   UNL     1       3.729   3.809  18.310  0.00  0.00    +0.000 A 
ATOM     11  H   UNL     1       0.730   4.558  20.800  0.00  0.00    +0.000 HD
ATOM     12  H   UNL     1      -0.129   3.138  20.274  0.00  0.00    +0.000 HD
ENDROOT
BRANCH   1  13
ATOM     13  C   UNL     1       6.034   4.639  17.740  0.00  0.00    +0.000 C 
BRANCH  13  14
ATOM     14  C   UNL     1       6.135   5.449  16.440  0.00  0.00    +0.000 C 
BRANCH  14  16
ATOM     15  C   UNL     1       7.481   7.124  17.516  0.00  0.00    +0.000 C 
ATOM     16  O   UNL     1       7.384   6.172  16.462  0.00  0.00    +0.000 OA
ENDBRANCH  14  16
BRANCH  14  17
ATOM     17  C   UNL     1       6.105   4.487  15.240  0.00  0.00    +0.000 C 
BRANCH  17  18
ATOM     18  O   UNL     1       6.141   3.131  15.685  0.00  0.00    +0.000 OA
ATOM     19  H   UNL     1       5.242   2.775  15.564  0.00  0.00    +0.000 HD
ENDBRANCH  17  18
ENDBRANCH  14  17
ENDBRANCH  13  14
ENDBRANCH   1  13
TORSDOF 5
ENDMDL
MODEL 5
REMARK VINA RESULT:      -6.1      3.232      5.445
REMARK  Name = 
REMARK  6 active torsions:
REMARK  status: ('A' for Active; 'I' for Inactive)
REMARK    1  A    between atoms: C_1  and  O_2
REMARK    2  A    between atoms: O_2  and  C_3
REMARK    3  A    between atoms: C_3  and  C_4
REMARK    4  A    between atoms: C_3  and  C_6
REMARK    5  A    between atoms: C_4  and  O_5
REMARK    6  A    between atoms: C_6  and  N_7
REMARK                            x       y       z     vdW  Elec       q    Type
REMARK                         _______ _______ _______ _____ _____    ______ ____
ROOT
ATOM      1  N   UNL     1       4.709   4.241  18.566  0.00  0.00    +0.000 N 
ATOM      2  C   UNL     1       4.578   2.878  18.636  0.00  0.00    +0.000 A 
ATOM      3  N   UNL     1       3.486   2.520  19.280  0.00  0.00    +0.000 NA
ATOM      4  C   UNL     1       2.889   3.711  19.643  0.00  0.00    +0.000 A 
ATOM      5  C   UNL     1       1.682   4.004  20.299  0.00  0.00    +0.000 A 
ATOM      6  N   UNL     1       0.772   3.028  20.686  0.00  0.00    +0.000 N 
ATOM      7  N   UNL     1       1.385   5.299  20.556  0.00  0.00    +0.000 NA
ATOM      8  C   UNL     1       2.244   6.249  20.128  0.00  0.00    +0.000 A 
ATOM      9  N   UNL     1       3.405   6.097  19.455  0.00  0.00    +0.000 NA
ATOM     10  C   UNL     1       3.660   4.793  19.245  0.00  0.00    +0.000 A 
ATOM     11  H   UNL     1       1.163   2.096  20.747  0.00  0.00    +0.000 HD
ATOM     12  H   UNL     1       0.138   3.338  21.407  0.00  0.00    +0.000 HD
ENDROOT
BRANCH   1  13
ATOM     13  C   UNL     1       5.683   4.951  17.759  0.00  0.00    +0.000 C 
BRANCH  13  14
ATOM     14  C   UNL     1       7.139   4.658  18.150  0.00  0.00    +0.000 C 
BRANCH  14  16
ATOM     15  C   UNL     1       7.119   4.574  15.749  0.00  0.00    +0.000 C 
ATOM     16  O   UNL     1       7.892   4.447  16.938  0.00  0.00    +0.000 OA
ENDBRANCH  14  16
BRANCH  14  17
ATOM     17  C   UNL     1       7.708   5.862  18.921  0.00  0.00    +0.000 C 
BRANCH  17  18
ATOM     18  O   UNL     1       7.961   5.511  20.281  0.00  0.00    +0.000 OA
ATOM     19  H   UNL     1       7.210   4.960  20.570  0.00  0.00    +0.000 HD
ENDBRANCH  17  18
ENDBRANCH  14  17
ENDBRANCH  13  14
ENDBRANCH   1  13
TORSDOF 5
ENDMDL
MODEL 6
REMARK VINA RESULT:      -6.1      1.420      1.562
REMARK  Name = 
REMARK  6 active torsions:
REMARK  status: ('A' for Active; 'I' for Inactive)
REMARK    1  A    between atoms: C_1  and  O_2
REMARK    2  A    between atoms: O_2  and  C_3
REMARK    3  A    between atoms: C_3  and  C_4
REMARK    4  A    between atoms: C_3  and  C_6
REMARK    5  A    between atoms: C_4  and  O_5
REMARK    6  A    between atoms: C_6  and  N_7
REMARK                            x       y       z     vdW  Elec       q    Type
REMARK                         _______ _______ _______ _____ _____    ______ ____
ROOT
ATOM      1  N   UNL     1       4.095   4.061  18.582  0.00  0.00    +0.000 N 
ATOM      2  C   UNL     1       3.737   3.703  17.308  0.00  0.00    +0.000 A 
ATOM      3  N   UNL     1       4.692   3.957  16.437  0.00  0.00    +0.000 NA
ATOM      4  C   UNL     1       5.711   4.508  17.188  0.00  0.00    +0.000 A 
ATOM      5  C   UNL     1       7.007   4.935  16.856  0.00  0.00    +0.000 A 
ATOM      6  N   UNL     1       7.545   4.811  15.581  0.00  0.00    +0.000 N 
ATOM      7  N   UNL     1       7.774   5.484  17.827  0.00  0.00    +0.000 NA
ATOM      8  C   UNL     1       7.271   5.550  19.078  0.00  0.00    +0.000 A 
ATOM      9  N   UNL     1       6.066   5.137  19.528  0.00  0.00    +0.000 NA
ATOM     10  C   UNL     1       5.340   4.621  18.520  0.00  0.00    +0.000 A 
ATOM     11  H   UNL     1       6.855   4.685  14.850  0.00  0.00    +0.000 HD
ATOM     12  H   UNL     1       8.323   5.432  15.414  0.00  0.00    +0.000 HD
ENDROOT
BRANCH   1  13
ATOM     13  C   UNL     1       3.358   3.732  19.787  0.00  0.00    +0.000 C 
BRANCH  13  14
ATOM     14  C   UNL     1       1.911   4.247  19.784  0.00  0.00    +0.000 C 
BRANCH  14  16
ATOM     15  C   UNL     1       1.518   2.662  21.547  0.00  0.00    +0.000 C 
ATOM     16  O   UNL     1       1.066   3.202  20.310  0.00  0.00    +0.000 OA
ENDBRANCH  14  16
BRANCH  14  17
ATOM     17  C   UNL     1       1.818   5.498  20.675  0.00  0.00    +0.000 C 
BRANCH  17  18
ATOM     18  O   UNL     1       2.663   6.533  20.174  0.00  0.00    +0.000 OA
ATOM     19  H   UNL     1       3.480   6.507  20.706  0.00  0.00    +0.000 HD
ENDBRANCH  17  18
ENDBRANCH  14  17
ENDBRANCH  13  14
ENDBRANCH   1  13
TORSDOF 5
ENDMDL
MODEL 7
REMARK VINA RESULT:      -6.1      1.097      1.354
REMARK  Name = 
REMARK  6 active torsions:
REMARK  status: ('A' for Active; 'I' for Inactive)
REMARK    1  A    between atoms: C_1  and  O_2
REMARK    2  A    between atoms: O_2  and  C_3
REMARK    3  A    between atoms: C_3  and  C_4
REMARK    4  A    between atoms: C_3  and  C_6
REMARK    5  A    between atoms: C_4  and  O_5
REMARK    6  A    between atoms: C_6  and  N_7
REMARK                            x       y       z     vdW  Elec       q    Type
REMARK                         _______ _______ _______ _____ _____    ______ ____
ROOT
ATOM      1  N   UNL     1       4.488   3.630  18.572  0.00  0.00    +0.000 N 
ATOM      2  C   UNL     1       4.112   3.356  17.282  0.00  0.00    +0.000 A 
ATOM      3  N   UNL     1       4.919   3.913  16.404  0.00  0.00    +0.000 NA
ATOM      4  C   UNL     1       5.857   4.580  17.166  0.00  0.00    +0.000 A 
ATOM      5  C   UNL     1       7.004   5.316  16.826  0.00  0.00    +0.000 A 
ATOM      6  N   UNL     1       7.451   5.465  15.520  0.00  0.00    +0.000 N 
ATOM      7  N   UNL     1       7.715   5.899  17.820  0.00  0.00    +0.000 NA
ATOM      8  C   UNL     1       7.310   5.705  19.094  0.00  0.00    +0.000 A 
ATOM      9  N   UNL     1       6.259   4.989  19.547  0.00  0.00    +0.000 NA
ATOM     10  C   UNL     1       5.579   4.451  18.519  0.00  0.00    +0.000 A 
ATOM     11  H   UNL     1       6.747   5.279  14.816  0.00  0.00    +0.000 HD
ATOM     12  H   UNL     1       8.066   6.256  15.396  0.00  0.00    +0.000 HD
ENDROOT
BRANCH   1  13
ATOM     13  C   UNL     1       3.935   3.006  19.760  0.00  0.00    +0.000 C 
BRANCH  13  14
ATOM     14  C   UNL     1       2.980   3.916  20.545  0.00  0.00    +0.000 C 
BRANCH  14  16
ATOM     15  C   UNL     1       2.344   6.103  19.782  0.00  0.00    +0.000 C 
ATOM     16  O   UNL     1       2.227   4.697  19.594  0.00  0.00    +0.000 OA
ENDBRANCH  14  16
BRANCH  14  17
ATOM     17  C   UNL     1       2.026   3.046  21.383  0.00  0.00    +0.000 C 
BRANCH  17  18
ATOM     18  O   UNL     1       0.704   3.094  20.847  0.00  0.00    +0.000 OA
ATOM     19  H   UNL     1       0.444   4.034  20.833  0.00  0.00    +0.000 HD
ENDBRANCH  17  18
ENDBRANCH  14  17
ENDBRANCH  13  14
ENDBRANCH   1  13
TORSDOF 5
ENDMDL
MODEL 8
REMARK VINA RESULT:      -6.0      1.212      1.872
REMARK  Name = 
REMARK  6 active torsions:
REMARK  status: ('A' for Active; 'I' for Inactive)
REMARK    1  A    between atoms: C_1  and  O_2
REMARK    2  A    between atoms: O_2  and  C_3
REMARK    3  A    between atoms: C_3  and  C_4
REMARK    4  A    between atoms: C_3  and  C_6
REMARK    5  A    between atoms: C_4  and  O_5
REMARK    6  A    between atoms: C_6  and  N_7
REMARK                            x       y       z     vdW  Elec       q    Type
REMARK                         _______ _______ _______ _____ _____    ______ ____
ROOT
ATOM      1  N   UNL     1       4.073   4.816  18.738  0.00  0.00    +0.000 N 
ATOM      2  C   UNL     1       3.564   4.872  17.465  0.00  0.00    +0.000 A 
ATOM      3  N   UNL     1       4.484   5.195  16.581  0.00  0.00    +0.000 NA
ATOM      4  C   UNL     1       5.639   5.356  17.321  0.00  0.00    +0.000 A 
ATOM      5  C   UNL     1       6.964   5.646  16.958  0.00  0.00    +0.000 A 
ATOM      6  N   UNL     1       7.377   5.784  15.638  0.00  0.00    +0.000 N 
ATOM      7  N   UNL     1       7.886   5.786  17.938  0.00  0.00    +0.000 NA
ATOM      8  C   UNL     1       7.494   5.595  19.217  0.00  0.00    +0.000 A 
ATOM      9  N   UNL     1       6.270   5.274  19.686  0.00  0.00    +0.000 NA
ATOM     10  C   UNL     1       5.391   5.167  18.673  0.00  0.00    +0.000 A 
ATOM     11  H   UNL     1       6.626   5.968  14.985  0.00  0.00    +0.000 HD
ATOM     12  H   UNL     1       8.242   6.295  15.543  0.00  0.00    +0.000 HD
ENDROOT
BRANCH   1  13
ATOM     13  C   UNL     1       3.375   4.297  19.900  0.00  0.00    +0.000 C 
BRANCH  13  14
ATOM     14  C   UNL     1       3.668   2.818  20.185  0.00  0.00    +0.000 C 
BRANCH  14  16
ATOM     15  C   UNL     1       1.721   2.633  21.579  0.00  0.00    +0.000 C 
ATOM     16  O   UNL     1       3.135   2.501  21.488  0.00  0.00    +0.000 OA
ENDBRANCH  14  16
BRANCH  14  17
ATOM     17  C   UNL     1       2.987   1.950  19.112  0.00  0.00    +0.000 C 
BRANCH  17  18
ATOM     18  O   UNL     1       3.953   1.162  18.418  0.00  0.00    +0.000 OA
ATOM     19  H   UNL     1       3.496   0.349  18.135  0.00  0.00    +0.000 HD
ENDBRANCH  17  18
ENDBRANCH  14  17
ENDBRANCH  13  14
ENDBRANCH   1  13
TORSDOF 5
ENDMDL
MODEL 9
REMARK VINA RESULT:      -6.0      3.384      5.737
REMARK  Name = 
REMARK  6 active torsions:
REMARK  status: ('A' for Active; 'I' for Inactive)
REMARK    1  A    between atoms: C_1  and  O_2
REMARK    2  A    between atoms: O_2  and  C_3
REMARK    3  A    between atoms: C_3  and  C_4
REMARK    4  A    between atoms: C_3  and  C_6
REMARK    5  A    between atoms: C_4  and  O_5
REMARK    6  A    between atoms: C_6  and  N_7
REMARK                            x       y       z     vdW  Elec       q    Type
REMARK                         _______ _______ _______ _____ _____    ______ ____
ROOT
ATOM      1  N   UNL     1       4.274   5.012  17.921  0.00  0.00    +0.000 N 
ATOM      2  C   UNL     1       4.164   3.983  17.021  0.00  0.00    +0.000 A 
ATOM      3  N   UNL     1       3.135   3.206  17.285  0.00  0.00    +0.000 NA
ATOM      4  C   UNL     1       2.558   3.760  18.411  0.00  0.00    +0.000 A 
ATOM      5  C   UNL     1       1.408   3.431  19.146  0.00  0.00    +0.000 A 
ATOM      6  N   UNL     1       0.544   2.404  18.785  0.00  0.00    +0.000 N 
ATOM      7  N   UNL     1       1.119   4.154  20.253  0.00  0.00    +0.000 NA
ATOM      8  C   UNL     1       1.929   5.188  20.569  0.00  0.00    +0.000 A 
ATOM      9  N   UNL     1       3.030   5.627  19.923  0.00  0.00    +0.000 NA
ATOM     10  C   UNL     1       3.281   4.861  18.846  0.00  0.00    +0.000 A 
ATOM     11  H   UNL     1       0.949   1.724  18.154  0.00  0.00    +0.000 HD
ATOM     12  H   UNL     1      -0.031   2.079  19.549  0.00  0.00    +0.000 HD
ENDROOT
BRANCH   1  13
ATOM     13  C   UNL     1       5.169   6.147  17.794  0.00  0.00    +0.000 C 
BRANCH  13  14
ATOM     14  C   UNL     1       6.470   5.825  17.045  0.00  0.00    +0.000 C 
BRANCH  14  16
ATOM     15  C   UNL     1       7.676   7.829  17.596  0.00  0.00    +0.000 C 
ATOM     16  O   UNL     1       7.035   7.069  16.578  0.00  0.00    +0.000 OA
ENDBRANCH  14  16
BRANCH  14  17
ATOM     17  C   UNL     1       7.450   5.131  18.007  0.00  0.00    +0.000 C 
BRANCH  17  18
ATOM     18  O   UNL     1       8.142   4.076  17.341  0.00  0.00    +0.000 OA
ATOM     19  H   UNL     1       8.680   3.625  18.018  0.00  0.00    +0.000 HD
ENDBRANCH  17  18
ENDBRANCH  14  17
ENDBRANCH  13  14
ENDBRANCH   1  13
TORSDOF 5
ENDMDL
