MODEL 1
REMARK VINA RESULT:      -8.9      0.000      0.000
REMARK  Name = 
REMARK  7 active torsions:
REMARK  status: ('A' for Active; 'I' for Inactive)
REMARK    1  A    between atoms: C_2  and  C_3
REMARK    2  A    between atoms: C_3  and  C_4
REMARK    3  A    between atoms: C_4  and  N_5
REMARK    4  A    between atoms: C_7  and  C_8
REMARK    5  A    between atoms: C_8  and  C_9
REMARK    6  A    between atoms: N_11  and  C_12
REMARK    7  A    between atoms: C_24  and  C_25
REMARK                            x       y       z     vdW  Elec       q    Type
REMARK                         _______ _______ _______ _____ _____    ______ ____
ROOT
ATOM      1  N   UNL     1      -0.840  10.612  18.301  0.00  0.00    +0.000 N 
ATOM      2  C   UNL     1      -0.048   9.517  18.069  0.00  0.00    +0.000 A 
ATOM      3  C   UNL     1       1.272   9.902  18.147  0.00  0.00    +0.000 A 
ATOM      4  C   UNL     1       1.280  11.312  18.351  0.00  0.00    +0.000 A 
ATOM      5  C   UNL     1       2.316  12.261  18.477  0.00  0.00    +0.000 A 
ATOM      6  C   UNL     1       2.041  13.629  18.651  0.00  0.00    +0.000 A 
ATOM      7  C   UNL     1       0.693  14.011  18.726  0.00  0.00    +0.000 A 
ATOM      8  C   UNL     1      -0.364  13.087  18.635  0.00  0.00    +0.000 A 
ATOM      9  C   UNL     1      -0.046  11.737  18.441  0.00  0.00    +0.000 A 
ENDROOT
BRANCH   6  10
ATOM     10  C   UNL     1       3.147  14.614  18.759  0.00  0.00    +0.000 A 
ATOM     11  C   UNL     1       2.981  15.829  19.454  0.00  0.00    +0.000 A 
ATOM     12  C   UNL     1       4.003  16.782  19.517  0.00  0.00    +0.000 A 
ATOM     13  C   UNL     1       5.224  16.534  18.902  0.00  0.00    +0.000 A 
ATOM     14  C   UNL     1       5.425  15.333  18.228  0.00  0.00    +0.000 A 
ATOM     15  C   UNL     1       4.395  14.388  18.152  0.00  0.00    +0.000 A 
ENDBRANCH   6  10
BRANCH   1  16
ATOM     16  C   UNL     1      -2.299  10.581  18.374  0.00  0.00    +0.000 C 
BRANCH  16  17
ATOM     17  C   UNL     1      -2.950   9.858  17.188  0.00  0.00    +0.000 C 
BRANCH  17  19
ATOM     18  C   UNL     1      -2.889  10.116  14.703  0.00  0.00    +0.000 C 
ATOM     19  C   UNL     1      -2.970  10.664  15.922  0.00  0.00    +0.000 C 
ENDBRANCH  17  19
ENDBRANCH  16  17
ENDBRANCH   1  16
BRANCH   3  20
ATOM     20  C   UNL     1       2.450   9.003  18.009  0.00  0.00    +0.000 C 
BRANCH  20  21
ATOM     21  C   UNL     1       2.345   7.706  18.789  0.00  0.00    +0.000 C 
ATOM     22  O   UNL     1       2.101   7.751  20.001  0.00  0.00    +0.000 OA
ATOM     23  N   UNL     1       2.443   6.521  18.084  0.00  0.00    +0.000 N 
ATOM     24  H   UNL     1       2.768   6.565  17.125  0.00  0.00    +0.000 HD
BRANCH  23  25
ATOM     25  C   UNL     1       2.327   5.201  18.716  0.00  0.00    +0.000 C 
ATOM     26  C   UNL     1       3.707   4.733  19.248  0.00  0.00    +0.000 C 
ATOM     27  C   UNL     1       3.607   3.343  19.885  0.00  0.00    +0.000 C 
ATOM     28  C   UNL     1       2.644   3.409  21.079  0.00  0.00    +0.000 C 
ATOM     29  C   UNL     1       1.254   3.864  20.606  0.00  0.00    +0.000 C 
ATOM     30  C   UNL     1       0.724   2.842  19.588  0.00  0.00    +0.000 C 
ATOM     31  C   UNL     1       1.664   2.773  18.376  0.00  0.00    +0.000 C 
ATOM     32  C   UNL     1       3.071   2.353  18.836  0.00  0.00    +0.000 C 
ATOM     33  C   UNL     1       1.745   4.161  17.725  0.00  0.00    +0.000 C 
ATOM     34  C   UNL     1       1.364   5.253  19.936  0.00  0.00    +0.000 C 
ENDBRANCH  23  25
ENDBRANCH  20  21
ENDBRANCH   3  20
TORSDOF 7
ENDMDL
MODEL 2
REMARK VINA RESULT:      -8.9      3.229      8.973
REMARK  Name = 
REMARK  7 active torsions:
REMARK  status: ('A' for Active; 'I' for Inactive)
REMARK    1  A    between atoms: C_2  and  C_3
REMARK    2  A    between atoms: C_3  and  C_4
REMARK    3  A    between atoms: C_4  and  N_5
REMARK    4  A    between atoms: C_7  and  C_8
REMARK    5  A    between atoms: C_8  and  C_9
REMARK    6  A    between atoms: N_11  and  C_12
REMARK    7  A    between atoms: C_24  and  C_25
REMARK                            x       y       z     vdW  Elec       q    Type
REMARK                         _______ _______ _______ _____ _____    ______ ____
ROOT
ATOM      1  N   UNL     1       2.826   5.684  19.609  0.00  0.00    +0.000 N 
ATOM      2  C   UNL     1       2.515   7.005  19.413  0.00  0.00    +0.000 A 
ATOM      3  C   UNL     1       2.975   7.389  18.174  0.00  0.00    +0.000 A 
ATOM      4  C   UNL     1       3.674   6.273  17.629  0.00  0.00    +0.000 A 
ATOM      5  C   UNL     1       4.377   6.074  16.423  0.00  0.00    +0.000 A 
ATOM      6  C   UNL     1       5.012   4.851  16.136  0.00  0.00    +0.000 A 
ATOM      7  C   UNL     1       4.891   3.826  17.086  0.00  0.00    +0.000 A 
ATOM      8  C   UNL     1       4.171   3.981  18.285  0.00  0.00    +0.000 A 
ATOM      9  C   UNL     1       3.573   5.221  18.539  0.00  0.00    +0.000 A 
ENDROOT
BRANCH   6  10
ATOM     10  C   UNL     1       5.766   4.670  14.871  0.00  0.00    +0.000 A 
ATOM     11  C   UNL     1       5.260   3.875  13.823  0.00  0.00    +0.000 A 
ATOM     12  C   UNL     1       5.987   3.660  12.648  0.00  0.00    +0.000 A 
ATOM     13  C   UNL     1       7.233   4.254  12.484  0.00  0.00    +0.000 A 
ATOM     14  C   UNL     1       7.749   5.063  13.492  0.00  0.00    +0.000 A 
ATOM     15  C   UNL     1       7.026   5.263  14.673  0.00  0.00    +0.000 A 
ENDBRANCH   6  10
BRANCH   1  16
ATOM     16  C   UNL     1       2.434   4.903  20.779  0.00  0.00    +0.000 C 
BRANCH  16  17
ATOM     17  C   UNL     1       1.094   4.178  20.604  0.00  0.00    +0.000 C 
BRANCH  17  19
ATOM     18  C   UNL     1       0.716   2.377  18.915  0.00  0.00    +0.000 C 
ATOM     19  C   UNL     1       1.225   2.776  20.087  0.00  0.00    +0.000 C 
ENDBRANCH  17  19
ENDBRANCH  16  17
ENDBRANCH   1  16
BRANCH   3  20
ATOM     20  C   UNL     1       2.794   8.730  17.555  0.00  0.00    +0.000 C 
BRANCH  20  21
ATOM     21  C   UNL     1       1.632   9.528  18.115  0.00  0.00    +0.000 C 
ATOM     22  O   UNL     1       0.477   9.165  17.865  0.00  0.00    +0.000 OA
ATOM     23  N   UNL     1       1.923  10.584  18.959  0.00  0.00    +0.000 N 
ATOM     24  H   UNL     1       2.885  10.896  19.013  0.00  0.00    +0.000 HD
BRANCH  23  25
ATOM     25  C   UNL     1       0.889  11.413  19.591  0.00  0.00    +0.000 C 
ATOM     26  C   UNL     1      -0.056  10.534  20.453  0.00  0.00    +0.000 C 
ATOM     27  C   UNL     1      -1.159  11.383  21.096  0.00  0.00    +0.000 C 
ATOM     28  C   UNL     1      -0.513  12.421  22.023  0.00  0.00    +0.000 C 
ATOM     29  C   UNL     1       0.433  13.326  21.216  0.00  0.00    +0.000 C 
ATOM     30  C   UNL     1      -0.386  14.054  20.138  0.00  0.00    +0.000 C 
ATOM     31  C   UNL     1      -1.027  13.032  19.189  0.00  0.00    +0.000 C 
ATOM     32  C   UNL     1      -1.950  12.093  19.985  0.00  0.00    +0.000 C 
ATOM     33  C   UNL     1       0.081  12.199  18.527  0.00  0.00    +0.000 C 
ATOM     34  C   UNL     1       1.526  12.464  20.544  0.00  0.00    +0.000 C 
ENDBRANCH  23  25
ENDBRANCH  20  21
ENDBRANCH   3  20
TORSDOF 7
ENDMDL
MODEL 3
REMARK VINA RESULT:      -8.8      3.129      9.044
REMARK  Name = 
REMARK  7 active torsions:
REMARK  status: ('A' for Active; 'I' for Inactive)
REMARK    1  A    between atoms: C_2  and  C_3
REMARK    2  A    between atoms: C_3  and  C_4
REMARK    3  A    between atoms: C_4  and  N_5
REMARK    4  A    between atoms: C_7  and  C_8
REMARK    5  A    between atoms: C_8  and  C_9
REMARK    6  A    between atoms: N_11  and  C_12
REMARK    7  A    between atoms: C_24  and  C_25
REMARK                            x       y       z     vdW  Elec       q    Type
REMARK                         _______ _______ _______ _____ _____    ______ ____
ROOT
ATOM      1  N   UNL     1       2.565   5.892  19.730  0.00  0.00    +0.000 N 
ATOM      2  C   UNL     1       2.269   7.207  19.479  0.00  0.00    +0.000 A 
ATOM      3  C   UNL     1       2.779   7.548  18.248  0.00  0.00    +0.000 A 
ATOM      4  C   UNL     1       3.492   6.412  17.766  0.00  0.00    +0.000 A 
ATOM      5  C   UNL     1       4.240   6.170  16.596  0.00  0.00    +0.000 A 
ATOM      6  C   UNL     1       4.878   4.936  16.374  0.00  0.00    +0.000 A 
ATOM      7  C   UNL     1       4.716   3.943  17.351  0.00  0.00    +0.000 A 
ATOM      8  C   UNL     1       3.951   4.141  18.516  0.00  0.00    +0.000 A 
ATOM      9  C   UNL     1       3.350   5.391  18.706  0.00  0.00    +0.000 A 
ENDROOT
BRANCH   6  10
ATOM     10  C   UNL     1       5.680   4.710  15.146  0.00  0.00    +0.000 A 
ATOM     11  C   UNL     1       6.939   5.320  14.969  0.00  0.00    +0.000 A 
ATOM     12  C   UNL     1       7.677   5.150  13.793  0.00  0.00    +0.000 A 
ATOM     13  C   UNL     1       7.182   4.348  12.772  0.00  0.00    +0.000 A 
ATOM     14  C   UNL     1       5.953   3.714  12.927  0.00  0.00    +0.000 A 
ATOM     15  C   UNL     1       5.209   3.899  14.098  0.00  0.00    +0.000 A 
ENDBRANCH   6  10
BRANCH   1  16
ATOM     16  C   UNL     1       2.124   5.151  20.910  0.00  0.00    +0.000 C 
BRANCH  16  17
ATOM     17  C   UNL     1       1.046   4.105  20.600  0.00  0.00    +0.000 C 
BRANCH  17  19
ATOM     18  C   UNL     1       2.554   2.398  21.626  0.00  0.00    +0.000 C 
ATOM     19  C   UNL     1       1.357   2.737  21.130  0.00  0.00    +0.000 C 
ENDBRANCH  17  19
ENDBRANCH  16  17
ENDBRANCH   1  16
BRANCH   3  20
ATOM     20  C   UNL     1       2.630   8.869  17.579  0.00  0.00    +0.000 C 
BRANCH  20  21
ATOM     21  C   UNL     1       1.505   9.727  18.128  0.00  0.00    +0.000 C 
ATOM     22  O   UNL     1       0.339   9.466  17.809  0.00  0.00    +0.000 OA
ATOM     23  N   UNL     1       1.835  10.716  19.036  0.00  0.00    +0.000 N 
ATOM     24  H   UNL     1       2.814  10.950  19.148  0.00  0.00    +0.000 HD
BRANCH  23  25
ATOM     25  C   UNL     1       0.837  11.592  19.664  0.00  0.00    +0.000 C 
ATOM     26  C   UNL     1      -0.165  10.754  20.503  0.00  0.00    +0.000 C 
ATOM     27  C   UNL     1      -1.230  11.652  21.141  0.00  0.00    +0.000 C 
ATOM     28  C   UNL     1      -0.544  12.645  22.089  0.00  0.00    +0.000 C 
ATOM     29  C   UNL     1       0.460  13.507  21.306  0.00  0.00    +0.000 C 
ATOM     30  C   UNL     1      -0.305  14.289  20.225  0.00  0.00    +0.000 C 
ATOM     31  C   UNL     1      -0.985  13.313  19.255  0.00  0.00    +0.000 C 
ATOM     32  C   UNL     1      -1.968  12.416  20.028  0.00  0.00    +0.000 C 
ATOM     33  C   UNL     1       0.086  12.431  18.599  0.00  0.00    +0.000 C 
ATOM     34  C   UNL     1       1.515  12.597  20.638  0.00  0.00    +0.000 C 
ENDBRANCH  23  25
ENDBRANCH  20  21
ENDBRANCH   3  20
TORSDOF 7
ENDMDL
MODEL 4
REMARK VINA RESULT:      -8.7      3.271      9.012
REMARK  Name = 
REMARK  7 active torsions:
REMARK  status: ('A' for Active; 'I' for Inactive)
REMARK    1  A    between atoms: C_2  and  C_3
REMARK    2  A    between atoms: C_3  and  C_4
REMARK    3  A    between atoms: C_4  and  N_5
REMARK    4  A    between atoms: C_7  and  C_8
REMARK    5  A    between atoms: C_8  and  C_9
REMARK    6  A    between atoms: N_11  and  C_12
REMARK    7  A    between atoms: C_24  and  C_25
REMARK                            x       y       z     vdW  Elec       q    Type
REMARK                         _______ _______ _______ _____ _____    ______ ____
ROOT
ATOM      1  N   UNL     1       2.947   5.535  19.498  0.00  0.00    +0.000 N 
ATOM      2  C   UNL     1       2.687   6.872  19.339  0.00  0.00    +0.000 A 
ATOM      3  C   UNL     1       3.165   7.273  18.112  0.00  0.00    +0.000 A 
ATOM      4  C   UNL     1       3.820   6.147  17.535  0.00  0.00    +0.000 A 
ATOM      5  C   UNL     1       4.517   5.955  16.324  0.00  0.00    +0.000 A 
ATOM      6  C   UNL     1       5.104   4.717  16.004  0.00  0.00    +0.000 A 
ATOM      7  C   UNL     1       4.943   3.671  16.924  0.00  0.00    +0.000 A 
ATOM      8  C   UNL     1       4.228   3.820  18.126  0.00  0.00    +0.000 A 
ATOM      9  C   UNL     1       3.677   5.075  18.416  0.00  0.00    +0.000 A 
ENDROOT
BRANCH   6  10
ATOM     10  C   UNL     1       5.853   4.543  14.734  0.00  0.00    +0.000 A 
ATOM     11  C   UNL     1       7.069   5.217  14.501  0.00  0.00    +0.000 A 
ATOM     12  C   UNL     1       7.754   5.096  13.288  0.00  0.00    +0.000 A 
ATOM     13  C   UNL     1       7.250   4.279  12.284  0.00  0.00    +0.000 A 
ATOM     14  C   UNL     1       6.063   3.582  12.493  0.00  0.00    +0.000 A 
ATOM     15  C   UNL     1       5.371   3.719  13.702  0.00  0.00    +0.000 A 
ENDBRANCH   6  10
BRANCH   1  16
ATOM     16  C   UNL     1       2.524   4.737  20.645  0.00  0.00    +0.000 C 
BRANCH  16  17
ATOM     17  C   UNL     1       1.071   4.254  20.545  0.00  0.00    +0.000 C 
BRANCH  17  19
ATOM     18  C   UNL     1       0.856   2.495  18.784  0.00  0.00    +0.000 C 
ATOM     19  C   UNL     1       0.934   2.835  20.077  0.00  0.00    +0.000 C 
ENDBRANCH  17  19
ENDBRANCH  16  17
ENDBRANCH   1  16
BRANCH   3  20
ATOM     20  C   UNL     1       3.036   8.637  17.531  0.00  0.00    +0.000 C 
BRANCH  20  21
ATOM     21  C   UNL     1       1.802   9.397  17.981  0.00  0.00    +0.000 C 
ATOM     22  O   UNL     1       0.687   9.000  17.621  0.00  0.00    +0.000 OA
ATOM     23  N   UNL     1       1.980  10.457  18.850  0.00  0.00    +0.000 N 
ATOM     24  H   UNL     1       2.923  10.798  18.996  0.00  0.00    +0.000 HD
BRANCH  23  25
ATOM     25  C   UNL     1       0.866  11.252  19.383  0.00  0.00    +0.000 C 
ATOM     26  C   UNL     1       0.505  12.400  18.404  0.00  0.00    +0.000 C 
ATOM     27  C   UNL     1      -0.638  13.256  18.961  0.00  0.00    +0.000 C 
ATOM     28  C   UNL     1      -1.885  12.376  19.128  0.00  0.00    +0.000 C 
ATOM     29  C   UNL     1      -1.583  11.221  20.096  0.00  0.00    +0.000 C 
ATOM     30  C   UNL     1      -1.198  11.813  21.462  0.00  0.00    +0.000 C 
ATOM     31  C   UNL     1       0.059  12.684  21.319  0.00  0.00    +0.000 C 
ATOM     32  C   UNL     1      -0.213  13.826  20.325  0.00  0.00    +0.000 C 
ATOM     33  C   UNL     1       1.209  11.819  20.784  0.00  0.00    +0.000 C 
ATOM     34  C   UNL     1      -0.410  10.378  19.547  0.00  0.00    +0.000 C 
ENDBRANCH  23  25
ENDBRANCH  20  21
ENDBRANCH   3  20
TORSDOF 7
ENDMDL
MODEL 5
REMARK VINA RESULT:      -8.7      3.308      9.011
REMARK  Name = 
REMARK  7 active torsions:
REMARK  status: ('A' for Active; 'I' for Inactive)
REMARK    1  A    between atoms: C_2  and  C_3
REMARK    2  A    between atoms: C_3  and  C_4
REMARK    3  A    between atoms: C_4  and  N_5
REMARK    4  A    between atoms: C_7  and  C_8
REMARK    5  A    between atoms: C_8  and  C_9
REMARK    6  A    between atoms: N_11  and  C_12
REMARK    7  A    between atoms: C_24  and  C_25
REMARK                            x       y       z     vdW  Elec       q    Type
REMARK                         _______ _______ _______ _____ _____    ______ ____
ROOT
ATOM      1  N   UNL     1       2.978   5.504  19.461  0.00  0.00    +0.000 N 
ATOM      2  C   UNL     1       2.687   6.834  19.310  0.00  0.00    +0.000 A 
ATOM      3  C   UNL     1       3.138   7.249  18.077  0.00  0.00    +0.000 A 
ATOM      4  C   UNL     1       3.810   6.138  17.488  0.00  0.00    +0.000 A 
ATOM      5  C   UNL     1       4.495   5.965  16.268  0.00  0.00    +0.000 A 
ATOM      6  C   UNL     1       5.104   4.741  15.936  0.00  0.00    +0.000 A 
ATOM      7  C   UNL     1       4.979   3.689  16.855  0.00  0.00    +0.000 A 
ATOM      8  C   UNL     1       4.277   3.819  18.068  0.00  0.00    +0.000 A 
ATOM      9  C   UNL     1       3.703   5.061  18.368  0.00  0.00    +0.000 A 
ENDROOT
BRANCH   6  10
ATOM     10  C   UNL     1       5.839   4.586  14.655  0.00  0.00    +0.000 A 
ATOM     11  C   UNL     1       5.356   3.749  13.630  0.00  0.00    +0.000 A 
ATOM     12  C   UNL     1       6.068   3.560  12.441  0.00  0.00    +0.000 A 
ATOM     13  C   UNL     1       7.274   4.222  12.240  0.00  0.00    +0.000 A 
ATOM     14  C   UNL     1       7.764   5.074  13.225  0.00  0.00    +0.000 A 
ATOM     15  C   UNL     1       7.058   5.247  14.421  0.00  0.00    +0.000 A 
ENDBRANCH   6  10
BRANCH   1  16
ATOM     16  C   UNL     1       2.588   4.693  20.612  0.00  0.00    +0.000 C 
BRANCH  16  17
ATOM     17  C   UNL     1       1.113   4.273  20.586  0.00  0.00    +0.000 C 
BRANCH  17  19
ATOM     18  C   UNL     1       1.574   2.073  19.496  0.00  0.00    +0.000 C 
ATOM     19  C   UNL     1       0.813   3.168  19.617  0.00  0.00    +0.000 C 
ENDBRANCH  17  19
ENDBRANCH  16  17
ENDBRANCH   1  16
BRANCH   3  20
ATOM     20  C   UNL     1       2.972   8.611  17.502  0.00  0.00    +0.000 C 
BRANCH  20  21
ATOM     21  C   UNL     1       1.776   9.377  18.036  0.00  0.00    +0.000 C 
ATOM     22  O   UNL     1       0.638   8.965  17.787  0.00  0.00    +0.000 OA
ATOM     23  N   UNL     1       2.022  10.461  18.858  0.00  0.00    +0.000 N 
ATOM     24  H   UNL     1       2.971  10.811  18.912  0.00  0.00    +0.000 HD
BRANCH  23  25
ATOM     25  C   UNL     1       0.953  11.265  19.465  0.00  0.00    +0.000 C 
ATOM     26  C   UNL     1       1.557  12.426  20.298  0.00  0.00    +0.000 C 
ATOM     27  C   UNL     1       0.452  13.256  20.962  0.00  0.00    +0.000 C 
ATOM     28  C   UNL     1      -0.431  13.876  19.870  0.00  0.00    +0.000 C 
ATOM     29  C   UNL     1      -1.061  12.765  19.014  0.00  0.00    +0.000 C 
ATOM     30  C   UNL     1      -1.930  11.880  19.922  0.00  0.00    +0.000 C 
ATOM     31  C   UNL     1      -1.062  11.236  21.012  0.00  0.00    +0.000 C 
ATOM     32  C   UNL     1      -0.393  12.334  21.857  0.00  0.00    +0.000 C 
ATOM     33  C   UNL     1       0.029  10.385  20.346  0.00  0.00    +0.000 C 
ATOM     34  C   UNL     1       0.055  11.910  18.371  0.00  0.00    +0.000 C 
ENDBRANCH  23  25
ENDBRANCH  20  21
ENDBRANCH   3  20
TORSDOF 7
ENDMDL
MODEL 6
REMARK VINA RESULT:      -8.7      3.156      9.028
REMARK  Name = 
REMARK  7 active torsions:
REMARK  status: ('A' for Active; 'I' for Inactive)
REMARK    1  A    between atoms: C_2  and  C_3
REMARK    2  A    between atoms: C_3  and  C_4
REMARK    3  A    between atoms: C_4  and  N_5
REMARK    4  A    between atoms: C_7  and  C_8
REMARK    5  A    between atoms: C_8  and  C_9
REMARK    6  A    between atoms: N_11  and  C_12
REMARK    7  A    between atoms: C_24  and  C_25
REMARK                            x       y       z     vdW  Elec       q    Type
REMARK                         _______ _______ _______ _____ _____    ______ ____
ROOT
ATOM      1  N   UNL     1       2.621   5.893  19.682  0.00  0.00    +0.000 N 
ATOM      2  C   UNL     1       2.318   7.207  19.436  0.00  0.00    +0.000 A 
ATOM      3  C   UNL     1       2.823   7.554  18.203  0.00  0.00    +0.000 A 
ATOM      4  C   UNL     1       3.540   6.423  17.717  0.00  0.00    +0.000 A 
ATOM      5  C   UNL     1       4.286   6.188  16.543  0.00  0.00    +0.000 A 
ATOM      6  C   UNL     1       4.930   4.958  16.316  0.00  0.00    +0.000 A 
ATOM      7  C   UNL     1       4.775   3.961  17.291  0.00  0.00    +0.000 A 
ATOM      8  C   UNL     1       4.012   4.152  18.458  0.00  0.00    +0.000 A 
ATOM      9  C   UNL     1       3.405   5.399  18.654  0.00  0.00    +0.000 A 
ENDROOT
BRANCH   6  10
ATOM     10  C   UNL     1       5.729   4.739  15.085  0.00  0.00    +0.000 A 
ATOM     11  C   UNL     1       6.970   5.379  14.893  0.00  0.00    +0.000 A 
ATOM     12  C   UNL     1       7.705   5.216  13.714  0.00  0.00    +0.000 A 
ATOM     13  C   UNL     1       7.225   4.390  12.705  0.00  0.00    +0.000 A 
ATOM     14  C   UNL     1       6.014   3.726  12.876  0.00  0.00    +0.000 A 
ATOM     15  C   UNL     1       5.272   3.905  14.049  0.00  0.00    +0.000 A 
ENDBRANCH   6  10
BRANCH   1  16
ATOM     16  C   UNL     1       2.187   5.147  20.860  0.00  0.00    +0.000 C 
BRANCH  16  17
ATOM     17  C   UNL     1       0.995   4.221  20.587  0.00  0.00    +0.000 C 
BRANCH  17  19
ATOM     18  C   UNL     1       2.292   2.397  21.698  0.00  0.00    +0.000 C 
ATOM     19  C   UNL     1       1.231   2.793  20.982  0.00  0.00    +0.000 C 
ENDBRANCH  17  19
ENDBRANCH  16  17
ENDBRANCH   1  16
BRANCH   3  20
ATOM     20  C   UNL     1       2.665   8.876  17.538  0.00  0.00    +0.000 C 
BRANCH  20  21
ATOM     21  C   UNL     1       1.536   9.726  18.091  0.00  0.00    +0.000 C 
ATOM     22  O   UNL     1       0.371   9.458  17.776  0.00  0.00    +0.000 OA
ATOM     23  N   UNL     1       1.861  10.716  18.999  0.00  0.00    +0.000 N 
ATOM     24  H   UNL     1       2.839  10.957  19.109  0.00  0.00    +0.000 HD
BRANCH  23  25
ATOM     25  C   UNL     1       0.859  11.585  19.631  0.00  0.00    +0.000 C 
ATOM     26  C   UNL     1       1.546  12.590  20.593  0.00  0.00    +0.000 C 
ATOM     27  C   UNL     1       0.508  13.484  21.282  0.00  0.00    +0.000 C 
ATOM     28  C   UNL     1      -0.239  14.296  20.215  0.00  0.00    +0.000 C 
ATOM     29  C   UNL     1      -0.944  13.345  19.234  0.00  0.00    +0.000 C 
ATOM     30  C   UNL     1      -1.955  12.493  20.018  0.00  0.00    +0.000 C 
ATOM     31  C   UNL     1      -1.225  11.660  21.080  0.00  0.00    +0.000 C 
ATOM     32  C   UNL     1      -0.483  12.595  22.051  0.00  0.00    +0.000 C 
ATOM     33  C   UNL     1      -0.204  10.747  20.387  0.00  0.00    +0.000 C 
ATOM     34  C   UNL     1       0.101  12.424  18.564  0.00  0.00    +0.000 C 
ENDBRANCH  23  25
ENDBRANCH  20  21
ENDBRANCH   3  20
TORSDOF 7
ENDMDL
MODEL 7
REMARK VINA RESULT:      -8.6      3.309      9.076
REMARK  Name = 
REMARK  7 active torsions:
REMARK  status: ('A' for Active; 'I' for Inactive)
REMARK    1  A    between atoms: C_2  and  C_3
REMARK    2  A    between atoms: C_3  and  C_4
REMARK    3  A    between atoms: C_4  and  N_5
REMARK    4  A    between atoms: C_7  and  C_8
REMARK    5  A    between atoms: C_8  and  C_9
REMARK    6  A    between atoms: N_11  and  C_12
REMARK    7  A    between atoms: C_24  and  C_25
REMARK                            x       y       z     vdW  Elec       q    Type
REMARK                         _______ _______ _______ _____ _____    ______ ____
ROOT
ATOM      1  N   UNL     1       3.164   5.014  19.415  0.00  0.00    +0.000 N 
ATOM      2  C   UNL     1       2.812   6.337  19.335  0.00  0.00    +0.000 A 
ATOM      3  C   UNL     1       3.234   6.834  18.123  0.00  0.00    +0.000 A 
ATOM      4  C   UNL     1       3.950   5.787  17.473  0.00  0.00    +0.000 A 
ATOM      5  C   UNL     1       4.632   5.708  16.241  0.00  0.00    +0.000 A 
ATOM      6  C   UNL     1       5.293   4.532  15.842  0.00  0.00    +0.000 A 
ATOM      7  C   UNL     1       5.223   3.429  16.707  0.00  0.00    +0.000 A 
ATOM      8  C   UNL     1       4.526   3.465  17.928  0.00  0.00    +0.000 A 
ATOM      9  C   UNL     1       3.899   4.662  18.296  0.00  0.00    +0.000 A 
ENDROOT
BRANCH   6  10
ATOM     10  C   UNL     1       6.023   4.477  14.552  0.00  0.00    +0.000 A 
ATOM     11  C   UNL     1       7.180   5.251  14.330  0.00  0.00    +0.000 A 
ATOM     12  C   UNL     1       7.844   5.241  13.099  0.00  0.00    +0.000 A 
ATOM     13  C   UNL     1       7.379   4.438  12.065  0.00  0.00    +0.000 A 
ATOM     14  C   UNL     1       6.254   3.644  12.262  0.00  0.00    +0.000 A 
ATOM     15  C   UNL     1       5.581   3.669  13.489  0.00  0.00    +0.000 A 
ENDBRANCH   6  10
BRANCH   1  16
ATOM     16  C   UNL     1       2.820   4.129  20.525  0.00  0.00    +0.000 C 
BRANCH  16  17
ATOM     17  C   UNL     1       1.310   3.914  20.684  0.00  0.00    +0.000 C 
BRANCH  17  19
ATOM     18  C   UNL     1       1.150   2.214  18.860  0.00  0.00    +0.000 C 
ATOM     19  C   UNL     1       0.656   3.289  19.487  0.00  0.00    +0.000 C 
ENDBRANCH  17  19
ENDBRANCH  16  17
ENDBRANCH   1  16
BRANCH   3  20
ATOM     20  C   UNL     1       3.002   8.216  17.620  0.00  0.00    +0.000 C 
BRANCH  20  21
ATOM     21  C   UNL     1       2.018   9.026  18.442  0.00  0.00    +0.000 C 
ATOM     22  O   UNL     1       1.466   8.496  19.414  0.00  0.00    +0.000 OA
ATOM     23  N   UNL     1       1.848  10.358  18.114  0.00  0.00    +0.000 N 
ATOM     24  H   UNL     1       2.234  10.683  17.236  0.00  0.00    +0.000 HD
BRANCH  23  25
ATOM     25  C   UNL     1       0.951  11.257  18.851  0.00  0.00    +0.000 C 
ATOM     26  C   UNL     1       1.186  11.120  20.379  0.00  0.00    +0.000 C 
ATOM     27  C   UNL     1       0.235  12.032  21.163  0.00  0.00    +0.000 C 
ATOM     28  C   UNL     1       0.511  13.491  20.777  0.00  0.00    +0.000 C 
ATOM     29  C   UNL     1       0.288  13.685  19.269  0.00  0.00    +0.000 C 
ATOM     30  C   UNL     1      -1.176  13.346  18.943  0.00  0.00    +0.000 C 
ATOM     31  C   UNL     1      -1.468  11.883  19.305  0.00  0.00    +0.000 C 
ATOM     32  C   UNL     1      -1.215  11.662  20.807  0.00  0.00    +0.000 C 
ATOM     33  C   UNL     1      -0.532  10.970  18.501  0.00  0.00    +0.000 C 
ATOM     34  C   UNL     1       1.226  12.742  18.481  0.00  0.00    +0.000 C 
ENDBRANCH  23  25
ENDBRANCH  20  21
ENDBRANCH   3  20
TORSDOF 7
ENDMDL
MODEL 8
REMARK VINA RESULT:      -8.6      5.681     10.679
REMARK  Name = 
REMARK  7 active torsions:
REMARK  status: ('A' for Active; 'I' for Inactive)
REMARK    1  A    between atoms: C_2  and  C_3
REMARK    2  A    between atoms: C_3  and  C_4
REMARK    3  A    between atoms: C_4  and  N_5
REMARK    4  A    between atoms: C_7  and  C_8
REMARK    5  A    between atoms: C_8  and  C_9
REMARK    6  A    between atoms: N_11  and  C_12
REMARK    7  A    between atoms: C_24  and  C_25
REMARK                            x       y       z     vdW  Elec       q    Type
REMARK                         _______ _______ _______ _____ _____    ______ ____
ROOT
ATOM      1  N   UNL     1       6.890   5.265  15.508  0.00  0.00    +0.000 N 
ATOM      2  C   UNL     1       7.686   6.126  16.217  0.00  0.00    +0.000 A 
ATOM      3  C   UNL     1       7.273   6.133  17.529  0.00  0.00    +0.000 A 
ATOM      4  C   UNL     1       6.117   5.302  17.603  0.00  0.00    +0.000 A 
ATOM      5  C   UNL     1       5.250   4.952  18.658  0.00  0.00    +0.000 A 
ATOM      6  C   UNL     1       4.141   4.111  18.449  0.00  0.00    +0.000 A 
ATOM      7  C   UNL     1       3.949   3.611  17.152  0.00  0.00    +0.000 A 
ATOM      8  C   UNL     1       4.813   3.916  16.084  0.00  0.00    +0.000 A 
ATOM      9  C   UNL     1       5.892   4.773  16.333  0.00  0.00    +0.000 A 
ENDROOT
BRANCH   6  10
ATOM     10  C   UNL     1       3.228   3.772  19.568  0.00  0.00    +0.000 A 
ATOM     11  C   UNL     1       3.573   2.800  20.528  0.00  0.00    +0.000 A 
ATOM     12  C   UNL     1       2.697   2.440  21.557  0.00  0.00    +0.000 A 
ATOM     13  C   UNL     1       1.458   3.063  21.663  0.00  0.00    +0.000 A 
ATOM     14  C   UNL     1       1.099   4.044  20.744  0.00  0.00    +0.000 A 
ATOM     15  C   UNL     1       1.971   4.389  19.706  0.00  0.00    +0.000 A 
ENDBRANCH   6  10
BRANCH   1  16
ATOM     16  C   UNL     1       7.070   4.937  14.096  0.00  0.00    +0.000 C 
BRANCH  16  17
ATOM     17  C   UNL     1       5.986   4.000  13.548  0.00  0.00    +0.000 C 
BRANCH  17  19
ATOM     18  C   UNL     1       5.521   2.554  11.564  0.00  0.00    +0.000 C 
ATOM     19  C   UNL     1       6.372   3.302  12.277  0.00  0.00    +0.000 C 
ENDBRANCH  17  19
ENDBRANCH  16  17
ENDBRANCH   1  16
BRANCH   3  20
ATOM     20  C   UNL     1       7.907   6.896  18.639  0.00  0.00    +0.000 C 
BRANCH  20  21
ATOM     21  C   UNL     1       8.235   8.339  18.301  0.00  0.00    +0.000 C 
ATOM     22  O   UNL     1       7.762   8.838  17.273  0.00  0.00    +0.000 OA
ATOM     23  N   UNL     1       8.983   9.059  19.213  0.00  0.00    +0.000 N 
ATOM     24  H   UNL     1       9.437   8.550  19.962  0.00  0.00    +0.000 HD
BRANCH  23  25
ATOM     25  C   UNL     1       9.340  10.471  19.020  0.00  0.00    +0.000 C 
ATOM     26  C   UNL     1       9.351  11.216  20.381  0.00  0.00    +0.000 C 
ATOM     27  C   UNL     1       9.693  12.698  20.191  0.00  0.00    +0.000 C 
ATOM     28  C   UNL     1      11.099  12.812  19.585  0.00  0.00    +0.000 C 
ATOM     29  C   UNL     1      11.143  12.092  18.227  0.00  0.00    +0.000 C 
ATOM     30  C   UNL     1      10.132  12.763  17.284  0.00  0.00    +0.000 C 
ATOM     31  C   UNL     1       8.715  12.645  17.864  0.00  0.00    +0.000 C 
ATOM     32  C   UNL     1       8.661  13.329  19.241  0.00  0.00    +0.000 C 
ATOM     33  C   UNL     1       8.365  11.159  18.031  0.00  0.00    +0.000 C 
ATOM     34  C   UNL     1      10.767  10.605  18.417  0.00  0.00    +0.000 C 
ENDBRANCH  23  25
ENDBRANCH  20  21
ENDBRANCH   3  20
TORSDOF 7
ENDMDL
MODEL 9
REMARK VINA RESULT:      -8.5      3.239      9.157
REMARK  Name = 
REMARK  7 active torsions:
REMARK  status: ('A' for Active; 'I' for Inactive)
REMARK    1  A    between atoms: C_2  and  C_3
REMARK    2  A    between atoms: C_3  and  C_4
REMARK    3  A    between atoms: C_4  and  N_5
REMARK    4  A    between atoms: C_7  and  C_8
REMARK    5  A    between atoms: C_8  and  C_9
REMARK    6  A    between atoms: N_11  and  C_12
REMARK    7  A    between atoms: C_24  and  C_25
REMARK                            x       y       z     vdW  Elec       q    Type
REMARK                         _______ _______ _______ _____ _____    ______ ____
ROOT
ATOM      1  N   UNL     1       3.115   5.312  19.480  0.00  0.00    +0.000 N 
ATOM      2  C   UNL     1       2.762   6.627  19.322  0.00  0.00    +0.000 A 
ATOM      3  C   UNL     1       3.171   7.049  18.077  0.00  0.00    +0.000 A 
ATOM      4  C   UNL     1       3.880   5.964  17.485  0.00  0.00    +0.000 A 
ATOM      5  C   UNL     1       4.547   5.808  16.253  0.00  0.00    +0.000 A 
ATOM      6  C   UNL     1       5.204   4.609  15.920  0.00  0.00    +0.000 A 
ATOM      7  C   UNL     1       5.143   3.562  16.851  0.00  0.00    +0.000 A 
ATOM      8  C   UNL     1       4.460   3.673  18.076  0.00  0.00    +0.000 A 
ATOM      9  C   UNL     1       3.838   4.892  18.376  0.00  0.00    +0.000 A 
ENDROOT
BRANCH   6  10
ATOM     10  C   UNL     1       5.920   4.475  14.626  0.00  0.00    +0.000 A 
ATOM     11  C   UNL     1       7.102   5.195  14.364  0.00  0.00    +0.000 A 
ATOM     12  C   UNL     1       7.755   5.110  13.130  0.00  0.00    +0.000 A 
ATOM     13  C   UNL     1       7.250   4.284  12.133  0.00  0.00    +0.000 A 
ATOM     14  C   UNL     1       6.097   3.542  12.371  0.00  0.00    +0.000 A 
ATOM     15  C   UNL     1       5.437   3.642  13.601  0.00  0.00    +0.000 A 
ENDBRANCH   6  10
BRANCH   1  16
ATOM     16  C   UNL     1       2.784   4.497  20.646  0.00  0.00    +0.000 C 
BRANCH  16  17
ATOM     17  C   UNL     1       1.305   4.095  20.705  0.00  0.00    +0.000 C 
BRANCH  17  19
ATOM     18  C   UNL     1       1.309   2.140  19.150  0.00  0.00    +0.000 C 
ATOM     19  C   UNL     1       0.831   3.342  19.497  0.00  0.00    +0.000 C 
ENDBRANCH  17  19
ENDBRANCH  16  17
ENDBRANCH   1  16
BRANCH   3  20
ATOM     20  C   UNL     1       2.933   8.397  17.493  0.00  0.00    +0.000 C 
BRANCH  20  21
ATOM     21  C   UNL     1       1.928   9.242  18.253  0.00  0.00    +0.000 C 
ATOM     22  O   UNL     1       1.105   8.683  18.987  0.00  0.00    +0.000 OA
ATOM     23  N   UNL     1       2.037  10.617  18.154  0.00  0.00    +0.000 N 
ATOM     24  H   UNL     1       2.649  10.994  17.440  0.00  0.00    +0.000 HD
BRANCH  23  25
ATOM     25  C   UNL     1       1.147  11.544  18.864  0.00  0.00    +0.000 C 
ATOM     26  C   UNL     1      -0.325  11.317  18.432  0.00  0.00    +0.000 C 
ATOM     27  C   UNL     1      -1.263  12.299  19.144  0.00  0.00    +0.000 C 
ATOM     28  C   UNL     1      -1.179  12.060  20.658  0.00  0.00    +0.000 C 
ATOM     29  C   UNL     1       0.264  12.277  21.143  0.00  0.00    +0.000 C 
ATOM     30  C   UNL     1       0.669  13.728  20.839  0.00  0.00    +0.000 C 
ATOM     31  C   UNL     1       0.609  13.983  19.326  0.00  0.00    +0.000 C 
ATOM     32  C   UNL     1      -0.821  13.735  18.816  0.00  0.00    +0.000 C 
ATOM     33  C   UNL     1       1.567  13.016  18.616  0.00  0.00    +0.000 C 
ATOM     34  C   UNL     1       1.211  11.307  20.400  0.00  0.00    +0.000 C 
ENDBRANCH  23  25
ENDBRANCH  20  21
ENDBRANCH   3  20
TORSDOF 7
ENDMDL
