MODEL 1
REMARK VINA RESULT:      -7.2      0.000      0.000
REMARK  Name = 
REMARK  8 active torsions:
REMARK  status: ('A' for Active; 'I' for Inactive)
REMARK    1  A    between atoms: C_1  and  C_2
REMARK    2  A    between atoms: C_2  and  C_3
REMARK    3  A    between atoms: C_2  and  O_4
REMARK    4  A    between atoms: C_2  and  C_5
REMARK    5  A    between atoms: N_7  and  N_8
REMARK    6  A    between atoms: C_9  and  S_10
REMARK    7  A    between atoms: N_11  and  C_12
REMARK    8  A    between atoms: C_16  and  C_17
REMARK                            x       y       z     vdW  Elec       q    Type
REMARK                         _______ _______ _______ _____ _____    ______ ____
ROOT
ATOM      1  N   UNL     1       2.836   6.392  19.727  0.00  0.00    +0.000 NA
ATOM      2  C   UNL     1       2.827   5.097  19.801  0.00  0.00    +0.000 C 
ATOM      3  N   UNL     1       3.539   4.262  18.977  0.00  0.00    +0.000 N 
ATOM      4  H   UNL     1       3.267   3.290  18.998  0.00  0.00    +0.000 HD
ENDROOT
BRANCH   3   5
ATOM      5  C   UNL     1       4.743   4.543  18.306  0.00  0.00    +0.000 A 
ATOM      6  C   UNL     1       5.872   4.917  19.051  0.00  0.00    +0.000 A 
ATOM      7  C   UNL     1       7.095   5.179  18.428  0.00  0.00    +0.000 A 
ATOM      8  C   UNL     1       7.223   5.052  17.051  0.00  0.00    +0.000 A 
ATOM      9  C   UNL     1       6.121   4.663  16.276  0.00  0.00    +0.000 A 
ATOM     10  C   UNL     1       4.897   4.415  16.918  0.00  0.00    +0.000 A 
BRANCH   9  11
ATOM     11  C   UNL     1       6.217   4.503  14.779  0.00  0.00    +0.000 C 
ATOM     12  F   UNL     1       5.135   4.993  14.111  0.00  0.00    +0.000 F 
ATOM     13  F   UNL     1       7.298   5.137  14.248  0.00  0.00    +0.000 F 
ATOM     14  F   UNL     1       6.323   3.198  14.401  0.00  0.00    +0.000 F 
ENDBRANCH   9  11
ENDBRANCH   3   5
BRANCH   1  17
ATOM     15  C   UNL     1       1.606   8.359  20.206  0.00  0.00    +0.000 C 
ATOM     16  O   UNL     1       1.635   8.786  19.053  0.00  0.00    +0.000 OA
ATOM     17  N   UNL     1       2.177   7.165  20.625  0.00  0.00    +0.000 N 
ATOM     18  H   UNL     1       2.075   6.883  21.596  0.00  0.00    +0.000 HD
BRANCH  15  20
ATOM     19  C   UNL     1      -0.353   8.468  21.764  0.00  0.00    +0.000 C 
ATOM     20  C   UNL     1       0.962   9.142  21.369  0.00  0.00    +0.000 C 
ATOM     21  C   UNL     1       0.723  10.585  20.932  0.00  0.00    +0.000 C 
BRANCH  20  22
ATOM     22  O   UNL     1       1.844   9.170  22.501  0.00  0.00    +0.000 OA
ATOM     23  H   UNL     1       1.288   9.243  23.299  0.00  0.00    +0.000 HD
ENDBRANCH  20  22
ENDBRANCH  15  20
ENDBRANCH   1  17
BRANCH   2  24
ATOM     24  S   UNL     1       1.829   4.208  20.950  0.00  0.00    +0.000 S 
ATOM     25  H   UNL     1       1.417   5.271  21.649  0.00  0.00    +0.000 HD
ENDBRANCH   2  24
TORSDOF 6
ENDMDL
MODEL 2
REMARK VINA RESULT:      -7.1      2.065      2.640
REMARK  Name = 
REMARK  8 active torsions:
REMARK  status: ('A' for Active; 'I' for Inactive)
REMARK    1  A    between atoms: C_1  and  C_2
REMARK    2  A    between atoms: C_2  and  C_3
REMARK    3  A    between atoms: C_2  and  O_4
REMARK    4  A    between atoms: C_2  and  C_5
REMARK    5  A    between atoms: N_7  and  N_8
REMARK    6  A    between atoms: C_9  and  S_10
REMARK    7  A    between atoms: N_11  and  C_12
REMARK    8  A    between atoms: C_16  and  C_17
REMARK                            x       y       z     vdW  Elec       q    Type
REMARK                         _______ _______ _______ _____ _____    ______ ____
ROOT
ATOM      1  N   UNL     1       2.567   6.440  19.648  0.00  0.00    +0.000 NA
ATOM      2  C   UNL     1       2.368   5.160  19.585  0.00  0.00    +0.000 C 
ATOM      3  N   UNL     1       2.986   4.318  18.695  0.00  0.00    +0.000 N 
ATOM      4  H   UNL     1       2.576   3.399  18.605  0.00  0.00    +0.000 HD
ENDROOT
BRANCH   3   5
ATOM      5  C   UNL     1       4.244   4.484  18.089  0.00  0.00    +0.000 A 
ATOM      6  C   UNL     1       4.378   4.253  16.711  0.00  0.00    +0.000 A 
ATOM      7  C   UNL     1       5.603   4.432  16.063  0.00  0.00    +0.000 A 
ATOM      8  C   UNL     1       6.715   4.866  16.773  0.00  0.00    +0.000 A 
ATOM      9  C   UNL     1       6.615   5.124  18.147  0.00  0.00    +0.000 A 
ATOM     10  C   UNL     1       5.378   4.928  18.784  0.00  0.00    +0.000 A 
BRANCH   9  11
ATOM     11  C   UNL     1       7.794   5.606  18.955  0.00  0.00    +0.000 C 
ATOM     12  F   UNL     1       8.273   6.815  18.547  0.00  0.00    +0.000 F 
ATOM     13  F   UNL     1       7.506   5.750  20.278  0.00  0.00    +0.000 F 
ATOM     14  F   UNL     1       8.853   4.750  18.892  0.00  0.00    +0.000 F 
ENDBRANCH   9  11
ENDBRANCH   3   5
BRANCH   1  17
ATOM     15  C   UNL     1       1.514   8.469  20.274  0.00  0.00    +0.000 C 
ATOM     16  O   UNL     1       1.561   8.964  19.150  0.00  0.00    +0.000 OA
ATOM     17  N   UNL     1       1.989   7.207  20.607  0.00  0.00    +0.000 N 
ATOM     18  H   UNL     1       1.879   6.874  21.560  0.00  0.00    +0.000 HD
BRANCH  15  20
ATOM     19  C   UNL     1      -0.370   8.595  21.922  0.00  0.00    +0.000 C 
ATOM     20  C   UNL     1       0.957   9.227  21.497  0.00  0.00    +0.000 C 
ATOM     21  C   UNL     1       0.766  10.697  21.133  0.00  0.00    +0.000 C 
BRANCH  20  22
ATOM     22  O   UNL     1       1.887   9.166  22.589  0.00  0.00    +0.000 OA
ATOM     23  H   UNL     1       1.806   8.280  22.989  0.00  0.00    +0.000 HD
ENDBRANCH  20  22
ENDBRANCH  15  20
ENDBRANCH   1  17
BRANCH   2  24
ATOM     24  S   UNL     1       1.207   4.316  20.607  0.00  0.00    +0.000 S 
ATOM     25  H   UNL     1       1.426   3.094  20.110  0.00  0.00    +0.000 HD
ENDBRANCH   2  24
TORSDOF 6
ENDMDL
MODEL 3
REMARK VINA RESULT:      -7.0      0.782      1.231
REMARK  Name = 
REMARK  8 active torsions:
REMARK  status: ('A' for Active; 'I' for Inactive)
REMARK    1  A    between atoms: C_1  and  C_2
REMARK    2  A    between atoms: C_2  and  C_3
REMARK    3  A    between atoms: C_2  and  O_4
REMARK    4  A    between atoms: C_2  and  C_5
REMARK    5  A    between atoms: N_7  and  N_8
REMARK    6  A    between atoms: C_9  and  S_10
REMARK    7  A    between atoms: N_11  and  C_12
REMARK    8  A    between atoms: C_16  and  C_17
REMARK                            x       y       z     vdW  Elec       q    Type
REMARK                         _______ _______ _______ _____ _____    ______ ____
ROOT
ATOM      1  N   UNL     1       2.649   6.149  19.788  0.00  0.00    +0.000 NA
ATOM      2  C   UNL     1       2.920   4.904  20.031  0.00  0.00    +0.000 C 
ATOM      3  N   UNL     1       3.810   4.145  19.315  0.00  0.00    +0.000 N 
ATOM      4  H   UNL     1       3.756   3.148  19.465  0.00  0.00    +0.000 HD
ENDROOT
BRANCH   3   5
ATOM      5  C   UNL     1       4.937   4.591  18.600  0.00  0.00    +0.000 A 
ATOM      6  C   UNL     1       5.997   5.192  19.296  0.00  0.00    +0.000 A 
ATOM      7  C   UNL     1       7.146   5.627  18.629  0.00  0.00    +0.000 A 
ATOM      8  C   UNL     1       7.269   5.451  17.257  0.00  0.00    +0.000 A 
ATOM      9  C   UNL     1       6.238   4.838  16.531  0.00  0.00    +0.000 A 
ATOM     10  C   UNL     1       5.086   4.418  17.217  0.00  0.00    +0.000 A 
BRANCH   9  11
ATOM     11  C   UNL     1       6.334   4.617  15.042  0.00  0.00    +0.000 C 
ATOM     12  F   UNL     1       6.218   3.310  14.679  0.00  0.00    +0.000 F 
ATOM     13  F   UNL     1       5.372   5.282  14.346  0.00  0.00    +0.000 F 
ATOM     14  F   UNL     1       7.526   5.037  14.530  0.00  0.00    +0.000 F 
ENDBRANCH   9  11
ENDBRANCH   3   5
BRANCH   1  17
ATOM     15  C   UNL     1       1.407   8.129  20.174  0.00  0.00    +0.000 C 
ATOM     16  O   UNL     1       1.723   8.662  19.112  0.00  0.00    +0.000 OA
ATOM     17  N   UNL     1       1.822   6.870  20.586  0.00  0.00    +0.000 N 
ATOM     18  H   UNL     1       1.483   6.504  21.471  0.00  0.00    +0.000 HD
BRANCH  15  20
ATOM     19  C   UNL     1      -0.069  10.103  20.626  0.00  0.00    +0.000 C 
ATOM     20  C   UNL     1       0.532   8.834  21.232  0.00  0.00    +0.000 C 
ATOM     21  C   UNL     1       1.387   9.166  22.452  0.00  0.00    +0.000 C 
BRANCH  20  22
ATOM     22  O   UNL     1      -0.526   7.964  21.665  0.00  0.00    +0.000 OA
ATOM     23  H   UNL     1      -0.184   7.445  22.416  0.00  0.00    +0.000 HD
ENDBRANCH  20  22
ENDBRANCH  15  20
ENDBRANCH   1  17
BRANCH   2  24
ATOM     24  S   UNL     1       2.119   3.976  21.297  0.00  0.00    +0.000 S 
ATOM     25  H   UNL     1       0.962   3.801  20.650  0.00  0.00    +0.000 HD
ENDBRANCH   2  24
TORSDOF 6
ENDMDL
MODEL 4
REMARK VINA RESULT:      -7.0      1.298      1.707
REMARK  Name = 
REMARK  8 active torsions:
REMARK  status: ('A' for Active; 'I' for Inactive)
REMARK    1  A    between atoms: C_1  and  C_2
REMARK    2  A    between atoms: C_2  and  C_3
REMARK    3  A    between atoms: C_2  and  O_4
REMARK    4  A    between atoms: C_2  and  C_5
REMARK    5  A    between atoms: N_7  and  N_8
REMARK    6  A    between atoms: C_9  and  S_10
REMARK    7  A    between atoms: N_11  and  C_12
REMARK    8  A    between atoms: C_16  and  C_17
REMARK                            x       y       z     vdW  Elec       q    Type
REMARK                         _______ _______ _______ _____ _____    ______ ____
ROOT
ATOM      1  N   UNL     1       2.711   6.944  18.779  0.00  0.00    +0.000 NA
ATOM      2  C   UNL     1       2.793   5.801  19.387  0.00  0.00    +0.000 C 
ATOM      3  N   UNL     1       3.635   4.782  19.021  0.00  0.00    +0.000 N 
ATOM      4  H   UNL     1       3.437   3.881  19.433  0.00  0.00    +0.000 HD
ENDROOT
BRANCH   3   5
ATOM      5  C   UNL     1       4.868   4.886  18.353  0.00  0.00    +0.000 A 
ATOM      6  C   UNL     1       6.033   5.128  19.097  0.00  0.00    +0.000 A 
ATOM      7  C   UNL     1       7.283   5.213  18.477  0.00  0.00    +0.000 A 
ATOM      8  C   UNL     1       7.398   5.037  17.105  0.00  0.00    +0.000 A 
ATOM      9  C   UNL     1       6.259   4.776  16.331  0.00  0.00    +0.000 A 
ATOM     10  C   UNL     1       5.010   4.705  16.970  0.00  0.00    +0.000 A 
BRANCH   9  11
ATOM     11  C   UNL     1       6.339   4.568  14.839  0.00  0.00    +0.000 C 
ATOM     12  F   UNL     1       6.302   3.257  14.472  0.00  0.00    +0.000 F 
ATOM     13  F   UNL     1       5.321   5.171  14.166  0.00  0.00    +0.000 F 
ATOM     14  F   UNL     1       7.490   5.067  14.306  0.00  0.00    +0.000 F 
ENDBRANCH   9  11
ENDBRANCH   3   5
BRANCH   1  17
ATOM     15  C   UNL     1       1.677   9.047  18.431  0.00  0.00    +0.000 C 
ATOM     16  O   UNL     1       2.120   9.198  17.295  0.00  0.00    +0.000 OA
ATOM     17  N   UNL     1       1.919   7.945  19.239  0.00  0.00    +0.000 N 
ATOM     18  H   UNL     1       1.484   7.900  20.156  0.00  0.00    +0.000 HD
BRANCH  15  20
ATOM     19  C   UNL     1       0.576   9.691  20.588  0.00  0.00    +0.000 C 
ATOM     20  C   UNL     1       0.818  10.117  19.139  0.00  0.00    +0.000 C 
ATOM     21  C   UNL     1      -0.502  10.278  18.391  0.00  0.00    +0.000 C 
BRANCH  20  22
ATOM     22  O   UNL     1       1.487  11.387  19.120  0.00  0.00    +0.000 OA
ATOM     23  H   UNL     1       2.009  11.427  18.297  0.00  0.00    +0.000 HD
ENDBRANCH  20  22
ENDBRANCH  15  20
ENDBRANCH   1  17
BRANCH   2  24
ATOM     24  S   UNL     1       1.769   5.365  20.753  0.00  0.00    +0.000 S 
ATOM     25  H   UNL     1       2.284   6.246  21.618  0.00  0.00    +0.000 HD
ENDBRANCH   2  24
TORSDOF 6
ENDMDL
MODEL 5
REMARK VINA RESULT:      -6.9      0.721      1.305
REMARK  Name = 
REMARK  8 active torsions:
REMARK  status: ('A' for Active; 'I' for Inactive)
REMARK    1  A    between atoms: C_1  and  C_2
REMARK    2  A    between atoms: C_2  and  C_3
REMARK    3  A    between atoms: C_2  and  O_4
REMARK    4  A    between atoms: C_2  and  C_5
REMARK    5  A    between atoms: N_7  and  N_8
REMARK    6  A    between atoms: C_9  and  S_10
REMARK    7  A    between atoms: N_11  and  C_12
REMARK    8  A    between atoms: C_16  and  C_17
REMARK                            x       y       z     vdW  Elec       q    Type
REMARK                         _______ _______ _______ _____ _____    ______ ____
ROOT
ATOM      1  N   UNL     1       2.766   6.303  19.762  0.00  0.00    +0.000 NA
ATOM      2  C   UNL     1       2.951   5.038  19.981  0.00  0.00    +0.000 C 
ATOM      3  N   UNL     1       3.786   4.233  19.248  0.00  0.00    +0.000 N 
ATOM      4  H   UNL     1       3.663   3.239  19.379  0.00  0.00    +0.000 HD
ENDROOT
BRANCH   3   5
ATOM      5  C   UNL     1       4.940   4.614  18.540  0.00  0.00    +0.000 A 
ATOM      6  C   UNL     1       6.040   5.128  19.245  0.00  0.00    +0.000 A 
ATOM      7  C   UNL     1       7.215   5.494  18.584  0.00  0.00    +0.000 A 
ATOM      8  C   UNL     1       7.325   5.336  17.209  0.00  0.00    +0.000 A 
ATOM      9  C   UNL     1       6.254   4.810  16.474  0.00  0.00    +0.000 A 
ATOM     10  C   UNL     1       5.076   4.457  17.153  0.00  0.00    +0.000 A 
BRANCH   9  11
ATOM     11  C   UNL     1       6.334   4.611  14.980  0.00  0.00    +0.000 C 
ATOM     12  F   UNL     1       7.502   5.053  14.436  0.00  0.00    +0.000 F 
ATOM     13  F   UNL     1       6.225   3.305  14.614  0.00  0.00    +0.000 F 
ATOM     14  F   UNL     1       5.345   5.271  14.314  0.00  0.00    +0.000 F 
ENDBRANCH   9  11
ENDBRANCH   3   5
BRANCH   1  17
ATOM     15  C   UNL     1       1.532   8.293  20.122  0.00  0.00    +0.000 C 
ATOM     16  O   UNL     1       1.762   8.764  19.009  0.00  0.00    +0.000 OA
ATOM     17  N   UNL     1       1.991   7.064  20.575  0.00  0.00    +0.000 N 
ATOM     18  H   UNL     1       1.723   6.749  21.503  0.00  0.00    +0.000 HD
BRANCH  15  20
ATOM     19  C   UNL     1       1.589   9.213  22.452  0.00  0.00    +0.000 C 
ATOM     20  C   UNL     1       0.728   9.053  21.198  0.00  0.00    +0.000 C 
ATOM     21  C   UNL     1      -0.550   8.279  21.511  0.00  0.00    +0.000 C 
BRANCH  20  22
ATOM     22  O   UNL     1       0.345  10.349  20.713  0.00  0.00    +0.000 OA
ATOM     23  H   UNL     1       1.147  10.774  20.358  0.00  0.00    +0.000 HD
ENDBRANCH  20  22
ENDBRANCH  15  20
ENDBRANCH   1  17
BRANCH   2  24
ATOM     24  S   UNL     1       2.089   4.143  21.231  0.00  0.00    +0.000 S 
ATOM     25  H   UNL     1       1.963   3.003  20.544  0.00  0.00    +0.000 HD
ENDBRANCH   2  24
TORSDOF 6
ENDMDL
MODEL 6
REMARK VINA RESULT:      -6.8      1.409      1.472
REMARK  Name = 
REMARK  8 active torsions:
REMARK  status: ('A' for Active; 'I' for Inactive)
REMARK    1  A    between atoms: C_1  and  C_2
REMARK    2  A    between atoms: C_2  and  C_3
REMARK    3  A    between atoms: C_2  and  O_4
REMARK    4  A    between atoms: C_2  and  C_5
REMARK    5  A    between atoms: N_7  and  N_8
REMARK    6  A    between atoms: C_9  and  S_10
REMARK    7  A    between atoms: N_11  and  C_12
REMARK    8  A    between atoms: C_16  and  C_17
REMARK                            x       y       z     vdW  Elec       q    Type
REMARK                         _______ _______ _______ _____ _____    ______ ____
ROOT
ATOM      1  N   UNL     1       2.725   7.056  18.788  0.00  0.00    +0.000 NA
ATOM      2  C   UNL     1       2.763   5.904  19.383  0.00  0.00    +0.000 C 
ATOM      3  N   UNL     1       3.576   4.862  19.014  0.00  0.00    +0.000 N 
ATOM      4  H   UNL     1       3.344   3.963  19.413  0.00  0.00    +0.000 HD
ENDROOT
BRANCH   3   5
ATOM      5  C   UNL     1       4.820   4.935  18.362  0.00  0.00    +0.000 A 
ATOM      6  C   UNL     1       5.980   5.157  19.120  0.00  0.00    +0.000 A 
ATOM      7  C   UNL     1       7.239   5.211  18.516  0.00  0.00    +0.000 A 
ATOM      8  C   UNL     1       7.369   5.022  17.146  0.00  0.00    +0.000 A 
ATOM      9  C   UNL     1       6.234   4.779  16.360  0.00  0.00    +0.000 A 
ATOM     10  C   UNL     1       4.976   4.740  16.982  0.00  0.00    +0.000 A 
BRANCH   9  11
ATOM     11  C   UNL     1       6.330   4.558  14.871  0.00  0.00    +0.000 C 
ATOM     12  F   UNL     1       5.301   5.114  14.172  0.00  0.00    +0.000 F 
ATOM     13  F   UNL     1       7.467   5.077  14.331  0.00  0.00    +0.000 F 
ATOM     14  F   UNL     1       6.327   3.235  14.540  0.00  0.00    +0.000 F 
ENDBRANCH   9  11
ENDBRANCH   3   5
BRANCH   1  17
ATOM     15  C   UNL     1       1.693   9.157  18.423  0.00  0.00    +0.000 C 
ATOM     16  O   UNL     1       2.090   9.272  17.265  0.00  0.00    +0.000 OA
ATOM     17  N   UNL     1       1.960   8.076  19.252  0.00  0.00    +0.000 N 
ATOM     18  H   UNL     1       1.562   8.061  20.186  0.00  0.00    +0.000 HD
BRANCH  15  20
ATOM     19  C   UNL     1      -0.577  10.195  18.649  0.00  0.00    +0.000 C 
ATOM     20  C   UNL     1       0.872  10.254  19.134  0.00  0.00    +0.000 C 
ATOM     21  C   UNL     1       1.491  11.617  18.837  0.00  0.00    +0.000 C 
BRANCH  20  22
ATOM     22  O   UNL     1       0.908  10.060  20.557  0.00  0.00    +0.000 OA
ATOM     23  H   UNL     1       0.254   9.369  20.771  0.00  0.00    +0.000 HD
ENDBRANCH  20  22
ENDBRANCH  15  20
ENDBRANCH   1  17
BRANCH   2  24
ATOM     24  S   UNL     1       1.709   5.484  20.731  0.00  0.00    +0.000 S 
ATOM     25  H   UNL     1       2.679   5.114  21.574  0.00  0.00    +0.000 HD
ENDBRANCH   2  24
TORSDOF 6
ENDMDL
MODEL 7
REMARK VINA RESULT:      -6.8      1.585      2.086
REMARK  Name = 
REMARK  8 active torsions:
REMARK  status: ('A' for Active; 'I' for Inactive)
REMARK    1  A    between atoms: C_1  and  C_2
REMARK    2  A    between atoms: C_2  and  C_3
REMARK    3  A    between atoms: C_2  and  O_4
REMARK    4  A    between atoms: C_2  and  C_5
REMARK    5  A    between atoms: N_7  and  N_8
REMARK    6  A    between atoms: C_9  and  S_10
REMARK    7  A    between atoms: N_11  and  C_12
REMARK    8  A    between atoms: C_16  and  C_17
REMARK                            x       y       z     vdW  Elec       q    Type
REMARK                         _______ _______ _______ _____ _____    ______ ____
ROOT
ATOM      1  N   UNL     1       2.648   6.962  18.609  0.00  0.00    +0.000 NA
ATOM      2  C   UNL     1       2.770   5.892  19.331  0.00  0.00    +0.000 C 
ATOM      3  N   UNL     1       3.654   4.874  19.075  0.00  0.00    +0.000 N 
ATOM      4  H   UNL     1       3.487   4.013  19.576  0.00  0.00    +0.000 HD
ENDROOT
BRANCH   3   5
ATOM      5  C   UNL     1       4.887   4.958  18.404  0.00  0.00    +0.000 A 
ATOM      6  C   UNL     1       6.054   5.206  19.142  0.00  0.00    +0.000 A 
ATOM      7  C   UNL     1       7.304   5.272  18.520  0.00  0.00    +0.000 A 
ATOM      8  C   UNL     1       7.417   5.069  17.151  0.00  0.00    +0.000 A 
ATOM      9  C   UNL     1       6.275   4.801  16.383  0.00  0.00    +0.000 A 
ATOM     10  C   UNL     1       5.026   4.750  17.024  0.00  0.00    +0.000 A 
BRANCH   9  11
ATOM     11  C   UNL     1       6.352   4.565  14.895  0.00  0.00    +0.000 C 
ATOM     12  F   UNL     1       7.484   5.065  14.325  0.00  0.00    +0.000 F 
ATOM     13  F   UNL     1       6.326   3.244  14.568  0.00  0.00    +0.000 F 
ATOM     14  F   UNL     1       5.316   5.139  14.222  0.00  0.00    +0.000 F 
ENDBRANCH   9  11
ENDBRANCH   3   5
BRANCH   1  17
ATOM     15  C   UNL     1       1.740   9.104  18.161  0.00  0.00    +0.000 C 
ATOM     16  O   UNL     1       2.371   9.273  17.120  0.00  0.00    +0.000 OA
ATOM     17  N   UNL     1       1.815   7.973  18.962  0.00  0.00    +0.000 N 
ATOM     18  H   UNL     1       1.230   7.916  19.791  0.00  0.00    +0.000 HD
BRANCH  15  20
ATOM     19  C   UNL     1       1.542  11.515  18.815  0.00  0.00    +0.000 C 
ATOM     20  C   UNL     1       0.801  10.178  18.749  0.00  0.00    +0.000 C 
ATOM     21  C   UNL     1       0.344   9.741  20.138  0.00  0.00    +0.000 C 
BRANCH  20  22
ATOM     22  O   UNL     1      -0.370  10.321  17.930  0.00  0.00    +0.000 OA
ATOM     23  H   UNL     1      -0.490   9.482  17.448  0.00  0.00    +0.000 HD
ENDBRANCH  20  22
ENDBRANCH  15  20
ENDBRANCH   1  17
BRANCH   2  24
ATOM     24  S   UNL     1       1.754   5.557  20.731  0.00  0.00    +0.000 S 
ATOM     25  H   UNL     1       1.949   6.729  21.345  0.00  0.00    +0.000 HD
ENDBRANCH   2  24
TORSDOF 6
ENDMDL
MODEL 8
REMARK VINA RESULT:      -6.7      4.255      5.388
REMARK  Name = 
REMARK  8 active torsions:
REMARK  status: ('A' for Active; 'I' for Inactive)
REMARK    1  A    between atoms: C_1  and  C_2
REMARK    2  A    between atoms: C_2  and  C_3
REMARK    3  A    between atoms: C_2  and  O_4
REMARK    4  A    between atoms: C_2  and  C_5
REMARK    5  A    between atoms: N_7  and  N_8
REMARK    6  A    between atoms: C_9  and  S_10
REMARK    7  A    between atoms: N_11  and  C_12
REMARK    8  A    between atoms: C_16  and  C_17
REMARK                            x       y       z     vdW  Elec       q    Type
REMARK                         _______ _______ _______ _____ _____    ______ ____
ROOT
ATOM      1  N   UNL     1       4.666   3.785  16.647  0.00  0.00    +0.000 NA
ATOM      2  C   UNL     1       5.771   4.387  16.962  0.00  0.00    +0.000 C 
ATOM      3  N   UNL     1       6.857   4.509  16.132  0.00  0.00    +0.000 N 
ATOM      4  H   UNL     1       7.718   4.795  16.576  0.00  0.00    +0.000 HD
ENDROOT
BRANCH   3   5
ATOM      5  C   UNL     1       6.863   4.528  14.726  0.00  0.00    +0.000 A 
ATOM      6  C   UNL     1       7.903   5.187  14.053  0.00  0.00    +0.000 A 
ATOM      7  C   UNL     1       7.963   5.210  12.657  0.00  0.00    +0.000 A 
ATOM      8  C   UNL     1       6.997   4.556  11.903  0.00  0.00    +0.000 A 
ATOM      9  C   UNL     1       5.952   3.872  12.541  0.00  0.00    +0.000 A 
ATOM     10  C   UNL     1       5.903   3.870  13.945  0.00  0.00    +0.000 A 
BRANCH   9  11
ATOM     11  C   UNL     1       4.888   3.139  11.762  0.00  0.00    +0.000 C 
ATOM     12  F   UNL     1       3.740   2.939  12.468  0.00  0.00    +0.000 F 
ATOM     13  F   UNL     1       4.515   3.796  10.629  0.00  0.00    +0.000 F 
ATOM     14  F   UNL     1       5.295   1.902  11.362  0.00  0.00    +0.000 F 
ENDBRANCH   9  11
ENDBRANCH   3   5
BRANCH   1  17
ATOM     15  C   UNL     1       3.211   2.575  18.073  0.00  0.00    +0.000 C 
ATOM     16  O   UNL     1       3.777   1.496  17.912  0.00  0.00    +0.000 OA
ATOM     17  N   UNL     1       3.597   3.771  17.481  0.00  0.00    +0.000 N 
ATOM     18  H   UNL     1       3.080   4.618  17.699  0.00  0.00    +0.000 HD
BRANCH  15  20
ATOM     19  C   UNL     1       1.294   4.087  18.641  0.00  0.00    +0.000 C 
ATOM     20  C   UNL     1       1.937   2.729  18.930  0.00  0.00    +0.000 C 
ATOM     21  C   UNL     1       2.307   2.606  20.406  0.00  0.00    +0.000 C 
BRANCH  20  22
ATOM     22  O   UNL     1       1.001   1.683  18.627  0.00  0.00    +0.000 OA
ATOM     23  H   UNL     1       1.372   1.169  17.885  0.00  0.00    +0.000 HD
ENDBRANCH  20  22
ENDBRANCH  15  20
ENDBRANCH   1  17
BRANCH   2  24
ATOM     24  S   UNL     1       6.064   5.087  18.552  0.00  0.00    +0.000 S 
ATOM     25  H   UNL     1       4.827   5.557  18.743  0.00  0.00    +0.000 HD
ENDBRANCH   2  24
TORSDOF 6
ENDMDL
MODEL 9
REMARK VINA RESULT:      -6.7      1.880      2.471
REMARK  Name = 
REMARK  8 active torsions:
REMARK  status: ('A' for Active; 'I' for Inactive)
REMARK    1  A    between atoms: C_1  and  C_2
REMARK    2  A    between atoms: C_2  and  C_3
REMARK    3  A    between atoms: C_2  and  O_4
REMARK    4  A    between atoms: C_2  and  C_5
REMARK    5  A    between atoms: N_7  and  N_8
REMARK    6  A    between atoms: C_9  and  S_10
REMARK    7  A    between atoms: N_11  and  C_12
REMARK    8  A    between atoms: C_16  and  C_17
REMARK                            x       y       z     vdW  Elec       q    Type
REMARK                         _______ _______ _______ _____ _____    ______ ____
ROOT
ATOM      1  N   UNL     1       2.681   6.696  19.508  0.00  0.00    +0.000 NA
ATOM      2  C   UNL     1       2.717   5.400  19.553  0.00  0.00    +0.000 C 
ATOM      3  N   UNL     1       3.300   4.603  18.601  0.00  0.00    +0.000 N 
ATOM      4  H   UNL     1       3.060   3.622  18.645  0.00  0.00    +0.000 HD
ENDROOT
BRANCH   3   5
ATOM      5  C   UNL     1       4.366   4.930  17.744  0.00  0.00    +0.000 A 
ATOM      6  C   UNL     1       4.436   4.332  16.477  0.00  0.00    +0.000 A 
ATOM      7  C   UNL     1       5.463   4.648  15.583  0.00  0.00    +0.000 A 
ATOM      8  C   UNL     1       6.429   5.583  15.928  0.00  0.00    +0.000 A 
ATOM      9  C   UNL     1       6.382   6.214  17.179  0.00  0.00    +0.000 A 
ATOM     10  C   UNL     1       5.349   5.876  18.068  0.00  0.00    +0.000 A 
BRANCH   9  11
ATOM     11  C   UNL     1       7.405   7.244  17.591  0.00  0.00    +0.000 C 
ATOM     12  F   UNL     1       6.856   8.428  17.981  0.00  0.00    +0.000 F 
ATOM     13  F   UNL     1       8.178   6.833  18.634  0.00  0.00    +0.000 F 
ATOM     14  F   UNL     1       8.268   7.552  16.582  0.00  0.00    +0.000 F 
ENDBRANCH   9  11
ENDBRANCH   3   5
BRANCH   1  17
ATOM     15  C   UNL     1       1.452   8.589  20.230  0.00  0.00    +0.000 C 
ATOM     16  O   UNL     1       1.232   9.012  19.097  0.00  0.00    +0.000 OA
ATOM     17  N   UNL     1       2.163   7.433  20.523  0.00  0.00    +0.000 N 
ATOM     18  H   UNL     1       2.268   7.151  21.493  0.00  0.00    +0.000 HD
BRANCH  15  20
ATOM     19  C   UNL     1      -0.322   8.746  21.993  0.00  0.00    +0.000 C 
ATOM     20  C   UNL     1       1.000   9.338  21.501  0.00  0.00    +0.000 C 
ATOM     21  C   UNL     1       0.845  10.823  21.182  0.00  0.00    +0.000 C 
BRANCH  20  22
ATOM     22  O   UNL     1       1.992   9.215  22.532  0.00  0.00    +0.000 OA
ATOM     23  H   UNL     1       1.522   9.015  23.363  0.00  0.00    +0.000 HD
ENDBRANCH  20  22
ENDBRANCH  15  20
ENDBRANCH   1  17
BRANCH   2  24
ATOM     24  S   UNL     1       1.950   4.462  20.833  0.00  0.00    +0.000 S 
ATOM     25  H   UNL     1       1.202   5.456  21.324  0.00  0.00    +0.000 HD
ENDBRANCH   2  24
TORSDOF 6
ENDMDL
