MODEL 1
REMARK VINA RESULT:      -7.1      0.000      0.000
REMARK  Name = 
REMARK  11 active torsions:
REMARK  status: ('A' for Active; 'I' for Inactive)
REMARK    1  A    between atoms: C_1  and  O_2
REMARK    2  A    between atoms: O_2  and  C_3
REMARK    3  A    between atoms: C_8  and  C_9
REMARK    4  A    between atoms: C_12  and  N_13
REMARK    5  A    between atoms: N_13  and  C_14
REMARK    6  A    between atoms: N_13  and  C_15
REMARK    7  A    between atoms: C_18  and  C_19
REMARK    8  A    between atoms: C_20  and  C_21
REMARK    9  A    between atoms: C_21  and  C_22
REMARK   10  A    between atoms: C_21  and  C_23
REMARK   11  A    between atoms: C_21  and  O_24
REMARK                            x       y       z     vdW  Elec       q    Type
REMARK                         _______ _______ _______ _____ _____    ______ ____
ROOT
ATOM      1  C   UNL     1       0.037   9.325  21.559  0.00  0.00    +0.000 A 
ATOM      2  C   UNL     1       0.140  10.440  20.740  0.00  0.00    +0.000 A 
ATOM      3  C   UNL     1       0.894  10.389  19.572  0.00  0.00    +0.000 A 
ATOM      4  C   UNL     1       1.554   9.194  19.234  0.00  0.00    +0.000 A 
ATOM      5  S   UNL     1       2.542   8.975  17.865  0.00  0.00    +0.000 S 
ATOM      6  C   UNL     1       2.879   7.335  18.238  0.00  0.00    +0.000 A 
ATOM      7  C   UNL     1       2.244   6.953  19.415  0.00  0.00    +0.000 A 
ATOM      8  C   UNL     1       1.472   8.037  20.012  0.00  0.00    +0.000 A 
ATOM      9  C   UNL     1       0.687   8.128  21.199  0.00  0.00    +0.000 A 
ENDROOT
BRANCH   6  10
ATOM     10  C   UNL     1       3.791   6.603  17.339  0.00  0.00    +0.000 A 
ATOM     11  C   UNL     1       4.620   7.281  16.446  0.00  0.00    +0.000 A 
ATOM     12  C   UNL     1       5.437   6.587  15.546  0.00  0.00    +0.000 A 
ATOM     13  C   UNL     1       5.431   5.188  15.454  0.00  0.00    +0.000 A 
ATOM     14  C   UNL     1       4.600   4.521  16.366  0.00  0.00    +0.000 A 
ATOM     15  C   UNL     1       3.821   5.204  17.303  0.00  0.00    +0.000 A 
BRANCH  13  16
ATOM     16  N   UNL     1       6.152   4.505  14.488  0.00  0.00    +0.000 N 
ATOM     17  C   UNL     1       7.523   4.879  14.148  0.00  0.00    +0.000 C 
ATOM     18  C   UNL     1       5.515   3.573  13.564  0.00  0.00    +0.000 C 
ENDBRANCH  13  16
ENDBRANCH   6  10
BRANCH   1  20
ATOM     19  C   UNL     1      -1.139  10.537  23.235  0.00  0.00    +0.000 C 
ATOM     20  O   UNL     1      -0.668   9.286  22.736  0.00  0.00    +0.000 OA
ENDBRANCH   1  20
BRANCH   7  21
ATOM     21  C   UNL     1       2.369   5.615  19.953  0.00  0.00    +0.000 C 
ATOM     22  C   UNL     1       2.462   4.400  20.418  0.00  0.00    +0.000 C 
BRANCH  22  23
ATOM     23  C   UNL     1       2.572   2.984  20.957  0.00  0.00    +0.000 C 
ATOM     24  C   UNL     1       1.478   2.108  20.350  0.00  0.00    +0.000 C 
ATOM     25  C   UNL     1       3.957   2.421  20.658  0.00  0.00    +0.000 C 
BRANCH  23  26
ATOM     26  O   UNL     1       2.400   3.020  22.372  0.00  0.00    +0.000 OA
ATOM     27  H   UNL     1       1.511   3.374  22.540  0.00  0.00    +0.000 HD
ENDBRANCH  23  26
ENDBRANCH  22  23
ENDBRANCH   7  21
TORSDOF 6
ENDMDL
MODEL 2
REMARK VINA RESULT:      -6.8      0.654      1.288
REMARK  Name = 
REMARK  11 active torsions:
REMARK  status: ('A' for Active; 'I' for Inactive)
REMARK    1  A    between atoms: C_1  and  O_2
REMARK    2  A    between atoms: O_2  and  C_3
REMARK    3  A    between atoms: C_8  and  C_9
REMARK    4  A    between atoms: C_12  and  N_13
REMARK    5  A    between atoms: N_13  and  C_14
REMARK    6  A    between atoms: N_13  and  C_15
REMARK    7  A    between atoms: C_18  and  C_19
REMARK    8  A    between atoms: C_20  and  C_21
REMARK    9  A    between atoms: C_21  and  C_22
REMARK   10  A    between atoms: C_21  and  C_23
REMARK   11  A    between atoms: C_21  and  O_24
REMARK                            x       y       z     vdW  Elec       q    Type
REMARK                         _______ _______ _______ _____ _____    ______ ____
ROOT
ATOM      1  C   UNL     1      -0.122   9.829  21.760  0.00  0.00    +0.000 A 
ATOM      2  C   UNL     1       0.012  10.927  20.922  0.00  0.00    +0.000 A 
ATOM      3  C   UNL     1       0.743  10.827  19.743  0.00  0.00    +0.000 A 
ATOM      4  C   UNL     1       1.347   9.601  19.412  0.00  0.00    +0.000 A 
ATOM      5  S   UNL     1       2.301   9.321  18.031  0.00  0.00    +0.000 S 
ATOM      6  C   UNL     1       2.576   7.674  18.423  0.00  0.00    +0.000 A 
ATOM      7  C   UNL     1       1.947   7.336  19.617  0.00  0.00    +0.000 A 
ATOM      8  C   UNL     1       1.231   8.460  20.210  0.00  0.00    +0.000 A 
ATOM      9  C   UNL     1       0.472   8.601  21.408  0.00  0.00    +0.000 A 
ENDROOT
BRANCH   6  10
ATOM     10  C   UNL     1       3.442   6.892  17.521  0.00  0.00    +0.000 A 
ATOM     11  C   UNL     1       3.424   5.497  17.535  0.00  0.00    +0.000 A 
ATOM     12  C   UNL     1       4.293   4.753  16.729  0.00  0.00    +0.000 A 
ATOM     13  C   UNL     1       5.256   5.357  15.908  0.00  0.00    +0.000 A 
ATOM     14  C   UNL     1       5.254   6.760  15.897  0.00  0.00    +0.000 A 
ATOM     15  C   UNL     1       4.355   7.510  16.659  0.00  0.00    +0.000 A 
BRANCH  13  16
ATOM     16  N   UNL     1       6.191   4.623  15.198  0.00  0.00    +0.000 N 
ATOM     17  C   UNL     1       5.847   3.952  13.946  0.00  0.00    +0.000 C 
ATOM     18  C   UNL     1       7.474   4.238  15.776  0.00  0.00    +0.000 C 
ENDBRANCH  13  16
ENDBRANCH   6  10
BRANCH   1  20
ATOM     19  C   UNL     1      -1.499  11.042  23.275  0.00  0.00    +0.000 C 
ATOM     20  O   UNL     1      -0.807   9.837  22.949  0.00  0.00    +0.000 OA
ENDBRANCH   1  20
BRANCH   7  21
ATOM     21  C   UNL     1       2.027   6.002  20.174  0.00  0.00    +0.000 C 
ATOM     22  C   UNL     1       2.123   4.796  20.658  0.00  0.00    +0.000 C 
BRANCH  22  23
ATOM     23  C   UNL     1       2.236   3.390  21.224  0.00  0.00    +0.000 C 
ATOM     24  C   UNL     1       0.945   2.617  20.964  0.00  0.00    +0.000 C 
ATOM     25  C   UNL     1       3.436   2.678  20.607  0.00  0.00    +0.000 C 
BRANCH  23  26
ATOM     26  O   UNL     1       2.445   3.479  22.631  0.00  0.00    +0.000 OA
ATOM     27  H   UNL     1       3.319   3.097  22.812  0.00  0.00    +0.000 HD
ENDBRANCH  23  26
ENDBRANCH  22  23
ENDBRANCH   7  21
TORSDOF 6
ENDMDL
MODEL 3
REMARK VINA RESULT:      -6.6      4.732      7.655
REMARK  Name = 
REMARK  11 active torsions:
REMARK  status: ('A' for Active; 'I' for Inactive)
REMARK    1  A    between atoms: C_1  and  O_2
REMARK    2  A    between atoms: O_2  and  C_3
REMARK    3  A    between atoms: C_8  and  C_9
REMARK    4  A    between atoms: C_12  and  N_13
REMARK    5  A    between atoms: N_13  and  C_14
REMARK    6  A    between atoms: N_13  and  C_15
REMARK    7  A    between atoms: C_18  and  C_19
REMARK    8  A    between atoms: C_20  and  C_21
REMARK    9  A    between atoms: C_21  and  C_22
REMARK   10  A    between atoms: C_21  and  C_23
REMARK   11  A    between atoms: C_21  and  O_24
REMARK                            x       y       z     vdW  Elec       q    Type
REMARK                         _______ _______ _______ _____ _____    ______ ____
ROOT
ATOM      1  C   UNL     1      -0.159  16.701  19.019  0.00  0.00    +0.000 A 
ATOM      2  C   UNL     1       1.097  16.891  19.577  0.00  0.00    +0.000 A 
ATOM      3  C   UNL     1       1.936  15.806  19.810  0.00  0.00    +0.000 A 
ATOM      4  C   UNL     1       1.494  14.514  19.475  0.00  0.00    +0.000 A 
ATOM      5  S   UNL     1       2.379  13.081  19.726  0.00  0.00    +0.000 S 
ATOM      6  C   UNL     1       1.157  12.082  19.057  0.00  0.00    +0.000 A 
ATOM      7  C   UNL     1       0.065  12.840  18.647  0.00  0.00    +0.000 A 
ATOM      8  C   UNL     1       0.248  14.266  18.895  0.00  0.00    +0.000 A 
ATOM      9  C   UNL     1      -0.582  15.403  18.670  0.00  0.00    +0.000 A 
ENDROOT
BRANCH   6  10
ATOM     10  C   UNL     1       1.389  10.625  19.054  0.00  0.00    +0.000 A 
ATOM     11  C   UNL     1       1.115   9.850  20.180  0.00  0.00    +0.000 A 
ATOM     12  C   UNL     1       1.399   8.480  20.203  0.00  0.00    +0.000 A 
ATOM     13  C   UNL     1       2.015   7.823  19.128  0.00  0.00    +0.000 A 
ATOM     14  C   UNL     1       2.274   8.616  17.999  0.00  0.00    +0.000 A 
ATOM     15  C   UNL     1       1.947   9.973  17.948  0.00  0.00    +0.000 A 
BRANCH  13  16
ATOM     16  N   UNL     1       2.400   6.495  19.191  0.00  0.00    +0.000 N 
ATOM     17  C   UNL     1       2.128   5.674  20.370  0.00  0.00    +0.000 C 
ATOM     18  C   UNL     1       3.332   5.913  18.231  0.00  0.00    +0.000 C 
ENDBRANCH  13  16
ENDBRANCH   6  10
BRANCH   1  20
ATOM     19  C   UNL     1      -0.804  18.519  17.626  0.00  0.00    +0.000 C 
ATOM     20  O   UNL     1      -1.060  17.705  18.770  0.00  0.00    +0.000 OA
ENDBRANCH   1  20
BRANCH   7  21
ATOM     21  C   UNL     1      -1.107  12.235  18.049  0.00  0.00    +0.000 C 
ATOM     22  C   UNL     1      -2.159  11.709  17.487  0.00  0.00    +0.000 C 
BRANCH  22  23
ATOM     23  C   UNL     1      -3.384  11.094  16.831  0.00  0.00    +0.000 C 
ATOM     24  C   UNL     1      -3.062  10.699  15.392  0.00  0.00    +0.000 C 
ATOM     25  C   UNL     1      -3.856   9.890  17.639  0.00  0.00    +0.000 C 
BRANCH  23  26
ATOM     26  O   UNL     1      -4.430  12.063  16.819  0.00  0.00    +0.000 OA
ATOM     27  H   UNL     1      -4.734  12.162  17.737  0.00  0.00    +0.000 HD
ENDBRANCH  23  26
ENDBRANCH  22  23
ENDBRANCH   7  21
TORSDOF 6
ENDMDL
MODEL 4
REMARK VINA RESULT:      -6.2      3.907      6.956
REMARK  Name = 
REMARK  11 active torsions:
REMARK  status: ('A' for Active; 'I' for Inactive)
REMARK    1  A    between atoms: C_1  and  O_2
REMARK    2  A    between atoms: O_2  and  C_3
REMARK    3  A    between atoms: C_8  and  C_9
REMARK    4  A    between atoms: C_12  and  N_13
REMARK    5  A    between atoms: N_13  and  C_14
REMARK    6  A    between atoms: N_13  and  C_15
REMARK    7  A    between atoms: C_18  and  C_19
REMARK    8  A    between atoms: C_20  and  C_21
REMARK    9  A    between atoms: C_21  and  C_22
REMARK   10  A    between atoms: C_21  and  C_23
REMARK   11  A    between atoms: C_21  and  O_24
REMARK                            x       y       z     vdW  Elec       q    Type
REMARK                         _______ _______ _______ _____ _____    ______ ____
ROOT
ATOM      1  C   UNL     1      -3.121  14.062  22.220  0.00  0.00    +0.000 A 
ATOM      2  C   UNL     1      -2.266  14.014  23.312  0.00  0.00    +0.000 A 
ATOM      3  C   UNL     1      -1.174  13.153  23.314  0.00  0.00    +0.000 A 
ATOM      4  C   UNL     1      -0.947  12.330  22.195  0.00  0.00    +0.000 A 
ATOM      5  S   UNL     1       0.318  11.200  22.052  0.00  0.00    +0.000 S 
ATOM      6  C   UNL     1      -0.154  10.712  20.477  0.00  0.00    +0.000 A 
ATOM      7  C   UNL     1      -1.285  11.405  20.060  0.00  0.00    +0.000 A 
ATOM      8  C   UNL     1      -1.764  12.350  21.063  0.00  0.00    +0.000 A 
ATOM      9  C   UNL     1      -2.872  13.246  21.098  0.00  0.00    +0.000 A 
ENDROOT
BRANCH   6  10
ATOM     10  C   UNL     1       0.628   9.641  19.830  0.00  0.00    +0.000 A 
ATOM     11  C   UNL     1       1.120   8.564  20.567  0.00  0.00    +0.000 A 
ATOM     12  C   UNL     1       1.919   7.582  19.969  0.00  0.00    +0.000 A 
ATOM     13  C   UNL     1       2.310   7.650  18.624  0.00  0.00    +0.000 A 
ATOM     14  C   UNL     1       1.797   8.734  17.895  0.00  0.00    +0.000 A 
ATOM     15  C   UNL     1       0.957   9.690  18.471  0.00  0.00    +0.000 A 
BRANCH  13  16
ATOM     16  N   UNL     1       3.192   6.743  18.060  0.00  0.00    +0.000 N 
ATOM     17  C   UNL     1       3.217   5.341  18.474  0.00  0.00    +0.000 C 
ATOM     18  C   UNL     1       4.322   7.169  17.242  0.00  0.00    +0.000 C 
ENDBRANCH  13  16
ENDBRANCH   6  10
BRANCH   1  20
ATOM     19  C   UNL     1      -4.549  15.632  23.295  0.00  0.00    +0.000 C 
ATOM     20  O   UNL     1      -4.231  14.864  22.135  0.00  0.00    +0.000 OA
ENDBRANCH   1  20
BRANCH   7  21
ATOM     21  C   UNL     1      -1.890  11.175  18.765  0.00  0.00    +0.000 C 
ATOM     22  C   UNL     1      -2.426  10.997  17.590  0.00  0.00    +0.000 C 
BRANCH  22  23
ATOM     23  C   UNL     1      -3.049  10.788  16.220  0.00  0.00    +0.000 C 
ATOM     24  C   UNL     1      -2.803   9.358  15.747  0.00  0.00    +0.000 C 
ATOM     25  C   UNL     1      -4.541  11.100  16.276  0.00  0.00    +0.000 C 
BRANCH  23  26
ATOM     26  O   UNL     1      -2.439  11.689  15.299  0.00  0.00    +0.000 OA
ATOM     27  H   UNL     1      -2.547  11.304  14.413  0.00  0.00    +0.000 HD
ENDBRANCH  23  26
ENDBRANCH  22  23
ENDBRANCH   7  21
TORSDOF 6
ENDMDL
MODEL 5
REMARK VINA RESULT:      -6.1      0.677      1.316
REMARK  Name = 
REMARK  11 active torsions:
REMARK  status: ('A' for Active; 'I' for Inactive)
REMARK    1  A    between atoms: C_1  and  O_2
REMARK    2  A    between atoms: O_2  and  C_3
REMARK    3  A    between atoms: C_8  and  C_9
REMARK    4  A    between atoms: C_12  and  N_13
REMARK    5  A    between atoms: N_13  and  C_14
REMARK    6  A    between atoms: N_13  and  C_15
REMARK    7  A    between atoms: C_18  and  C_19
REMARK    8  A    between atoms: C_20  and  C_21
REMARK    9  A    between atoms: C_21  and  C_22
REMARK   10  A    between atoms: C_21  and  C_23
REMARK   11  A    between atoms: C_21  and  O_24
REMARK                            x       y       z     vdW  Elec       q    Type
REMARK                         _______ _______ _______ _____ _____    ______ ____
ROOT
ATOM      1  C   UNL     1       0.027   9.263  21.596  0.00  0.00    +0.000 A 
ATOM      2  C   UNL     1       0.184  10.419  20.846  0.00  0.00    +0.000 A 
ATOM      3  C   UNL     1       0.937  10.402  19.676  0.00  0.00    +0.000 A 
ATOM      4  C   UNL     1       1.539   9.199  19.266  0.00  0.00    +0.000 A 
ATOM      5  S   UNL     1       2.518   9.015  17.885  0.00  0.00    +0.000 S 
ATOM      6  C   UNL     1       2.774   7.342  18.158  0.00  0.00    +0.000 A 
ATOM      7  C   UNL     1       2.120   6.921  19.311  0.00  0.00    +0.000 A 
ATOM      8  C   UNL     1       1.400   8.002  19.973  0.00  0.00    +0.000 A 
ATOM      9  C   UNL     1       0.619   8.059  21.165  0.00  0.00    +0.000 A 
ENDROOT
BRANCH   6  10
ATOM     10  C   UNL     1       3.652   6.622  17.216  0.00  0.00    +0.000 A 
ATOM     11  C   UNL     1       3.834   5.242  17.312  0.00  0.00    +0.000 A 
ATOM     12  C   UNL     1       4.718   4.568  16.463  0.00  0.00    +0.000 A 
ATOM     13  C   UNL     1       5.503   5.236  15.512  0.00  0.00    +0.000 A 
ATOM     14  C   UNL     1       5.301   6.622  15.422  0.00  0.00    +0.000 A 
ATOM     15  C   UNL     1       4.382   7.296  16.230  0.00  0.00    +0.000 A 
BRANCH  13  16
ATOM     16  N   UNL     1       6.460   4.588  14.751  0.00  0.00    +0.000 N 
ATOM     17  C   UNL     1       7.868   4.979  14.795  0.00  0.00    +0.000 C 
ATOM     18  C   UNL     1       6.102   3.682  13.664  0.00  0.00    +0.000 C 
ENDBRANCH  13  16
ENDBRANCH   6  10
BRANCH   1  20
ATOM     19  C   UNL     1      -1.116  10.426  23.329  0.00  0.00    +0.000 C 
ATOM     20  O   UNL     1      -0.681   9.188  22.770  0.00  0.00    +0.000 OA
ENDBRANCH   1  20
BRANCH   7  21
ATOM     21  C   UNL     1       2.180   5.548  19.768  0.00  0.00    +0.000 C 
ATOM     22  C   UNL     1       2.246   4.322  20.206  0.00  0.00    +0.000 C 
BRANCH  22  23
ATOM     23  C   UNL     1       2.322   2.893  20.717  0.00  0.00    +0.000 C 
ATOM     24  C   UNL     1       3.774   2.422  20.736  0.00  0.00    +0.000 C 
ATOM     25  C   UNL     1       1.698   2.805  22.106  0.00  0.00    +0.000 C 
BRANCH  23  26
ATOM     26  O   UNL     1       1.577   2.053  19.838  0.00  0.00    +0.000 OA
ATOM     27  H   UNL     1       2.222   1.557  19.308  0.00  0.00    +0.000 HD
ENDBRANCH  23  26
ENDBRANCH  22  23
ENDBRANCH   7  21
TORSDOF 6
ENDMDL
MODEL 6
REMARK VINA RESULT:      -6.1      4.678      7.546
REMARK  Name = 
REMARK  11 active torsions:
REMARK  status: ('A' for Active; 'I' for Inactive)
REMARK    1  A    between atoms: C_1  and  O_2
REMARK    2  A    between atoms: O_2  and  C_3
REMARK    3  A    between atoms: C_8  and  C_9
REMARK    4  A    between atoms: C_12  and  N_13
REMARK    5  A    between atoms: N_13  and  C_14
REMARK    6  A    between atoms: N_13  and  C_15
REMARK    7  A    between atoms: C_18  and  C_19
REMARK    8  A    between atoms: C_20  and  C_21
REMARK    9  A    between atoms: C_21  and  C_22
REMARK   10  A    between atoms: C_21  and  C_23
REMARK   11  A    between atoms: C_21  and  O_24
REMARK                            x       y       z     vdW  Elec       q    Type
REMARK                         _______ _______ _______ _____ _____    ______ ____
ROOT
ATOM      1  C   UNL     1      -0.467  16.616  19.025  0.00  0.00    +0.000 A 
ATOM      2  C   UNL     1       0.741  16.898  19.646  0.00  0.00    +0.000 A 
ATOM      3  C   UNL     1       1.635  15.875  19.945  0.00  0.00    +0.000 A 
ATOM      4  C   UNL     1       1.298  14.551  19.612  0.00  0.00    +0.000 A 
ATOM      5  S   UNL     1       2.259  13.184  19.939  0.00  0.00    +0.000 S 
ATOM      6  C   UNL     1       1.143  12.096  19.224  0.00  0.00    +0.000 A 
ATOM      7  C   UNL     1       0.028  12.773  18.742  0.00  0.00    +0.000 A 
ATOM      8  C   UNL     1       0.104  14.211  18.971  0.00  0.00    +0.000 A 
ATOM      9  C   UNL     1      -0.785  15.287  18.680  0.00  0.00    +0.000 A 
ENDROOT
BRANCH   6  10
ATOM     10  C   UNL     1       1.470  10.658  19.263  0.00  0.00    +0.000 A 
ATOM     11  C   UNL     1       1.996  10.009  18.146  0.00  0.00    +0.000 A 
ATOM     12  C   UNL     1       2.243   8.632  18.159  0.00  0.00    +0.000 A 
ATOM     13  C   UNL     1       1.933   7.823  19.262  0.00  0.00    +0.000 A 
ATOM     14  C   UNL     1       1.414   8.494  20.380  0.00  0.00    +0.000 A 
ATOM     15  C   UNL     1       1.212   9.876  20.394  0.00  0.00    +0.000 A 
BRANCH  13  16
ATOM     16  N   UNL     1       2.070   6.446  19.235  0.00  0.00    +0.000 N 
ATOM     17  C   UNL     1       1.879   5.634  20.435  0.00  0.00    +0.000 C 
ATOM     18  C   UNL     1       2.678   5.751  18.106  0.00  0.00    +0.000 C 
ENDBRANCH  13  16
ENDBRANCH   6  10
BRANCH   1  20
ATOM     19  C   UNL     1      -1.052  18.519  17.722  0.00  0.00    +0.000 C 
ATOM     20  O   UNL     1      -1.417  17.554  18.708  0.00  0.00    +0.000 OA
ENDBRANCH   1  20
BRANCH   7  21
ATOM     21  C   UNL     1      -1.068  12.082  18.094  0.00  0.00    +0.000 C 
ATOM     22  C   UNL     1      -2.072  11.470  17.533  0.00  0.00    +0.000 C 
BRANCH  22  23
ATOM     23  C   UNL     1      -3.244  10.758  16.877  0.00  0.00    +0.000 C 
ATOM     24  C   UNL     1      -4.512  11.594  17.026  0.00  0.00    +0.000 C 
ATOM     25  C   UNL     1      -2.932  10.489  15.409  0.00  0.00    +0.000 C 
BRANCH  23  26
ATOM     26  O   UNL     1      -3.439   9.505  17.530  0.00  0.00    +0.000 OA
ATOM     27  H   UNL     1      -3.258   9.647  18.474  0.00  0.00    +0.000 HD
ENDBRANCH  23  26
ENDBRANCH  22  23
ENDBRANCH   7  21
TORSDOF 6
ENDMDL
MODEL 7
REMARK VINA RESULT:      -6.1      4.552      7.408
REMARK  Name = 
REMARK  11 active torsions:
REMARK  status: ('A' for Active; 'I' for Inactive)
REMARK    1  A    between atoms: C_1  and  O_2
REMARK    2  A    between atoms: O_2  and  C_3
REMARK    3  A    between atoms: C_8  and  C_9
REMARK    4  A    between atoms: C_12  and  N_13
REMARK    5  A    between atoms: N_13  and  C_14
REMARK    6  A    between atoms: N_13  and  C_15
REMARK    7  A    between atoms: C_18  and  C_19
REMARK    8  A    between atoms: C_20  and  C_21
REMARK    9  A    between atoms: C_21  and  C_22
REMARK   10  A    between atoms: C_21  and  C_23
REMARK   11  A    between atoms: C_21  and  O_24
REMARK                            x       y       z     vdW  Elec       q    Type
REMARK                         _______ _______ _______ _____ _____    ______ ____
ROOT
ATOM      1  C   UNL     1      -0.731  16.456  20.136  0.00  0.00    +0.000 A 
ATOM      2  C   UNL     1       0.446  16.622  20.852  0.00  0.00    +0.000 A 
ATOM      3  C   UNL     1       1.343  15.568  20.985  0.00  0.00    +0.000 A 
ATOM      4  C   UNL     1       1.042  14.331  20.386  0.00  0.00    +0.000 A 
ATOM      5  S   UNL     1       2.012  12.935  20.483  0.00  0.00    +0.000 S 
ATOM      6  C   UNL     1       0.945  11.997  19.522  0.00  0.00    +0.000 A 
ATOM      7  C   UNL     1      -0.161  12.747  19.133  0.00  0.00    +0.000 A 
ATOM      8  C   UNL     1      -0.118  14.113  19.641  0.00  0.00    +0.000 A 
ATOM      9  C   UNL     1      -1.013  15.218  19.525  0.00  0.00    +0.000 A 
ENDROOT
BRANCH   6  10
ATOM     10  C   UNL     1       1.294  10.582  19.295  0.00  0.00    +0.000 A 
ATOM     11  C   UNL     1       1.154   9.634  20.308  0.00  0.00    +0.000 A 
ATOM     12  C   UNL     1       1.549   8.306  20.115  0.00  0.00    +0.000 A 
ATOM     13  C   UNL     1       2.148   7.865  18.926  0.00  0.00    +0.000 A 
ATOM     14  C   UNL     1       2.271   8.829  17.914  0.00  0.00    +0.000 A 
ATOM     15  C   UNL     1       1.833  10.145  18.079  0.00  0.00    +0.000 A 
BRANCH  13  16
ATOM     16  N   UNL     1       2.643   6.581  18.775  0.00  0.00    +0.000 N 
ATOM     17  C   UNL     1       3.574   6.240  17.702  0.00  0.00    +0.000 C 
ATOM     18  C   UNL     1       2.065   5.441  19.479  0.00  0.00    +0.000 C 
ENDBRANCH  13  16
ENDBRANCH   6  10
BRANCH   1  20
ATOM     19  C   UNL     1      -3.043  17.012  20.062  0.00  0.00    +0.000 C 
ATOM     20  O   UNL     1      -1.683  17.430  19.966  0.00  0.00    +0.000 OA
ENDBRANCH   1  20
BRANCH   7  21
ATOM     21  C   UNL     1      -1.217  12.186  18.315  0.00  0.00    +0.000 C 
ATOM     22  C   UNL     1      -2.149  11.657  17.574  0.00  0.00    +0.000 C 
BRANCH  22  23
ATOM     23  C   UNL     1      -3.237  11.040  16.711  0.00  0.00    +0.000 C 
ATOM     24  C   UNL     1      -2.934   9.564  16.467  0.00  0.00    +0.000 C 
ATOM     25  C   UNL     1      -4.595  11.219  17.383  0.00  0.00    +0.000 C 
BRANCH  23  26
ATOM     26  O   UNL     1      -3.265  11.718  15.458  0.00  0.00    +0.000 OA
ATOM     27  H   UNL     1      -3.940  12.414  15.528  0.00  0.00    +0.000 HD
ENDBRANCH  23  26
ENDBRANCH  22  23
ENDBRANCH   7  21
TORSDOF 6
ENDMDL
MODEL 8
REMARK VINA RESULT:      -6.1      4.471      7.327
REMARK  Name = 
REMARK  11 active torsions:
REMARK  status: ('A' for Active; 'I' for Inactive)
REMARK    1  A    between atoms: C_1  and  O_2
REMARK    2  A    between atoms: O_2  and  C_3
REMARK    3  A    between atoms: C_8  and  C_9
REMARK    4  A    between atoms: C_12  and  N_13
REMARK    5  A    between atoms: N_13  and  C_14
REMARK    6  A    between atoms: N_13  and  C_15
REMARK    7  A    between atoms: C_18  and  C_19
REMARK    8  A    between atoms: C_20  and  C_21
REMARK    9  A    between atoms: C_21  and  C_22
REMARK   10  A    between atoms: C_21  and  C_23
REMARK   11  A    between atoms: C_21  and  O_24
REMARK                            x       y       z     vdW  Elec       q    Type
REMARK                         _______ _______ _______ _____ _____    ______ ____
ROOT
ATOM      1  C   UNL     1      -0.894  16.350  19.939  0.00  0.00    +0.000 A 
ATOM      2  C   UNL     1       0.290  16.565  20.630  0.00  0.00    +0.000 A 
ATOM      3  C   UNL     1       1.216  15.537  20.775  0.00  0.00    +0.000 A 
ATOM      4  C   UNL     1       0.937  14.277  20.214  0.00  0.00    +0.000 A 
ATOM      5  S   UNL     1       1.943  12.909  20.330  0.00  0.00    +0.000 S 
ATOM      6  C   UNL     1       0.884  11.920  19.414  0.00  0.00    +0.000 A 
ATOM      7  C   UNL     1      -0.246  12.631  19.024  0.00  0.00    +0.000 A 
ATOM      8  C   UNL     1      -0.230  14.011  19.495  0.00  0.00    +0.000 A 
ATOM      9  C   UNL     1      -1.154  15.089  19.366  0.00  0.00    +0.000 A 
ENDROOT
BRANCH   6  10
ATOM     10  C   UNL     1       1.265  10.508  19.218  0.00  0.00    +0.000 A 
ATOM     11  C   UNL     1       1.141   9.579  20.249  0.00  0.00    +0.000 A 
ATOM     12  C   UNL     1       1.565   8.255  20.086  0.00  0.00    +0.000 A 
ATOM     13  C   UNL     1       2.180   7.804  18.910  0.00  0.00    +0.000 A 
ATOM     14  C   UNL     1       2.288   8.749  17.878  0.00  0.00    +0.000 A 
ATOM     15  C   UNL     1       1.820  10.058  18.014  0.00  0.00    +0.000 A 
BRANCH  13  16
ATOM     16  N   UNL     1       2.704   6.527  18.788  0.00  0.00    +0.000 N 
ATOM     17  C   UNL     1       2.233   5.424  19.623  0.00  0.00    +0.000 C 
ATOM     18  C   UNL     1       3.927   6.261  18.040  0.00  0.00    +0.000 C 
ENDBRANCH  13  16
ENDBRANCH   6  10
BRANCH   1  20
ATOM     19  C   UNL     1      -3.083  17.102  20.490  0.00  0.00    +0.000 C 
ATOM     20  O   UNL     1      -1.872  17.295  19.760  0.00  0.00    +0.000 OA
ENDBRANCH   1  20
BRANCH   7  21
ATOM     21  C   UNL     1      -1.301  12.022  18.241  0.00  0.00    +0.000 C 
ATOM     22  C   UNL     1      -2.258  11.457  17.559  0.00  0.00    +0.000 C 
BRANCH  22  23
ATOM     23  C   UNL     1      -3.375  10.799  16.766  0.00  0.00    +0.000 C 
ATOM     24  C   UNL     1      -4.641  11.648  16.844  0.00  0.00    +0.000 C 
ATOM     25  C   UNL     1      -2.935  10.599  15.319  0.00  0.00    +0.000 C 
BRANCH  23  26
ATOM     26  O   UNL     1      -3.644   9.518  17.332  0.00  0.00    +0.000 OA
ATOM     27  H   UNL     1      -4.091   9.673  18.181  0.00  0.00    +0.000 HD
ENDBRANCH  23  26
ENDBRANCH  22  23
ENDBRANCH   7  21
TORSDOF 6
ENDMDL
MODEL 9
REMARK VINA RESULT:      -6.1      4.031      7.039
REMARK  Name = 
REMARK  11 active torsions:
REMARK  status: ('A' for Active; 'I' for Inactive)
REMARK    1  A    between atoms: C_1  and  O_2
REMARK    2  A    between atoms: O_2  and  C_3
REMARK    3  A    between atoms: C_8  and  C_9
REMARK    4  A    between atoms: C_12  and  N_13
REMARK    5  A    between atoms: N_13  and  C_14
REMARK    6  A    between atoms: N_13  and  C_15
REMARK    7  A    between atoms: C_18  and  C_19
REMARK    8  A    between atoms: C_20  and  C_21
REMARK    9  A    between atoms: C_21  and  C_22
REMARK   10  A    between atoms: C_21  and  C_23
REMARK   11  A    between atoms: C_21  and  O_24
REMARK                            x       y       z     vdW  Elec       q    Type
REMARK                         _______ _______ _______ _____ _____    ______ ____
ROOT
ATOM      1  C   UNL     1      -3.376  14.211  22.153  0.00  0.00    +0.000 A 
ATOM      2  C   UNL     1      -2.548  14.243  23.266  0.00  0.00    +0.000 A 
ATOM      3  C   UNL     1      -1.409  13.446  23.318  0.00  0.00    +0.000 A 
ATOM      4  C   UNL     1      -1.108  12.606  22.230  0.00  0.00    +0.000 A 
ATOM      5  S   UNL     1       0.222  11.547  22.150  0.00  0.00    +0.000 S 
ATOM      6  C   UNL     1      -0.182  10.988  20.580  0.00  0.00    +0.000 A 
ATOM      7  C   UNL     1      -1.341  11.603  20.117  0.00  0.00    +0.000 A 
ATOM      8  C   UNL     1      -1.897  12.547  21.079  0.00  0.00    +0.000 A 
ATOM      9  C   UNL     1      -3.054  13.379  21.062  0.00  0.00    +0.000 A 
ENDROOT
BRANCH   6  10
ATOM     10  C   UNL     1       0.674   9.945  19.984  0.00  0.00    +0.000 A 
ATOM     11  C   UNL     1       1.035   9.992  18.638  0.00  0.00    +0.000 A 
ATOM     12  C   UNL     1       1.791   8.969  18.055  0.00  0.00    +0.000 A 
ATOM     13  C   UNL     1       2.181   7.825  18.766  0.00  0.00    +0.000 A 
ATOM     14  C   UNL     1       1.819   7.798  20.121  0.00  0.00    +0.000 A 
ATOM     15  C   UNL     1       1.109   8.840  20.725  0.00  0.00    +0.000 A 
BRANCH  13  16
ATOM     16  N   UNL     1       2.829   6.760  18.163  0.00  0.00    +0.000 N 
ATOM     17  C   UNL     1       4.049   6.950  17.381  0.00  0.00    +0.000 C 
ATOM     18  C   UNL     1       2.202   5.450  18.026  0.00  0.00    +0.000 C 
ENDBRANCH  13  16
ENDBRANCH   6  10
BRANCH   1  20
ATOM     19  C   UNL     1      -4.365  16.347  21.807  0.00  0.00    +0.000 C 
ATOM     20  O   UNL     1      -4.527  14.946  22.019  0.00  0.00    +0.000 OA
ENDBRANCH   1  20
BRANCH   7  21
ATOM     21  C   UNL     1      -1.900  11.302  18.815  0.00  0.00    +0.000 C 
ATOM     22  C   UNL     1      -2.409  11.062  17.640  0.00  0.00    +0.000 C 
BRANCH  22  23
ATOM     23  C   UNL     1      -3.001  10.781  16.268  0.00  0.00    +0.000 C 
ATOM     24  C   UNL     1      -2.672   9.354  15.840  0.00  0.00    +0.000 C 
ATOM     25  C   UNL     1      -4.509  11.013  16.298  0.00  0.00    +0.000 C 
BRANCH  23  26
ATOM     26  O   UNL     1      -2.428  11.688  15.329  0.00  0.00    +0.000 OA
ATOM     27  H   UNL     1      -1.528  11.885  15.640  0.00  0.00    +0.000 HD
ENDBRANCH  23  26
ENDBRANCH  22  23
ENDBRANCH   7  21
TORSDOF 6
ENDMDL
