MODEL 1
REMARK VINA RESULT:      -8.7      0.000      0.000
REMARK  Name = 
REMARK  5 active torsions:
REMARK  status: ('A' for Active; 'I' for Inactive)
REMARK    1  A    between atoms: C_1  and  C_2
REMARK    2  A    between atoms: C_4  and  C_5
REMARK    3  A    between atoms: N_8  and  C_9
REMARK    4  A    between atoms: C_9  and  N_11
REMARK    5  A    between atoms: N_14  and  C_15
REMARK                            x       y       z     vdW  Elec       q    Type
REMARK                         _______ _______ _______ _____ _____    ______ ____
ROOT
ATOM      1  N   UNL     1       1.278   9.802  19.100  0.00  0.00    +0.000 N 
ATOM      2  C   UNL     1       1.677   9.167  17.818  0.00  0.00    +0.000 C 
ATOM      3  C   UNL     1       2.716   8.041  17.946  0.00  0.00    +0.000 C 
ATOM      4  N   UNL     1       2.256   7.071  18.942  0.00  0.00    +0.000 N 
ATOM      5  C   UNL     1       2.033   7.669  20.269  0.00  0.00    +0.000 C 
ATOM      6  C   UNL     1       0.998   8.816  20.179  0.00  0.00    +0.000 C 
ENDROOT
BRANCH   4   7
ATOM      7  C   UNL     1       2.424   5.707  18.778  0.00  0.00    +0.000 A 
ATOM      8  C   UNL     1       3.219   5.176  17.743  0.00  0.00    +0.000 A 
ATOM      9  C   UNL     1       3.337   3.793  17.532  0.00  0.00    +0.000 A 
ATOM     10  C   UNL     1       2.657   2.915  18.361  0.00  0.00    +0.000 A 
ATOM     11  F   UNL     1       2.761   1.596  18.147  0.00  0.00    +0.000 F 
ATOM     12  C   UNL     1       1.872   3.398  19.394  0.00  0.00    +0.000 A 
ATOM     13  F   UNL     1       1.197   2.544  20.178  0.00  0.00    +0.000 F 
ATOM     14  C   UNL     1       1.759   4.771  19.600  0.00  0.00    +0.000 A 
ATOM     15  F   UNL     1       0.935   5.197  20.576  0.00  0.00    +0.000 F 
ENDBRANCH   4   7
BRANCH   1  16
ATOM     16  C   UNL     1       0.640  11.078  19.070  0.00  0.00    +0.000 C 
ATOM     17  S   UNL     1       1.501  12.508  18.786  0.00  0.00    +0.000 S 
BRANCH  16  25
ATOM     18  C   UNL     1      -2.884   9.950  15.029  0.00  0.00    +0.000 C 
ATOM     19  C   UNL     1      -2.943  10.489  16.426  0.00  0.00    +0.000 A 
ATOM     20  C   UNL     1      -4.085  11.103  16.928  0.00  0.00    +0.000 A 
ATOM     21  C   UNL     1      -4.063  11.594  18.230  0.00  0.00    +0.000 A 
ATOM     22  C   UNL     1      -5.291  12.239  18.805  0.00  0.00    +0.000 C 
ATOM     23  N   UNL     1      -2.960  11.536  19.025  0.00  0.00    +0.000 NA
ATOM     24  C   UNL     1      -1.837  10.985  18.511  0.00  0.00    +0.000 A 
ATOM     25  N   UNL     1      -0.716  11.025  19.370  0.00  0.00    +0.000 N 
ATOM     26  C   UNL     1      -1.819  10.405  17.250  0.00  0.00    +0.000 A 
ATOM     27  H   UNL     1      -0.981  11.411  20.264  0.00  0.00    +0.000 HD
ENDBRANCH  16  25
ENDBRANCH   1  16
TORSDOF 3
ENDMDL
MODEL 2
REMARK VINA RESULT:      -8.4      1.438      2.214
REMARK  Name = 
REMARK  5 active torsions:
REMARK  status: ('A' for Active; 'I' for Inactive)
REMARK    1  A    between atoms: C_1  and  C_2
REMARK    2  A    between atoms: C_4  and  C_5
REMARK    3  A    between atoms: N_8  and  C_9
REMARK    4  A    between atoms: C_9  and  N_11
REMARK    5  A    between atoms: N_14  and  C_15
REMARK                            x       y       z     vdW  Elec       q    Type
REMARK                         _______ _______ _______ _____ _____    ______ ____
ROOT
ATOM      1  N   UNL     1       1.202   9.572  19.231  0.00  0.00    +0.000 N 
ATOM      2  C   UNL     1       1.684   9.078  17.916  0.00  0.00    +0.000 C 
ATOM      3  C   UNL     1       2.801   8.025  17.987  0.00  0.00    +0.000 C 
ATOM      4  N   UNL     1       2.387   6.943  18.883  0.00  0.00    +0.000 N 
ATOM      5  C   UNL     1       2.081   7.408  20.246  0.00  0.00    +0.000 C 
ATOM      6  C   UNL     1       0.966   8.481  20.215  0.00  0.00    +0.000 C 
ENDROOT
BRANCH   4   7
ATOM      7  C   UNL     1       2.662   5.613  18.613  0.00  0.00    +0.000 A 
ATOM      8  C   UNL     1       1.766   4.803  17.887  0.00  0.00    +0.000 A 
ATOM      9  C   UNL     1       2.009   3.438  17.669  0.00  0.00    +0.000 A 
ATOM     10  C   UNL     1       3.162   2.859  18.178  0.00  0.00    +0.000 A 
ATOM     11  F   UNL     1       3.381   1.552  17.980  0.00  0.00    +0.000 F 
ATOM     12  C   UNL     1       4.070   3.624  18.890  0.00  0.00    +0.000 A 
ATOM     13  F   UNL     1       5.171   3.053  19.399  0.00  0.00    +0.000 F 
ATOM     14  C   UNL     1       3.825   4.978  19.102  0.00  0.00    +0.000 A 
ATOM     15  F   UNL     1       4.704   5.669  19.853  0.00  0.00    +0.000 F 
ENDBRANCH   4   7
BRANCH   1  16
ATOM     16  C   UNL     1       0.471  10.796  19.284  0.00  0.00    +0.000 C 
ATOM     17  S   UNL     1       0.403  11.744  20.685  0.00  0.00    +0.000 S 
BRANCH  16  25
ATOM     18  C   UNL     1      -4.809  12.211  19.658  0.00  0.00    +0.000 C 
ATOM     19  C   UNL     1      -3.857  11.773  18.587  0.00  0.00    +0.000 A 
ATOM     20  C   UNL     1      -4.300  11.375  17.331  0.00  0.00    +0.000 A 
ATOM     21  C   UNL     1      -3.361  10.966  16.389  0.00  0.00    +0.000 A 
ATOM     22  C   UNL     1      -3.810  10.555  15.017  0.00  0.00    +0.000 C 
ATOM     23  N   UNL     1      -2.028  10.900  16.653  0.00  0.00    +0.000 NA
ATOM     24  C   UNL     1      -1.610  11.238  17.895  0.00  0.00    +0.000 A 
ATOM     25  N   UNL     1      -0.224  11.076  18.113  0.00  0.00    +0.000 N 
ATOM     26  C   UNL     1      -2.487  11.731  18.851  0.00  0.00    +0.000 A 
ATOM     27  H   UNL     1       0.229  10.791  17.257  0.00  0.00    +0.000 HD
ENDBRANCH  16  25
ENDBRANCH   1  16
TORSDOF 3
ENDMDL
MODEL 3
REMARK VINA RESULT:      -8.4      1.320      1.719
REMARK  Name = 
REMARK  5 active torsions:
REMARK  status: ('A' for Active; 'I' for Inactive)
REMARK    1  A    between atoms: C_1  and  C_2
REMARK    2  A    between atoms: C_4  and  C_5
REMARK    3  A    between atoms: N_8  and  C_9
REMARK    4  A    between atoms: C_9  and  N_11
REMARK    5  A    between atoms: N_14  and  C_15
REMARK                            x       y       z     vdW  Elec       q    Type
REMARK                         _______ _______ _______ _____ _____    ______ ____
ROOT
ATOM      1  N   UNL     1       0.939   9.996  19.238  0.00  0.00    +0.000 N 
ATOM      2  C   UNL     1       1.373   9.130  18.112  0.00  0.00    +0.000 C 
ATOM      3  C   UNL     1       2.465   8.107  18.462  0.00  0.00    +0.000 C 
ATOM      4  N   UNL     1       2.049   7.341  19.638  0.00  0.00    +0.000 N 
ATOM      5  C   UNL     1       1.791   8.188  20.816  0.00  0.00    +0.000 C 
ATOM      6  C   UNL     1       0.702   9.241  20.499  0.00  0.00    +0.000 C 
ENDROOT
BRANCH   4   7
ATOM      7  C   UNL     1       2.283   5.982  19.757  0.00  0.00    +0.000 A 
ATOM      8  C   UNL     1       1.350   5.119  20.367  0.00  0.00    +0.000 A 
ATOM      9  C   UNL     1       1.612   3.752  20.549  0.00  0.00    +0.000 A 
ATOM     10  C   UNL     1       2.821   3.225  20.122  0.00  0.00    +0.000 A 
ATOM     11  F   UNL     1       3.073   1.923  20.312  0.00  0.00    +0.000 F 
ATOM     12  C   UNL     1       3.760   4.039  19.512  0.00  0.00    +0.000 A 
ATOM     13  F   UNL     1       4.936   3.528  19.121  0.00  0.00    +0.000 F 
ATOM     14  C   UNL     1       3.494   5.394  19.331  0.00  0.00    +0.000 A 
ATOM     15  F   UNL     1       4.461   6.161  18.791  0.00  0.00    +0.000 F 
ENDBRANCH   4   7
BRANCH   1  16
ATOM     16  C   UNL     1       0.240  11.206  18.951  0.00  0.00    +0.000 C 
ATOM     17  S   UNL     1       1.046  12.627  18.509  0.00  0.00    +0.000 S 
BRANCH  16  25
ATOM     18  C   UNL     1      -2.933  10.050  14.637  0.00  0.00    +0.000 C 
ATOM     19  C   UNL     1      -3.113  10.564  16.032  0.00  0.00    +0.000 A 
ATOM     20  C   UNL     1      -4.307  11.138  16.454  0.00  0.00    +0.000 A 
ATOM     21  C   UNL     1      -4.399  11.608  17.762  0.00  0.00    +0.000 A 
ATOM     22  C   UNL     1      -5.684  12.209  18.250  0.00  0.00    +0.000 C 
ATOM     23  N   UNL     1      -3.358  11.566  18.637  0.00  0.00    +0.000 NA
ATOM     24  C   UNL     1      -2.183  11.055  18.203  0.00  0.00    +0.000 A 
ATOM     25  N   UNL     1      -1.133  11.112  19.145  0.00  0.00    +0.000 N 
ATOM     26  C   UNL     1      -2.053  10.497  16.938  0.00  0.00    +0.000 A 
ATOM     27  H   UNL     1      -1.476  11.475  20.023  0.00  0.00    +0.000 HD
ENDBRANCH  16  25
ENDBRANCH   1  16
TORSDOF 3
ENDMDL
MODEL 4
REMARK VINA RESULT:      -8.2      0.935      1.813
REMARK  Name = 
REMARK  5 active torsions:
REMARK  status: ('A' for Active; 'I' for Inactive)
REMARK    1  A    between atoms: C_1  and  C_2
REMARK    2  A    between atoms: C_4  and  C_5
REMARK    3  A    between atoms: N_8  and  C_9
REMARK    4  A    between atoms: C_9  and  N_11
REMARK    5  A    between atoms: N_14  and  C_15
REMARK                            x       y       z     vdW  Elec       q    Type
REMARK                         _______ _______ _______ _____ _____    ______ ____
ROOT
ATOM      1  N   UNL     1       0.939   9.799  19.295  0.00  0.00    +0.000 N 
ATOM      2  C   UNL     1       1.365   9.165  18.020  0.00  0.00    +0.000 C 
ATOM      3  C   UNL     1       2.529   8.171  18.146  0.00  0.00    +0.000 C 
ATOM      4  N   UNL     1       2.218   7.192  19.189  0.00  0.00    +0.000 N 
ATOM      5  C   UNL     1       1.973   7.810  20.504  0.00  0.00    +0.000 C 
ATOM      6  C   UNL     1       0.810   8.828  20.416  0.00  0.00    +0.000 C 
ENDROOT
BRANCH   4   7
ATOM      7  C   UNL     1       2.535   5.851  19.064  0.00  0.00    +0.000 A 
ATOM      8  C   UNL     1       3.499   5.399  18.141  0.00  0.00    +0.000 A 
ATOM      9  C   UNL     1       3.775   4.034  17.964  0.00  0.00    +0.000 A 
ATOM     10  C   UNL     1       3.086   3.094  18.714  0.00  0.00    +0.000 A 
ATOM     11  F   UNL     1       3.343   1.792  18.530  0.00  0.00    +0.000 F 
ATOM     12  C   UNL     1       2.137   3.499  19.637  0.00  0.00    +0.000 A 
ATOM     13  F   UNL     1       1.456   2.584  20.343  0.00  0.00    +0.000 F 
ATOM     14  C   UNL     1       1.867   4.854  19.811  0.00  0.00    +0.000 A 
ATOM     15  F   UNL     1       0.892   5.199  20.672  0.00  0.00    +0.000 F 
ENDBRANCH   4   7
BRANCH   1  16
ATOM     16  C   UNL     1       0.159  10.992  19.247  0.00  0.00    +0.000 C 
ATOM     17  S   UNL     1      -0.043  11.990  20.599  0.00  0.00    +0.000 S 
BRANCH  16  25
ATOM     18  C   UNL     1      -5.234  11.959  19.189  0.00  0.00    +0.000 C 
ATOM     19  C   UNL     1      -4.169  11.588  18.202  0.00  0.00    +0.000 A 
ATOM     20  C   UNL     1      -4.478  11.137  16.925  0.00  0.00    +0.000 A 
ATOM     21  C   UNL     1      -3.437  10.796  16.065  0.00  0.00    +0.000 A 
ATOM     22  C   UNL     1      -3.743  10.331  14.671  0.00  0.00    +0.000 C 
ATOM     23  N   UNL     1      -2.128  10.848  16.431  0.00  0.00    +0.000 NA
ATOM     24  C   UNL     1      -1.838  11.237  17.694  0.00  0.00    +0.000 A 
ATOM     25  N   UNL     1      -0.464  11.196  18.021  0.00  0.00    +0.000 N 
ATOM     26  C   UNL     1      -2.825  11.666  18.571  0.00  0.00    +0.000 A 
ATOM     27  H   UNL     1       0.076  10.939  17.207  0.00  0.00    +0.000 HD
ENDBRANCH  16  25
ENDBRANCH   1  16
TORSDOF 3
ENDMDL
MODEL 5
REMARK VINA RESULT:      -8.1      1.426      2.182
REMARK  Name = 
REMARK  5 active torsions:
REMARK  status: ('A' for Active; 'I' for Inactive)
REMARK    1  A    between atoms: C_1  and  C_2
REMARK    2  A    between atoms: C_4  and  C_5
REMARK    3  A    between atoms: N_8  and  C_9
REMARK    4  A    between atoms: C_9  and  N_11
REMARK    5  A    between atoms: N_14  and  C_15
REMARK                            x       y       z     vdW  Elec       q    Type
REMARK                         _______ _______ _______ _____ _____    ______ ____
ROOT
ATOM      1  N   UNL     1       1.104   9.487  19.171  0.00  0.00    +0.000 N 
ATOM      2  C   UNL     1       1.574   8.897  17.891  0.00  0.00    +0.000 C 
ATOM      3  C   UNL     1       2.783   7.956  18.016  0.00  0.00    +0.000 C 
ATOM      4  N   UNL     1       2.505   6.946  19.039  0.00  0.00    +0.000 N 
ATOM      5  C   UNL     1       2.215   7.529  20.360  0.00  0.00    +0.000 C 
ATOM      6  C   UNL     1       1.007   8.493  20.274  0.00  0.00    +0.000 C 
ENDROOT
BRANCH   4   7
ATOM      7  C   UNL     1       2.887   5.623  18.896  0.00  0.00    +0.000 A 
ATOM      8  C   UNL     1       4.009   5.098  19.567  0.00  0.00    +0.000 A 
ATOM      9  C   UNL     1       4.438   3.776  19.373  0.00  0.00    +0.000 A 
ATOM     10  C   UNL     1       3.746   2.954  18.497  0.00  0.00    +0.000 A 
ATOM     11  F   UNL     1       4.170   1.698  18.304  0.00  0.00    +0.000 F 
ATOM     12  C   UNL     1       2.635   3.431  17.824  0.00  0.00    +0.000 A 
ATOM     13  F   UNL     1       1.983   2.639  16.961  0.00  0.00    +0.000 F 
ATOM     14  C   UNL     1       2.211   4.743  18.022  0.00  0.00    +0.000 A 
ATOM     15  F   UNL     1       1.164   5.184  17.299  0.00  0.00    +0.000 F 
ENDBRANCH   4   7
BRANCH   1  16
ATOM     16  C   UNL     1       0.269  10.643  19.133  0.00  0.00    +0.000 C 
ATOM     17  S   UNL     1      -0.011  11.597  20.503  0.00  0.00    +0.000 S 
BRANCH  16  25
ATOM     18  C   UNL     1      -5.042  11.986  19.016  0.00  0.00    +0.000 C 
ATOM     19  C   UNL     1      -4.004  11.507  18.048  0.00  0.00    +0.000 A 
ATOM     20  C   UNL     1      -4.341  11.035  16.785  0.00  0.00    +0.000 A 
ATOM     21  C   UNL     1      -3.325  10.592  15.942  0.00  0.00    +0.000 A 
ATOM     22  C   UNL     1      -3.659  10.101  14.564  0.00  0.00    +0.000 C 
ATOM     23  N   UNL     1      -2.016  10.564  16.313  0.00  0.00    +0.000 NA
ATOM     24  C   UNL     1      -1.702  10.975  17.563  0.00  0.00    +0.000 A 
ATOM     25  N   UNL     1      -0.336  10.849  17.897  0.00  0.00    +0.000 N 
ATOM     26  C   UNL     1      -2.658  11.503  18.420  0.00  0.00    +0.000 A 
ATOM     27  H   UNL     1       0.187  10.526  17.096  0.00  0.00    +0.000 HD
ENDBRANCH  16  25
ENDBRANCH   1  16
TORSDOF 3
ENDMDL
MODEL 6
REMARK VINA RESULT:      -8.0      1.410      2.391
REMARK  Name = 
REMARK  5 active torsions:
REMARK  status: ('A' for Active; 'I' for Inactive)
REMARK    1  A    between atoms: C_1  and  C_2
REMARK    2  A    between atoms: C_4  and  C_5
REMARK    3  A    between atoms: N_8  and  C_9
REMARK    4  A    between atoms: C_9  and  N_11
REMARK    5  A    between atoms: N_14  and  C_15
REMARK                            x       y       z     vdW  Elec       q    Type
REMARK                         _______ _______ _______ _____ _____    ______ ____
ROOT
ATOM      1  N   UNL     1       0.888  10.081  19.378  0.00  0.00    +0.000 N 
ATOM      2  C   UNL     1       1.293   9.319  18.169  0.00  0.00    +0.000 C 
ATOM      3  C   UNL     1       2.382   8.260  18.404  0.00  0.00    +0.000 C 
ATOM      4  N   UNL     1       1.981   7.393  19.514  0.00  0.00    +0.000 N 
ATOM      5  C   UNL     1       1.753   8.131  20.769  0.00  0.00    +0.000 C 
ATOM      6  C   UNL     1       0.668   9.217  20.569  0.00  0.00    +0.000 C 
ENDROOT
BRANCH   4   7
ATOM      7  C   UNL     1       2.204   6.027  19.505  0.00  0.00    +0.000 A 
ATOM      8  C   UNL     1       1.761   5.196  20.552  0.00  0.00    +0.000 A 
ATOM      9  C   UNL     1       2.045   3.821  20.580  0.00  0.00    +0.000 A 
ATOM     10  C   UNL     1       2.781   3.254  19.551  0.00  0.00    +0.000 A 
ATOM     11  F   UNL     1       3.061   1.945  19.589  0.00  0.00    +0.000 F 
ATOM     12  C   UNL     1       3.227   4.037  18.500  0.00  0.00    +0.000 A 
ATOM     13  F   UNL     1       3.959   3.487  17.519  0.00  0.00    +0.000 F 
ATOM     14  C   UNL     1       2.942   5.400  18.476  0.00  0.00    +0.000 A 
ATOM     15  F   UNL     1       3.450   6.134  17.468  0.00  0.00    +0.000 F 
ENDBRANCH   4   7
BRANCH   1  16
ATOM     16  C   UNL     1       0.195  11.318  19.215  0.00  0.00    +0.000 C 
ATOM     17  S   UNL     1       0.116  12.475  20.448  0.00  0.00    +0.000 S 
BRANCH  16  25
ATOM     18  C   UNL     1      -5.246  11.957  19.202  0.00  0.00    +0.000 C 
ATOM     19  C   UNL     1      -4.175  11.607  18.216  0.00  0.00    +0.000 A 
ATOM     20  C   UNL     1      -4.473  11.081  16.964  0.00  0.00    +0.000 A 
ATOM     21  C   UNL     1      -3.425  10.766  16.103  0.00  0.00    +0.000 A 
ATOM     22  C   UNL     1      -3.721  10.221  14.736  0.00  0.00    +0.000 C 
ATOM     23  N   UNL     1      -2.117  10.912  16.446  0.00  0.00    +0.000 NA
ATOM     24  C   UNL     1      -1.833  11.374  17.685  0.00  0.00    +0.000 A 
ATOM     25  N   UNL     1      -0.456  11.430  17.991  0.00  0.00    +0.000 N 
ATOM     26  C   UNL     1      -2.832  11.782  18.559  0.00  0.00    +0.000 A 
ATOM     27  H   UNL     1       0.088  11.169  17.181  0.00  0.00    +0.000 HD
ENDBRANCH  16  25
ENDBRANCH   1  16
TORSDOF 3
ENDMDL
MODEL 7
REMARK VINA RESULT:      -7.9      3.871      8.747
REMARK  Name = 
REMARK  5 active torsions:
REMARK  status: ('A' for Active; 'I' for Inactive)
REMARK    1  A    between atoms: C_1  and  C_2
REMARK    2  A    between atoms: C_4  and  C_5
REMARK    3  A    between atoms: N_8  and  C_9
REMARK    4  A    between atoms: C_9  and  N_11
REMARK    5  A    between atoms: N_14  and  C_15
REMARK                            x       y       z     vdW  Elec       q    Type
REMARK                         _______ _______ _______ _____ _____    ______ ____
ROOT
ATOM      1  N   UNL     1       2.365   5.890  19.485  0.00  0.00    +0.000 N 
ATOM      2  C   UNL     1       1.584   6.440  20.623  0.00  0.00    +0.000 C 
ATOM      3  C   UNL     1       1.717   7.957  20.829  0.00  0.00    +0.000 C 
ATOM      4  N   UNL     1       1.438   8.642  19.566  0.00  0.00    +0.000 N 
ATOM      5  C   UNL     1       2.337   8.227  18.474  0.00  0.00    +0.000 C 
ATOM      6  C   UNL     1       2.239   6.700  18.243  0.00  0.00    +0.000 C 
ENDROOT
BRANCH   4   7
ATOM      7  C   UNL     1       0.722   9.825  19.508  0.00  0.00    +0.000 A 
ATOM      8  C   UNL     1       0.750  10.762  20.560  0.00  0.00    +0.000 A 
ATOM      9  C   UNL     1      -0.027  11.931  20.535  0.00  0.00    +0.000 A 
ATOM     10  C   UNL     1      -0.849  12.182  19.447  0.00  0.00    +0.000 A 
ATOM     11  F   UNL     1      -1.599  13.291  19.434  0.00  0.00    +0.000 F 
ATOM     12  C   UNL     1      -0.898  11.289  18.390  0.00  0.00    +0.000 A 
ATOM     13  F   UNL     1      -1.712  11.526  17.351  0.00  0.00    +0.000 F 
ATOM     14  C   UNL     1      -0.124  10.131  18.419  0.00  0.00    +0.000 A 
ATOM     15  F   UNL     1      -0.251   9.261  17.399  0.00  0.00    +0.000 F 
ENDBRANCH   4   7
BRANCH   1  16
ATOM     16  C   UNL     1       2.626   4.488  19.439  0.00  0.00    +0.000 C 
ATOM     17  S   UNL     1       2.153   3.443  20.684  0.00  0.00    +0.000 S 
BRANCH  16  25
ATOM     18  C   UNL     1       7.968   5.693  19.282  0.00  0.00    +0.000 C 
ATOM     19  C   UNL     1       6.911   5.239  18.322  0.00  0.00    +0.000 A 
ATOM     20  C   UNL     1       7.108   5.267  16.947  0.00  0.00    +0.000 A 
ATOM     21  C   UNL     1       6.077   4.844  16.113  0.00  0.00    +0.000 A 
ATOM     22  C   UNL     1       6.273   4.840  14.625  0.00  0.00    +0.000 C 
ATOM     23  N   UNL     1       4.866   4.439  16.583  0.00  0.00    +0.000 NA
ATOM     24  C   UNL     1       4.663   4.464  17.920  0.00  0.00    +0.000 A 
ATOM     25  N   UNL     1       3.360   4.098  18.324  0.00  0.00    +0.000 N 
ATOM     26  C   UNL     1       5.678   4.799  18.806  0.00  0.00    +0.000 A 
ATOM     27  H   UNL     1       2.818   3.812  17.522  0.00  0.00    +0.000 HD
ENDBRANCH  16  25
ENDBRANCH   1  16
TORSDOF 3
ENDMDL
MODEL 8
REMARK VINA RESULT:      -7.8      4.015      8.704
REMARK  Name = 
REMARK  5 active torsions:
REMARK  status: ('A' for Active; 'I' for Inactive)
REMARK    1  A    between atoms: C_1  and  C_2
REMARK    2  A    between atoms: C_4  and  C_5
REMARK    3  A    between atoms: N_8  and  C_9
REMARK    4  A    between atoms: C_9  and  N_11
REMARK    5  A    between atoms: N_14  and  C_15
REMARK                            x       y       z     vdW  Elec       q    Type
REMARK                         _______ _______ _______ _____ _____    ______ ____
ROOT
ATOM      1  N   UNL     1       2.465   5.320  19.333  0.00  0.00    +0.000 N 
ATOM      2  C   UNL     1       1.747   5.899  20.497  0.00  0.00    +0.000 C 
ATOM      3  C   UNL     1       1.979   7.402  20.721  0.00  0.00    +0.000 C 
ATOM      4  N   UNL     1       1.715   8.123  19.475  0.00  0.00    +0.000 N 
ATOM      5  C   UNL     1       2.560   7.670  18.357  0.00  0.00    +0.000 C 
ATOM      6  C   UNL     1       2.362   6.156  18.106  0.00  0.00    +0.000 C 
ENDROOT
BRANCH   4   7
ATOM      7  C   UNL     1       1.073   9.349  19.451  0.00  0.00    +0.000 A 
ATOM      8  C   UNL     1       1.469  10.376  18.572  0.00  0.00    +0.000 A 
ATOM      9  C   UNL     1       0.865  11.644  18.591  0.00  0.00    +0.000 A 
ATOM     10  C   UNL     1      -0.152  11.903  19.497  0.00  0.00    +0.000 A 
ATOM     11  F   UNL     1      -0.714  13.119  19.521  0.00  0.00    +0.000 F 
ATOM     12  C   UNL     1      -0.574  10.917  20.372  0.00  0.00    +0.000 A 
ATOM     13  F   UNL     1      -1.542  11.181  21.262  0.00  0.00    +0.000 F 
ATOM     14  C   UNL     1       0.027   9.660  20.348  0.00  0.00    +0.000 A 
ATOM     15  F   UNL     1      -0.371   8.752  21.259  0.00  0.00    +0.000 F 
ENDBRANCH   4   7
BRANCH   1  16
ATOM     16  C   UNL     1       2.636   3.905  19.261  0.00  0.00    +0.000 C 
ATOM     17  S   UNL     1       1.999   2.861  20.430  0.00  0.00    +0.000 S 
BRANCH  16  25
ATOM     18  C   UNL     1       7.833   5.629  19.069  0.00  0.00    +0.000 C 
ATOM     19  C   UNL     1       6.848   4.989  18.139  0.00  0.00    +0.000 A 
ATOM     20  C   UNL     1       7.072   4.919  16.769  0.00  0.00    +0.000 A 
ATOM     21  C   UNL     1       6.106   4.323  15.962  0.00  0.00    +0.000 A 
ATOM     22  C   UNL     1       6.334   4.212  14.483  0.00  0.00    +0.000 C 
ATOM     23  N   UNL     1       4.932   3.839  16.449  0.00  0.00    +0.000 NA
ATOM     24  C   UNL     1       4.698   3.958  17.777  0.00  0.00    +0.000 A 
ATOM     25  N   UNL     1       3.430   3.498  18.194  0.00  0.00    +0.000 N 
ATOM     26  C   UNL     1       5.655   4.469  18.643  0.00  0.00    +0.000 A 
ATOM     27  H   UNL     1       2.937   3.090  17.413  0.00  0.00    +0.000 HD
ENDBRANCH  16  25
ENDBRANCH   1  16
TORSDOF 3
ENDMDL
MODEL 9
REMARK VINA RESULT:      -7.8      4.606      8.964
REMARK  Name = 
REMARK  5 active torsions:
REMARK  status: ('A' for Active; 'I' for Inactive)
REMARK    1  A    between atoms: C_1  and  C_2
REMARK    2  A    between atoms: C_4  and  C_5
REMARK    3  A    between atoms: N_8  and  C_9
REMARK    4  A    between atoms: C_9  and  N_11
REMARK    5  A    between atoms: N_14  and  C_15
REMARK                            x       y       z     vdW  Elec       q    Type
REMARK                         _______ _______ _______ _____ _____    ______ ____
ROOT
ATOM      1  N   UNL     1       4.906   5.428  17.725  0.00  0.00    +0.000 N 
ATOM      2  C   UNL     1       4.831   6.878  17.407  0.00  0.00    +0.000 C 
ATOM      3  C   UNL     1       3.414   7.471  17.413  0.00  0.00    +0.000 C 
ATOM      4  N   UNL     1       2.755   7.133  18.676  0.00  0.00    +0.000 N 
ATOM      5  C   UNL     1       2.665   5.681  18.909  0.00  0.00    +0.000 C 
ATOM      6  C   UNL     1       4.076   5.043  18.899  0.00  0.00    +0.000 C 
ENDROOT
BRANCH   4   7
ATOM      7  C   UNL     1       1.942   8.029  19.350  0.00  0.00    +0.000 A 
ATOM      8  C   UNL     1       1.604   7.848  20.706  0.00  0.00    +0.000 A 
ATOM      9  C   UNL     1       0.726   8.716  21.374  0.00  0.00    +0.000 A 
ATOM     10  C   UNL     1       0.171   9.787  20.689  0.00  0.00    +0.000 A 
ATOM     11  F   UNL     1      -0.678  10.604  21.328  0.00  0.00    +0.000 F 
ATOM     12  C   UNL     1       0.485  10.002  19.359  0.00  0.00    +0.000 A 
ATOM     13  F   UNL     1      -0.073  11.025  18.696  0.00  0.00    +0.000 F 
ATOM     14  C   UNL     1       1.358   9.139  18.700  0.00  0.00    +0.000 A 
ATOM     15  F   UNL     1       1.585   9.349  17.390  0.00  0.00    +0.000 F 
ENDBRANCH   4   7
BRANCH   1  16
ATOM     16  C   UNL     1       6.084   4.704  17.374  0.00  0.00    +0.000 C 
ATOM     17  S   UNL     1       7.550   4.918  18.191  0.00  0.00    +0.000 S 
BRANCH  16  25
ATOM     18  C   UNL     1       8.756   5.971  12.762  0.00  0.00    +0.000 C 
ATOM     19  C   UNL     1       7.630   5.072  13.173  0.00  0.00    +0.000 A 
ATOM     20  C   UNL     1       6.792   4.473  12.240  0.00  0.00    +0.000 A 
ATOM     21  C   UNL     1       5.756   3.661  12.694  0.00  0.00    +0.000 A 
ATOM     22  C   UNL     1       4.853   2.981  11.707  0.00  0.00    +0.000 C 
ATOM     23  N   UNL     1       5.502   3.457  14.015  0.00  0.00    +0.000 NA
ATOM     24  C   UNL     1       6.288   4.086  14.918  0.00  0.00    +0.000 A 
ATOM     25  N   UNL     1       5.917   3.882  16.265  0.00  0.00    +0.000 N 
ATOM     26  C   UNL     1       7.386   4.842  14.528  0.00  0.00    +0.000 A 
ATOM     27  H   UNL     1       5.147   3.230  16.316  0.00  0.00    +0.000 HD
ENDBRANCH  16  25
ENDBRANCH   1  16
TORSDOF 3
ENDMDL
