MODEL 1
REMARK VINA RESULT:      -8.7      0.000      0.000
REMARK  Name = 
REMARK  8 active torsions:
REMARK  status: ('A' for Active; 'I' for Inactive)
REMARK    1  A    between atoms: C_2  and  C_3
REMARK    2  A    between atoms: C_8  and  N_9
REMARK    3  A    between atoms: N_9  and  C_10
REMARK    4  A    between atoms: N_9  and  C_20
REMARK    5  A    between atoms: C_10  and  C_11
REMARK    6  A    between atoms: C_24  and  O_25
REMARK    7  A    between atoms: O_25  and  C_26
REMARK    8  A    between atoms: C_26  and  C_27
REMARK                            x       y       z     vdW  Elec       q    Type
REMARK                         _______ _______ _______ _____ _____    ______ ____
ROOT
ATOM      1  N   UNL     1       3.306   5.991  18.784  0.00  0.00    +0.000 N 
ENDROOT
BRANCH   1   7
ATOM      2  C   UNL     1       1.843   2.985  20.197  0.00  0.00    +0.000 A 
ATOM      3  N   UNL     1       1.838   2.060  19.226  0.00  0.00    +0.000 NA
ATOM      4  C   UNL     1       2.269   2.506  18.033  0.00  0.00    +0.000 A 
ATOM      5  C   UNL     1       2.729   3.785  17.800  0.00  0.00    +0.000 A 
ATOM      6  F   UNL     1       3.096   4.133  16.561  0.00  0.00    +0.000 F 
ATOM      7  C   UNL     1       2.776   4.669  18.888  0.00  0.00    +0.000 A 
ATOM      8  N   UNL     1       2.271   4.248  20.065  0.00  0.00    +0.000 NA
BRANCH   2  10
ATOM      9  N   UNL     1       1.002   2.261  22.556  0.00  0.00    +0.000 NA
ATOM     10  C   UNL     1       1.384   2.594  21.507  0.00  0.00    +0.000 C 
ENDBRANCH   2  10
ENDBRANCH   1   7
BRANCH   1  11
ATOM     11  C   UNL     1       2.550   7.217  18.853  0.00  0.00    +0.000 A 
ATOM     12  C   UNL     1       2.472   8.113  17.772  0.00  0.00    +0.000 A 
ATOM     13  C   UNL     1       1.818   9.345  17.846  0.00  0.00    +0.000 A 
ATOM     14  C   UNL     1       1.158   9.702  19.004  0.00  0.00    +0.000 A 
ATOM     15  C   UNL     1       1.116   8.806  20.067  0.00  0.00    +0.000 A 
ATOM     16  C   UNL     1       1.841   7.601  20.009  0.00  0.00    +0.000 A 
BRANCH  15  17
ATOM     17  O   UNL     1       0.386   9.022  21.216  0.00  0.00    +0.000 OA
BRANCH  17  18
ATOM     18  C   UNL     1       0.667  10.277  21.845  0.00  0.00    +0.000 C 
BRANCH  18  19
ATOM     19  C   UNL     1      -0.601  11.079  21.947  0.00  0.00    +0.000 A 
ATOM     20  C   UNL     1      -1.097  11.766  20.833  0.00  0.00    +0.000 A 
ATOM     21  C   UNL     1      -2.278  12.502  20.928  0.00  0.00    +0.000 A 
ATOM     22  C   UNL     1      -2.970  12.557  22.137  0.00  0.00    +0.000 A 
ATOM     23  C   UNL     1      -2.484  11.876  23.253  0.00  0.00    +0.000 A 
ATOM     24  C   UNL     1      -1.304  11.140  23.159  0.00  0.00    +0.000 A 
ENDBRANCH  18  19
ENDBRANCH  17  18
ENDBRANCH  15  17
ENDBRANCH   1  11
BRANCH   1  25
ATOM     25  C   UNL     1       4.711   6.123  19.256  0.00  0.00    +0.000 C 
BRANCH  25  26
ATOM     26  C   UNL     1       5.789   5.912  18.200  0.00  0.00    +0.000 A 
ATOM     27  C   UNL     1       6.929   5.101  18.414  0.00  0.00    +0.000 A 
ATOM     28  C   UNL     1       7.581   4.499  17.333  0.00  0.00    +0.000 A 
ATOM     29  C   UNL     1       7.082   4.759  16.076  0.00  0.00    +0.000 A 
ATOM     30  C   UNL     1       6.117   5.717  15.863  0.00  0.00    +0.000 A 
ATOM     31  C   UNL     1       5.485   6.353  16.899  0.00  0.00    +0.000 A 
ATOM     32  O   UNL     1       5.720   5.766  14.559  0.00  0.00    +0.000 OA
ATOM     33  C   UNL     1       6.195   4.469  14.151  0.00  0.00    +0.000 C 
ATOM     34  O   UNL     1       7.328   4.042  14.942  0.00  0.00    +0.000 OA
ENDBRANCH  25  26
ENDBRANCH   1  25
TORSDOF 8
ENDMDL
MODEL 2
REMARK VINA RESULT:      -8.6      1.626      8.274
REMARK  Name = 
REMARK  8 active torsions:
REMARK  status: ('A' for Active; 'I' for Inactive)
REMARK    1  A    between atoms: C_2  and  C_3
REMARK    2  A    between atoms: C_8  and  N_9
REMARK    3  A    between atoms: N_9  and  C_10
REMARK    4  A    between atoms: N_9  and  C_20
REMARK    5  A    between atoms: C_10  and  C_11
REMARK    6  A    between atoms: C_24  and  O_25
REMARK    7  A    between atoms: O_25  and  C_26
REMARK    8  A    between atoms: C_26  and  C_27
REMARK                            x       y       z     vdW  Elec       q    Type
REMARK                         _______ _______ _______ _____ _____    ______ ____
ROOT
ATOM      1  N   UNL     1       3.427   5.429  18.473  0.00  0.00    +0.000 N 
ENDROOT
BRANCH   1   7
ATOM      2  C   UNL     1       1.712   2.756  20.232  0.00  0.00    +0.000 A 
ATOM      3  N   UNL     1       1.544   1.757  19.354  0.00  0.00    +0.000 NA
ATOM      4  C   UNL     1       1.953   2.041  18.104  0.00  0.00    +0.000 A 
ATOM      5  C   UNL     1       2.544   3.230  17.731  0.00  0.00    +0.000 A 
ATOM      6  F   UNL     1       2.875   3.420  16.448  0.00  0.00    +0.000 F 
ATOM      7  C   UNL     1       2.755   4.194  18.726  0.00  0.00    +0.000 A 
ATOM      8  N   UNL     1       2.275   3.942  19.960  0.00  0.00    +0.000 NA
BRANCH   2  10
ATOM      9  N   UNL     1       0.963   2.351  22.695  0.00  0.00    +0.000 NA
ATOM     10  C   UNL     1       1.289   2.541  21.593  0.00  0.00    +0.000 C 
ENDBRANCH   2  10
ENDBRANCH   1   7
BRANCH   1  11
ATOM     11  C   UNL     1       4.845   5.598  18.272  0.00  0.00    +0.000 A 
ATOM     12  C   UNL     1       5.767   5.531  19.332  0.00  0.00    +0.000 A 
ATOM     13  C   UNL     1       7.132   5.778  19.175  0.00  0.00    +0.000 A 
ATOM     14  C   UNL     1       7.639   6.046  17.919  0.00  0.00    +0.000 A 
ATOM     15  C   UNL     1       6.786   6.022  16.821  0.00  0.00    +0.000 A 
ATOM     16  C   UNL     1       5.402   5.846  17.002  0.00  0.00    +0.000 A 
BRANCH  15  17
ATOM     17  O   UNL     1       7.217   6.160  15.520  0.00  0.00    +0.000 OA
BRANCH  17  18
ATOM     18  C   UNL     1       7.839   4.982  14.995  0.00  0.00    +0.000 C 
BRANCH  18  19
ATOM     19  C   UNL     1       6.997   4.427  13.880  0.00  0.00    +0.000 A 
ATOM     20  C   UNL     1       5.689   3.993  14.127  0.00  0.00    +0.000 A 
ATOM     21  C   UNL     1       4.908   3.487  13.090  0.00  0.00    +0.000 A 
ATOM     22  C   UNL     1       5.427   3.409  11.798  0.00  0.00    +0.000 A 
ATOM     23  C   UNL     1       6.728   3.839  11.541  0.00  0.00    +0.000 A 
ATOM     24  C   UNL     1       7.511   4.346  12.577  0.00  0.00    +0.000 A 
ENDBRANCH  18  19
ENDBRANCH  17  18
ENDBRANCH  15  17
ENDBRANCH   1  11
BRANCH   1  25
ATOM     25  C   UNL     1       2.594   6.443  17.772  0.00  0.00    +0.000 C 
BRANCH  25  26
ATOM     26  C   UNL     1       2.330   7.732  18.540  0.00  0.00    +0.000 A 
ATOM     27  C   UNL     1       2.040   8.963  17.904  0.00  0.00    +0.000 A 
ATOM     28  C   UNL     1       1.297   9.943  18.569  0.00  0.00    +0.000 A 
ATOM     29  C   UNL     1       0.900   9.664  19.857  0.00  0.00    +0.000 A 
ATOM     30  C   UNL     1       1.371   8.565  20.539  0.00  0.00    +0.000 A 
ATOM     31  C   UNL     1       2.133   7.604  19.927  0.00  0.00    +0.000 A 
ATOM     32  O   UNL     1       0.802   8.441  21.772  0.00  0.00    +0.000 OA
ATOM     33  C   UNL     1      -0.348   9.281  21.552  0.00  0.00    +0.000 C 
ATOM     34  O   UNL     1      -0.086  10.297  20.557  0.00  0.00    +0.000 OA
ENDBRANCH  25  26
ENDBRANCH   1  25
TORSDOF 8
ENDMDL
MODEL 3
REMARK VINA RESULT:      -8.5      2.981      7.149
REMARK  Name = 
REMARK  8 active torsions:
REMARK  status: ('A' for Active; 'I' for Inactive)
REMARK    1  A    between atoms: C_2  and  C_3
REMARK    2  A    between atoms: C_8  and  N_9
REMARK    3  A    between atoms: N_9  and  C_10
REMARK    4  A    between atoms: N_9  and  C_20
REMARK    5  A    between atoms: C_10  and  C_11
REMARK    6  A    between atoms: C_24  and  O_25
REMARK    7  A    between atoms: O_25  and  C_26
REMARK    8  A    between atoms: C_26  and  C_27
REMARK                            x       y       z     vdW  Elec       q    Type
REMARK                         _______ _______ _______ _____ _____    ______ ____
ROOT
ATOM      1  N   UNL     1       3.460   5.551  18.055  0.00  0.00    +0.000 N 
ENDROOT
BRANCH   1   7
ATOM      2  C   UNL     1       1.905   2.906  19.995  0.00  0.00    +0.000 A 
ATOM      3  N   UNL     1       1.705   1.876  19.160  0.00  0.00    +0.000 NA
ATOM      4  C   UNL     1       2.035   2.127  17.880  0.00  0.00    +0.000 A 
ATOM      5  C   UNL     1       2.578   3.314  17.435  0.00  0.00    +0.000 A 
ATOM      6  F   UNL     1       2.830   3.468  16.130  0.00  0.00    +0.000 F 
ATOM      7  C   UNL     1       2.829   4.313  18.386  0.00  0.00    +0.000 A 
ATOM      8  N   UNL     1       2.427   4.093  19.654  0.00  0.00    +0.000 NA
BRANCH   2  10
ATOM      9  N   UNL     1       1.313   2.594  22.514  0.00  0.00    +0.000 NA
ATOM     10  C   UNL     1       1.566   2.727  21.385  0.00  0.00    +0.000 C 
ENDBRANCH   2  10
ENDBRANCH   1   7
BRANCH   1  11
ATOM     11  C   UNL     1       4.828   5.720  17.632  0.00  0.00    +0.000 A 
ATOM     12  C   UNL     1       5.580   4.665  17.082  0.00  0.00    +0.000 A 
ATOM     13  C   UNL     1       6.930   4.783  16.746  0.00  0.00    +0.000 A 
ATOM     14  C   UNL     1       7.570   5.997  16.896  0.00  0.00    +0.000 A 
ATOM     15  C   UNL     1       6.844   7.099  17.337  0.00  0.00    +0.000 A 
ATOM     16  C   UNL     1       5.505   6.951  17.743  0.00  0.00    +0.000 A 
BRANCH  15  17
ATOM     17  O   UNL     1       7.363   8.374  17.406  0.00  0.00    +0.000 OA
BRANCH  17  18
ATOM     18  C   UNL     1       8.449   8.500  18.330  0.00  0.00    +0.000 C 
BRANCH  18  19
ATOM     19  C   UNL     1       8.771   9.956  18.526  0.00  0.00    +0.000 A 
ATOM     20  C   UNL     1       8.354  10.907  17.587  0.00  0.00    +0.000 A 
ATOM     21  C   UNL     1       8.646  12.257  17.776  0.00  0.00    +0.000 A 
ATOM     22  C   UNL     1       9.357  12.666  18.904  0.00  0.00    +0.000 A 
ATOM     23  C   UNL     1       9.775  11.727  19.846  0.00  0.00    +0.000 A 
ATOM     24  C   UNL     1       9.484  10.377  19.659  0.00  0.00    +0.000 A 
ENDBRANCH  18  19
ENDBRANCH  17  18
ENDBRANCH  15  17
ENDBRANCH   1  11
BRANCH   1  25
ATOM     25  C   UNL     1       2.532   6.584  17.521  0.00  0.00    +0.000 C 
BRANCH  25  26
ATOM     26  C   UNL     1       2.295   7.792  18.418  0.00  0.00    +0.000 A 
ATOM     27  C   UNL     1       1.959   9.072  17.915  0.00  0.00    +0.000 A 
ATOM     28  C   UNL     1       1.241   9.975  18.706  0.00  0.00    +0.000 A 
ATOM     29  C   UNL     1       0.914   9.571  19.980  0.00  0.00    +0.000 A 
ATOM     30  C   UNL     1       1.432   8.421  20.532  0.00  0.00    +0.000 A 
ATOM     31  C   UNL     1       2.171   7.533  19.796  0.00  0.00    +0.000 A 
ATOM     32  O   UNL     1       0.929   8.175  21.776  0.00  0.00    +0.000 OA
ATOM     33  C   UNL     1      -0.240   9.014  21.693  0.00  0.00    +0.000 C 
ATOM     34  O   UNL     1      -0.040  10.122  20.786  0.00  0.00    +0.000 OA
ENDBRANCH  25  26
ENDBRANCH   1  25
TORSDOF 8
ENDMDL
MODEL 4
REMARK VINA RESULT:      -8.4      2.944      8.342
REMARK  Name = 
REMARK  8 active torsions:
REMARK  status: ('A' for Active; 'I' for Inactive)
REMARK    1  A    between atoms: C_2  and  C_3
REMARK    2  A    between atoms: C_8  and  N_9
REMARK    3  A    between atoms: N_9  and  C_10
REMARK    4  A    between atoms: N_9  and  C_20
REMARK    5  A    between atoms: C_10  and  C_11
REMARK    6  A    between atoms: C_24  and  O_25
REMARK    7  A    between atoms: O_25  and  C_26
REMARK    8  A    between atoms: C_26  and  C_27
REMARK                            x       y       z     vdW  Elec       q    Type
REMARK                         _______ _______ _______ _____ _____    ______ ____
ROOT
ATOM      1  N   UNL     1       2.493   6.726  18.298  0.00  0.00    +0.000 N 
ENDROOT
BRANCH   1   7
ATOM      2  C   UNL     1       1.163   9.834  19.621  0.00  0.00    +0.000 A 
ATOM      3  N   UNL     1       0.953   9.642  20.931  0.00  0.00    +0.000 NA
ATOM      4  C   UNL     1       1.193   8.387  21.354  0.00  0.00    +0.000 A 
ATOM      5  C   UNL     1       1.662   7.371  20.547  0.00  0.00    +0.000 A 
ATOM      6  F   UNL     1       1.827   6.149  21.066  0.00  0.00    +0.000 F 
ATOM      7  C   UNL     1       1.932   7.675  19.205  0.00  0.00    +0.000 A 
ATOM      8  N   UNL     1       1.617   8.909  18.763  0.00  0.00    +0.000 NA
BRANCH   2  10
ATOM      9  N   UNL     1       0.742  12.215  18.648  0.00  0.00    +0.000 NA
ATOM     10  C   UNL     1       0.917  11.148  19.081  0.00  0.00    +0.000 C 
ENDBRANCH   2  10
ENDBRANCH   1   7
BRANCH   1  11
ATOM     11  C   UNL     1       3.877   6.328  18.234  0.00  0.00    +0.000 A 
ATOM     12  C   UNL     1       4.540   5.739  19.326  0.00  0.00    +0.000 A 
ATOM     13  C   UNL     1       5.901   5.426  19.315  0.00  0.00    +0.000 A 
ATOM     14  C   UNL     1       6.644   5.640  18.172  0.00  0.00    +0.000 A 
ATOM     15  C   UNL     1       6.014   6.124  17.030  0.00  0.00    +0.000 A 
ATOM     16  C   UNL     1       4.660   6.506  17.076  0.00  0.00    +0.000 A 
BRANCH  15  17
ATOM     17  O   UNL     1       6.643   6.259  15.812  0.00  0.00    +0.000 OA
BRANCH  17  18
ATOM     18  C   UNL     1       7.392   5.101  15.424  0.00  0.00    +0.000 C 
BRANCH  18  19
ATOM     19  C   UNL     1       6.795   4.516  14.174  0.00  0.00    +0.000 A 
ATOM     20  C   UNL     1       5.502   3.980  14.190  0.00  0.00    +0.000 A 
ATOM     21  C   UNL     1       4.948   3.446  13.027  0.00  0.00    +0.000 A 
ATOM     22  C   UNL     1       5.682   3.443  11.842  0.00  0.00    +0.000 A 
ATOM     23  C   UNL     1       6.970   3.975  11.816  0.00  0.00    +0.000 A 
ATOM     24  C   UNL     1       7.526   4.510  12.977  0.00  0.00    +0.000 A 
ENDBRANCH  18  19
ENDBRANCH  17  18
ENDBRANCH  15  17
ENDBRANCH   1  11
BRANCH   1  25
ATOM     25  C   UNL     1       1.542   5.671  17.855  0.00  0.00    +0.000 C 
BRANCH  25  26
ATOM     26  C   UNL     1       1.975   4.234  18.114  0.00  0.00    +0.000 A 
ATOM     27  C   UNL     1       2.676   3.456  17.161  0.00  0.00    +0.000 A 
ATOM     28  C   UNL     1       3.506   2.411  17.576  0.00  0.00    +0.000 A 
ATOM     29  C   UNL     1       3.577   2.165  18.929  0.00  0.00    +0.000 A 
ATOM     30  C   UNL     1       2.729   2.778  19.823  0.00  0.00    +0.000 A 
ATOM     31  C   UNL     1       1.876   3.781  19.442  0.00  0.00    +0.000 A 
ATOM     32  O   UNL     1       3.014   2.445  21.115  0.00  0.00    +0.000 OA
ATOM     33  C   UNL     1       4.357   1.967  20.911  0.00  0.00    +0.000 C 
ATOM     34  O   UNL     1       4.545   1.451  19.573  0.00  0.00    +0.000 OA
ENDBRANCH  25  26
ENDBRANCH   1  25
TORSDOF 8
ENDMDL
MODEL 5
REMARK VINA RESULT:      -8.3      2.800      5.016
REMARK  Name = 
REMARK  8 active torsions:
REMARK  status: ('A' for Active; 'I' for Inactive)
REMARK    1  A    between atoms: C_2  and  C_3
REMARK    2  A    between atoms: C_8  and  N_9
REMARK    3  A    between atoms: N_9  and  C_10
REMARK    4  A    between atoms: N_9  and  C_20
REMARK    5  A    between atoms: C_10  and  C_11
REMARK    6  A    between atoms: C_24  and  O_25
REMARK    7  A    between atoms: O_25  and  C_26
REMARK    8  A    between atoms: C_26  and  C_27
REMARK                            x       y       z     vdW  Elec       q    Type
REMARK                         _______ _______ _______ _____ _____    ______ ____
ROOT
ATOM      1  N   UNL     1       3.785   6.056  17.857  0.00  0.00    +0.000 N 
ENDROOT
BRANCH   1   7
ATOM      2  C   UNL     1       7.158   7.291  17.332  0.00  0.00    +0.000 A 
ATOM      3  N   UNL     1       7.682   6.577  16.324  0.00  0.00    +0.000 NA
ATOM      4  C   UNL     1       6.888   5.590  15.871  0.00  0.00    +0.000 A 
ATOM      5  C   UNL     1       5.618   5.334  16.345  0.00  0.00    +0.000 A 
ATOM      6  F   UNL     1       4.932   4.298  15.848  0.00  0.00    +0.000 F 
ATOM      7  C   UNL     1       5.113   6.176  17.346  0.00  0.00    +0.000 A 
ATOM      8  N   UNL     1       5.936   7.115  17.855  0.00  0.00    +0.000 NA
BRANCH   2  10
ATOM      9  N   UNL     1       8.602   9.223  18.317  0.00  0.00    +0.000 NA
ATOM     10  C   UNL     1       7.948   8.361  17.887  0.00  0.00    +0.000 C 
ENDBRANCH   2  10
ENDBRANCH   1   7
BRANCH   1  11
ATOM     11  C   UNL     1       2.920   7.144  18.239  0.00  0.00    +0.000 A 
ATOM     12  C   UNL     1       2.620   8.207  17.367  0.00  0.00    +0.000 A 
ATOM     13  C   UNL     1       1.857   9.313  17.744  0.00  0.00    +0.000 A 
ATOM     14  C   UNL     1       1.308   9.367  19.010  0.00  0.00    +0.000 A 
ATOM     15  C   UNL     1       1.489   8.294  19.877  0.00  0.00    +0.000 A 
ATOM     16  C   UNL     1       2.321   7.220  19.513  0.00  0.00    +0.000 A 
BRANCH  15  17
ATOM     17  O   UNL     1       0.885   8.204  21.112  0.00  0.00    +0.000 OA
BRANCH  17  18
ATOM     18  C   UNL     1       1.359   9.175  22.052  0.00  0.00    +0.000 C 
BRANCH  18  19
ATOM     19  C   UNL     1       0.332  10.262  22.209  0.00  0.00    +0.000 A 
ATOM     20  C   UNL     1       0.408  11.426  21.436  0.00  0.00    +0.000 A 
ATOM     21  C   UNL     1      -0.551  12.428  21.577  0.00  0.00    +0.000 A 
ATOM     22  C   UNL     1      -1.592  12.274  22.492  0.00  0.00    +0.000 A 
ATOM     23  C   UNL     1      -1.677  11.118  23.267  0.00  0.00    +0.000 A 
ATOM     24  C   UNL     1      -0.720  10.115  23.126  0.00  0.00    +0.000 A 
ENDBRANCH  18  19
ENDBRANCH  17  18
ENDBRANCH  15  17
ENDBRANCH   1  11
BRANCH   1  25
ATOM     25  C   UNL     1       3.059   4.846  17.385  0.00  0.00    +0.000 C 
BRANCH  25  26
ATOM     26  C   UNL     1       3.011   3.677  18.361  0.00  0.00    +0.000 A 
ATOM     27  C   UNL     1       4.173   3.028  18.845  0.00  0.00    +0.000 A 
ATOM     28  C   UNL     1       4.154   2.376  20.081  0.00  0.00    +0.000 A 
ATOM     29  C   UNL     1       2.963   2.371  20.770  0.00  0.00    +0.000 A 
ATOM     30  C   UNL     1       1.791   2.809  20.196  0.00  0.00    +0.000 A 
ATOM     31  C   UNL     1       1.769   3.420  18.969  0.00  0.00    +0.000 A 
ATOM     32  O   UNL     1       0.746   2.781  21.072  0.00  0.00    +0.000 OA
ATOM     33  C   UNL     1       1.506   2.729  22.295  0.00  0.00    +0.000 C 
ATOM     34  O   UNL     1       2.795   2.105  22.098  0.00  0.00    +0.000 OA
ENDBRANCH  25  26
ENDBRANCH   1  25
TORSDOF 8
ENDMDL
MODEL 6
REMARK VINA RESULT:      -8.2      4.736      9.497
REMARK  Name = 
REMARK  8 active torsions:
REMARK  status: ('A' for Active; 'I' for Inactive)
REMARK    1  A    between atoms: C_2  and  C_3
REMARK    2  A    between atoms: C_8  and  N_9
REMARK    3  A    between atoms: N_9  and  C_10
REMARK    4  A    between atoms: N_9  and  C_20
REMARK    5  A    between atoms: C_10  and  C_11
REMARK    6  A    between atoms: C_24  and  O_25
REMARK    7  A    between atoms: O_25  and  C_26
REMARK    8  A    between atoms: C_26  and  C_27
REMARK                            x       y       z     vdW  Elec       q    Type
REMARK                         _______ _______ _______ _____ _____    ______ ____
ROOT
ATOM      1  N   UNL     1      -0.897  11.578  19.354  0.00  0.00    +0.000 N 
ENDROOT
BRANCH   1   7
ATOM      2  C   UNL     1      -3.110  10.988  16.538  0.00  0.00    +0.000 A 
ATOM      3  N   UNL     1      -4.325  11.428  16.898  0.00  0.00    +0.000 NA
ATOM      4  C   UNL     1      -4.405  11.859  18.169  0.00  0.00    +0.000 A 
ATOM      5  C   UNL     1      -3.339  11.905  19.044  0.00  0.00    +0.000 A 
ATOM      6  F   UNL     1      -3.543  12.315  20.301  0.00  0.00    +0.000 F 
ATOM      7  C   UNL     1      -2.085  11.500  18.565  0.00  0.00    +0.000 A 
ATOM      8  N   UNL     1      -2.019  10.994  17.317  0.00  0.00    +0.000 NA
BRANCH   2  10
ATOM      9  N   UNL     1      -2.818  10.110  14.101  0.00  0.00    +0.000 NA
ATOM     10  C   UNL     1      -2.939  10.495  15.194  0.00  0.00    +0.000 C 
ENDBRANCH   2  10
ENDBRANCH   1   7
BRANCH   1  11
ATOM     11  C   UNL     1      -0.210  10.468  19.965  0.00  0.00    +0.000 A 
ATOM     12  C   UNL     1      -0.379  10.133  21.321  0.00  0.00    +0.000 A 
ATOM     13  C   UNL     1       0.341   9.118  21.954  0.00  0.00    +0.000 A 
ATOM     14  C   UNL     1       1.227   8.350  21.225  0.00  0.00    +0.000 A 
ATOM     15  C   UNL     1       1.355   8.571  19.858  0.00  0.00    +0.000 A 
ATOM     16  C   UNL     1       0.681   9.644  19.247  0.00  0.00    +0.000 A 
BRANCH  15  17
ATOM     17  O   UNL     1       2.121   7.783  19.028  0.00  0.00    +0.000 OA
BRANCH  17  18
ATOM     18  C   UNL     1       2.822   6.740  19.716  0.00  0.00    +0.000 C 
BRANCH  18  19
ATOM     19  C   UNL     1       2.166   5.419  19.422  0.00  0.00    +0.000 A 
ATOM     20  C   UNL     1       1.535   4.698  20.444  0.00  0.00    +0.000 A 
ATOM     21  C   UNL     1       0.920   3.478  20.167  0.00  0.00    +0.000 A 
ATOM     22  C   UNL     1       0.931   2.970  18.869  0.00  0.00    +0.000 A 
ATOM     23  C   UNL     1       1.555   3.680  17.845  0.00  0.00    +0.000 A 
ATOM     24  C   UNL     1       2.171   4.901  18.119  0.00  0.00    +0.000 A 
ENDBRANCH  18  19
ENDBRANCH  17  18
ENDBRANCH  15  17
ENDBRANCH   1  11
BRANCH   1  25
ATOM     25  C   UNL     1      -0.008  12.719  19.006  0.00  0.00    +0.000 C 
BRANCH  25  26
ATOM     26  C   UNL     1       0.949  13.175  20.101  0.00  0.00    +0.000 A 
ATOM     27  C   UNL     1       2.350  13.256  19.915  0.00  0.00    +0.000 A 
ATOM     28  C   UNL     1       3.112  14.145  20.678  0.00  0.00    +0.000 A 
ATOM     29  C   UNL     1       2.445  14.896  21.620  0.00  0.00    +0.000 A 
ATOM     30  C   UNL     1       1.129  14.653  21.942  0.00  0.00    +0.000 A 
ATOM     31  C   UNL     1       0.364  13.761  21.238  0.00  0.00    +0.000 A 
ATOM     32  O   UNL     1       0.646  15.552  22.846  0.00  0.00    +0.000 OA
ATOM     33  C   UNL     1       1.638  16.581  22.663  0.00  0.00    +0.000 C 
ATOM     34  O   UNL     1       2.902  16.032  22.222  0.00  0.00    +0.000 OA
ENDBRANCH  25  26
ENDBRANCH   1  25
TORSDOF 8
ENDMDL
MODEL 7
REMARK VINA RESULT:      -8.2      4.651      9.569
REMARK  Name = 
REMARK  8 active torsions:
REMARK  status: ('A' for Active; 'I' for Inactive)
REMARK    1  A    between atoms: C_2  and  C_3
REMARK    2  A    between atoms: C_8  and  N_9
REMARK    3  A    between atoms: N_9  and  C_10
REMARK    4  A    between atoms: N_9  and  C_20
REMARK    5  A    between atoms: C_10  and  C_11
REMARK    6  A    between atoms: C_24  and  O_25
REMARK    7  A    between atoms: O_25  and  C_26
REMARK    8  A    between atoms: C_26  and  C_27
REMARK                            x       y       z     vdW  Elec       q    Type
REMARK                         _______ _______ _______ _____ _____    ______ ____
ROOT
ATOM      1  N   UNL     1      -0.494  11.777  19.901  0.00  0.00    +0.000 N 
ENDROOT
BRANCH   1   7
ATOM      2  C   UNL     1       1.756  14.511  20.702  0.00  0.00    +0.000 A 
ATOM      3  N   UNL     1       1.620  15.424  19.729  0.00  0.00    +0.000 NA
ATOM      4  C   UNL     1       0.800  15.054  18.730  0.00  0.00    +0.000 A 
ATOM      5  C   UNL     1       0.102  13.865  18.696  0.00  0.00    +0.000 A 
ATOM      6  F   UNL     1      -0.656  13.582  17.630  0.00  0.00    +0.000 F 
ATOM      7  C   UNL     1       0.238  12.998  19.790  0.00  0.00    +0.000 A 
ATOM      8  N   UNL     1       1.120  13.331  20.753  0.00  0.00    +0.000 NA
BRANCH   2  10
ATOM      9  N   UNL     1       3.332  15.049  22.706  0.00  0.00    +0.000 NA
ATOM     10  C   UNL     1       2.628  14.821  21.807  0.00  0.00    +0.000 C 
ENDBRANCH   2  10
ENDBRANCH   1   7
BRANCH   1  11
ATOM     11  C   UNL     1       0.022  10.518  20.377  0.00  0.00    +0.000 A 
ATOM     12  C   UNL     1      -0.265  10.027  21.664  0.00  0.00    +0.000 A 
ATOM     13  C   UNL     1       0.293   8.855  22.177  0.00  0.00    +0.000 A 
ATOM     14  C   UNL     1       1.125   8.088  21.386  0.00  0.00    +0.000 A 
ATOM     15  C   UNL     1       1.359   8.475  20.070  0.00  0.00    +0.000 A 
ATOM     16  C   UNL     1       0.852   9.696  19.589  0.00  0.00    +0.000 A 
BRANCH  15  17
ATOM     17  O   UNL     1       2.077   7.717  19.171  0.00  0.00    +0.000 OA
BRANCH  17  18
ATOM     18  C   UNL     1       2.805   6.645  19.779  0.00  0.00    +0.000 C 
BRANCH  18  19
ATOM     19  C   UNL     1       2.147   5.337  19.440  0.00  0.00    +0.000 A 
ATOM     20  C   UNL     1       1.533   4.572  20.439  0.00  0.00    +0.000 A 
ATOM     21  C   UNL     1       0.916   3.363  20.120  0.00  0.00    +0.000 A 
ATOM     22  C   UNL     1       0.906   2.911  18.801  0.00  0.00    +0.000 A 
ATOM     23  C   UNL     1       1.514   3.666  17.799  0.00  0.00    +0.000 A 
ATOM     24  C   UNL     1       2.131   4.874  18.115  0.00  0.00    +0.000 A 
ENDBRANCH  18  19
ENDBRANCH  17  18
ENDBRANCH  15  17
ENDBRANCH   1  11
BRANCH   1  25
ATOM     25  C   UNL     1      -1.951  11.960  20.140  0.00  0.00    +0.000 C 
BRANCH  25  26
ATOM     26  C   UNL     1      -2.877  11.367  19.085  0.00  0.00    +0.000 A 
ATOM     27  C   UNL     1      -4.137  11.927  18.764  0.00  0.00    +0.000 A 
ATOM     28  C   UNL     1      -4.695  11.728  17.497  0.00  0.00    +0.000 A 
ATOM     29  C   UNL     1      -3.983  10.950  16.613  0.00  0.00    +0.000 A 
ATOM     30  C   UNL     1      -2.875  10.234  17.006  0.00  0.00    +0.000 A 
ATOM     31  C   UNL     1      -2.324  10.378  18.252  0.00  0.00    +0.000 A 
ATOM     32  O   UNL     1      -2.284   9.586  15.961  0.00  0.00    +0.000 OA
ATOM     33  C   UNL     1      -2.866  10.351  14.889  0.00  0.00    +0.000 C 
ATOM     34  O   UNL     1      -4.153  10.898  15.260  0.00  0.00    +0.000 OA
ENDBRANCH  25  26
ENDBRANCH   1  25
TORSDOF 8
ENDMDL
MODEL 8
REMARK VINA RESULT:      -8.2      4.550      9.119
REMARK  Name = 
REMARK  8 active torsions:
REMARK  status: ('A' for Active; 'I' for Inactive)
REMARK    1  A    between atoms: C_2  and  C_3
REMARK    2  A    between atoms: C_8  and  N_9
REMARK    3  A    between atoms: N_9  and  C_10
REMARK    4  A    between atoms: N_9  and  C_20
REMARK    5  A    between atoms: C_10  and  C_11
REMARK    6  A    between atoms: C_24  and  O_25
REMARK    7  A    between atoms: O_25  and  C_26
REMARK    8  A    between atoms: C_26  and  C_27
REMARK                            x       y       z     vdW  Elec       q    Type
REMARK                         _______ _______ _______ _____ _____    ______ ____
ROOT
ATOM      1  N   UNL     1      -0.768  11.345  19.294  0.00  0.00    +0.000 N 
ENDROOT
BRANCH   1   7
ATOM      2  C   UNL     1      -4.320  11.928  18.824  0.00  0.00    +0.000 A 
ATOM      3  N   UNL     1      -4.719  11.120  17.831  0.00  0.00    +0.000 NA
ATOM      4  C   UNL     1      -3.727  10.420  17.252  0.00  0.00    +0.000 A 
ATOM      5  C   UNL     1      -2.408  10.467  17.649  0.00  0.00    +0.000 A 
ATOM      6  F   UNL     1      -1.496   9.758  16.972  0.00  0.00    +0.000 F 
ATOM      7  C   UNL     1      -2.085  11.278  18.746  0.00  0.00    +0.000 A 
ATOM      8  N   UNL     1      -3.063  12.039  19.277  0.00  0.00    +0.000 NA
BRANCH   2  10
ATOM      9  N   UNL     1      -6.115  13.363  20.053  0.00  0.00    +0.000 NA
ATOM     10  C   UNL     1      -5.318  12.725  19.492  0.00  0.00    +0.000 C 
ENDBRANCH   2  10
ENDBRANCH   1   7
BRANCH   1  11
ATOM     11  C   UNL     1      -0.060  10.266  19.937  0.00  0.00    +0.000 A 
ATOM     12  C   UNL     1      -0.199   9.987  21.309  0.00  0.00    +0.000 A 
ATOM     13  C   UNL     1       0.541   9.004  21.968  0.00  0.00    +0.000 A 
ATOM     14  C   UNL     1       1.418   8.213  21.254  0.00  0.00    +0.000 A 
ATOM     15  C   UNL     1       1.517   8.378  19.876  0.00  0.00    +0.000 A 
ATOM     16  C   UNL     1       0.823   9.420  19.235  0.00  0.00    +0.000 A 
BRANCH  15  17
ATOM     17  O   UNL     1       2.273   7.561  19.064  0.00  0.00    +0.000 OA
BRANCH  17  18
ATOM     18  C   UNL     1       2.920   6.495  19.769  0.00  0.00    +0.000 C 
BRANCH  18  19
ATOM     19  C   UNL     1       2.185   5.208  19.513  0.00  0.00    +0.000 A 
ATOM     20  C   UNL     1       2.090   4.692  18.215  0.00  0.00    +0.000 A 
ATOM     21  C   UNL     1       1.416   3.495  17.982  0.00  0.00    +0.000 A 
ATOM     22  C   UNL     1       0.831   2.805  19.043  0.00  0.00    +0.000 A 
ATOM     23  C   UNL     1       0.920   3.310  20.339  0.00  0.00    +0.000 A 
ATOM     24  C   UNL     1       1.595   4.507  20.575  0.00  0.00    +0.000 A 
ENDBRANCH  18  19
ENDBRANCH  17  18
ENDBRANCH  15  17
ENDBRANCH   1  11
BRANCH   1  25
ATOM     25  C   UNL     1       0.119  12.335  18.627  0.00  0.00    +0.000 C 
BRANCH  25  26
ATOM     26  C   UNL     1       0.690  13.427  19.523  0.00  0.00    +0.000 A 
ATOM     27  C   UNL     1       0.049  13.866  20.707  0.00  0.00    +0.000 A 
ATOM     28  C   UNL     1       0.795  14.425  21.748  0.00  0.00    +0.000 A 
ATOM     29  C   UNL     1       2.151  14.553  21.550  0.00  0.00    +0.000 A 
ATOM     30  C   UNL     1       2.729  14.329  20.321  0.00  0.00    +0.000 A 
ATOM     31  C   UNL     1       2.017  13.816  19.268  0.00  0.00    +0.000 A 
ATOM     32  O   UNL     1       4.088  14.446  20.361  0.00  0.00    +0.000 OA
ATOM     33  C   UNL     1       4.263  14.300  21.784  0.00  0.00    +0.000 C 
ATOM     34  O   UNL     1       3.097  14.745  22.515  0.00  0.00    +0.000 OA
ENDBRANCH  25  26
ENDBRANCH   1  25
TORSDOF 8
ENDMDL
MODEL 9
REMARK VINA RESULT:      -8.2      1.299      1.577
REMARK  Name = 
REMARK  8 active torsions:
REMARK  status: ('A' for Active; 'I' for Inactive)
REMARK    1  A    between atoms: C_2  and  C_3
REMARK    2  A    between atoms: C_8  and  N_9
REMARK    3  A    between atoms: N_9  and  C_10
REMARK    4  A    between atoms: N_9  and  C_20
REMARK    5  A    between atoms: C_10  and  C_11
REMARK    6  A    between atoms: C_24  and  O_25
REMARK    7  A    between atoms: O_25  and  C_26
REMARK    8  A    between atoms: C_26  and  C_27
REMARK                            x       y       z     vdW  Elec       q    Type
REMARK                         _______ _______ _______ _____ _____    ______ ____
ROOT
ATOM      1  N   UNL     1       3.428   6.127  18.535  0.00  0.00    +0.000 N 
ENDROOT
BRANCH   1   7
ATOM      2  C   UNL     1       3.539   2.721  19.784  0.00  0.00    +0.000 A 
ATOM      3  N   UNL     1       2.533   2.057  19.196  0.00  0.00    +0.000 NA
ATOM      4  C   UNL     1       1.744   2.820  18.418  0.00  0.00    +0.000 A 
ATOM      5  C   UNL     1       1.950   4.163  18.182  0.00  0.00    +0.000 A 
ATOM      6  F   UNL     1       1.076   4.834  17.421  0.00  0.00    +0.000 F 
ATOM      7  C   UNL     1       3.071   4.765  18.771  0.00  0.00    +0.000 A 
ATOM      8  N   UNL     1       3.816   4.022  19.613  0.00  0.00    +0.000 NA
BRANCH   2  10
ATOM      9  N   UNL     1       5.158   1.379  21.324  0.00  0.00    +0.000 NA
ATOM     10  C   UNL     1       4.427   1.981  20.646  0.00  0.00    +0.000 C 
ENDBRANCH   2  10
ENDBRANCH   1   7
BRANCH   1  11
ATOM     11  C   UNL     1       2.569   7.272  18.711  0.00  0.00    +0.000 A 
ATOM     12  C   UNL     1       2.096   8.030  17.624  0.00  0.00    +0.000 A 
ATOM     13  C   UNL     1       1.336   9.191  17.775  0.00  0.00    +0.000 A 
ATOM     14  C   UNL     1       0.967   9.609  19.038  0.00  0.00    +0.000 A 
ATOM     15  C   UNL     1       1.322   8.839  20.141  0.00  0.00    +0.000 A 
ATOM     16  C   UNL     1       2.150   7.713  19.982  0.00  0.00    +0.000 A 
BRANCH  15  17
ATOM     17  O   UNL     1       0.902   9.109  21.425  0.00  0.00    +0.000 OA
BRANCH  17  18
ATOM     18  C   UNL     1      -0.490   9.432  21.516  0.00  0.00    +0.000 C 
BRANCH  18  19
ATOM     19  C   UNL     1      -0.644  10.858  21.966  0.00  0.00    +0.000 A 
ATOM     20  C   UNL     1      -1.535  11.184  22.996  0.00  0.00    +0.000 A 
ATOM     21  C   UNL     1      -1.670  12.505  23.418  0.00  0.00    +0.000 A 
ATOM     22  C   UNL     1      -0.916  13.511  22.815  0.00  0.00    +0.000 A 
ATOM     23  C   UNL     1      -0.025  13.197  21.789  0.00  0.00    +0.000 A 
ATOM     24  C   UNL     1       0.111  11.876  21.366  0.00  0.00    +0.000 A 
ENDBRANCH  18  19
ENDBRANCH  17  18
ENDBRANCH  15  17
ENDBRANCH   1  11
BRANCH   1  25
ATOM     25  C   UNL     1       4.873   6.422  18.733  0.00  0.00    +0.000 C 
BRANCH  25  26
ATOM     26  C   UNL     1       5.788   6.071  17.566  0.00  0.00    +0.000 A 
ATOM     27  C   UNL     1       6.998   5.354  17.724  0.00  0.00    +0.000 A 
ATOM     28  C   UNL     1       7.514   4.599  16.666  0.00  0.00    +0.000 A 
ATOM     29  C   UNL     1       6.814   4.617  15.482  0.00  0.00    +0.000 A 
ATOM     30  C   UNL     1       5.767   5.485  15.271  0.00  0.00    +0.000 A 
ATOM     31  C   UNL     1       5.260   6.267  16.277  0.00  0.00    +0.000 A 
ATOM     32  O   UNL     1       5.172   5.291  14.059  0.00  0.00    +0.000 OA
ATOM     33  C   UNL     1       5.663   3.962  13.801  0.00  0.00    +0.000 C 
ATOM     34  O   UNL     1       6.929   3.723  14.457  0.00  0.00    +0.000 OA
ENDBRANCH  25  26
ENDBRANCH   1  25
TORSDOF 8
ENDMDL
