MODEL 1
REMARK VINA RESULT:      -9.2      0.000      0.000
REMARK  Name = 
REMARK  7 active torsions:
REMARK  status: ('A' for Active; 'I' for Inactive)
REMARK    1  A    between atoms: C_1  and  N_2
REMARK    2  A    between atoms: N_6  and  C_7
REMARK    3  A    between atoms: C_7  and  C_8
REMARK    4  A    between atoms: C_12  and  C_13
REMARK    5  A    between atoms: C_16  and  N_17
REMARK    6  A    between atoms: N_17  and  S_18
REMARK    7  A    between atoms: S_18  and  C_21
REMARK                            x       y       z     vdW  Elec       q    Type
REMARK                         _______ _______ _______ _____ _____    ______ ____
ROOT
ATOM      1  C   UNL     1       1.842   7.137  19.692  0.00  0.00    +0.000 A 
ATOM      2  C   UNL     1       1.933   7.861  18.486  0.00  0.00    +0.000 A 
ATOM      3  C   UNL     1       1.538   9.209  18.409  0.00  0.00    +0.000 A 
ATOM      4  C   UNL     1       1.051   9.860  19.538  0.00  0.00    +0.000 A 
ATOM      5  C   UNL     1       0.958   9.169  20.735  0.00  0.00    +0.000 A 
ATOM      6  C   UNL     1       1.340   7.826  20.805  0.00  0.00    +0.000 A 
ENDROOT
BRANCH   1  11
ATOM      7  C   UNL     1       3.223   3.711  18.730  0.00  0.00    +0.000 A 
ATOM      8  C   UNL     1       3.128   3.033  19.958  0.00  0.00    +0.000 A 
ATOM      9  C   UNL     1       2.586   3.661  21.075  0.00  0.00    +0.000 A 
ATOM     10  C   UNL     1       2.181   4.998  20.999  0.00  0.00    +0.000 A 
ATOM     11  C   UNL     1       2.236   5.709  19.785  0.00  0.00    +0.000 A 
ATOM     12  C   UNL     1       2.706   5.014  18.653  0.00  0.00    +0.000 A 
BRANCH   7  13
ATOM     13  C   UNL     1       3.906   3.081  17.522  0.00  0.00    +0.000 C 
BRANCH  13  19
ATOM     14  C   UNL     1       7.984   6.586  18.797  0.00  0.00    +0.000 C 
ATOM     15  N   UNL     1       7.540   6.132  17.478  0.00  0.00    +0.000 NA
ATOM     16  C   UNL     1       6.338   6.853  17.045  0.00  0.00    +0.000 C 
ATOM     17  C   UNL     1       5.543   6.180  15.919  0.00  0.00    +0.000 C 
ATOM     18  C   UNL     1       4.514   5.157  16.425  0.00  0.00    +0.000 C 
ATOM     19  N   UNL     1       5.029   3.885  16.968  0.00  0.00    +0.000 NA
ATOM     20  C   UNL     1       6.074   4.100  17.994  0.00  0.00    +0.000 C 
ATOM     21  C   UNL     1       7.399   4.672  17.436  0.00  0.00    +0.000 C 
ENDBRANCH  13  19
ENDBRANCH   7  13
ENDBRANCH   1  11
BRANCH   4  22
ATOM     22  N   UNL     1       0.731  11.249  19.502  0.00  0.00    +0.000 N 
ATOM     23  H   UNL     1       1.429  11.902  19.135  0.00  0.00    +0.000 HD
BRANCH  22  24
ATOM     24  S   UNL     1      -0.862  11.718  19.139  0.00  0.00    +0.000 S 
ATOM     25  O   UNL     1      -0.759  12.748  18.106  0.00  0.00    +0.000 OA
ATOM     26  O   UNL     1      -1.594  10.518  18.853  0.00  0.00    +0.000 OA
BRANCH  24  27
ATOM     27  C   UNL     1      -1.479  12.420  20.621  0.00  0.00    +0.000 A 
ATOM     28  C   UNL     1      -0.623  12.379  21.733  0.00  0.00    +0.000 A 
ATOM     29  C   UNL     1      -1.108  12.630  23.009  0.00  0.00    +0.000 A 
ATOM     30  C   UNL     1      -2.470  12.802  23.182  0.00  0.00    +0.000 A 
ATOM     31  C   UNL     1      -3.327  12.776  22.074  0.00  0.00    +0.000 A 
ATOM     32  C   UNL     1      -4.698  12.644  22.279  0.00  0.00    +0.000 A 
ATOM     33  C   UNL     1      -5.518  12.458  21.183  0.00  0.00    +0.000 A 
ATOM     34  C   UNL     1      -5.009  12.785  19.946  0.00  0.00    +0.000 A 
ATOM     35  N   UNL     1      -3.689  12.897  19.709  0.00  0.00    +0.000 NA
ATOM     36  C   UNL     1      -2.839  12.718  20.747  0.00  0.00    +0.000 A 
ENDBRANCH  24  27
ENDBRANCH  22  24
ENDBRANCH   4  22
TORSDOF 6
ENDMDL
MODEL 2
REMARK VINA RESULT:      -9.1      2.935     10.928
REMARK  Name = 
REMARK  7 active torsions:
REMARK  status: ('A' for Active; 'I' for Inactive)
REMARK    1  A    between atoms: C_1  and  N_2
REMARK    2  A    between atoms: N_6  and  C_7
REMARK    3  A    between atoms: C_7  and  C_8
REMARK    4  A    between atoms: C_12  and  C_13
REMARK    5  A    between atoms: C_16  and  N_17
REMARK    6  A    between atoms: N_17  and  S_18
REMARK    7  A    between atoms: S_18  and  C_21
REMARK                            x       y       z     vdW  Elec       q    Type
REMARK                         _______ _______ _______ _____ _____    ______ ____
ROOT
ATOM      1  C   UNL     1       1.114   9.284  19.362  0.00  0.00    +0.000 A 
ATOM      2  C   UNL     1       0.926   8.635  20.599  0.00  0.00    +0.000 A 
ATOM      3  C   UNL     1       1.566   7.416  20.892  0.00  0.00    +0.000 A 
ATOM      4  C   UNL     1       2.411   6.828  19.956  0.00  0.00    +0.000 A 
ATOM      5  C   UNL     1       2.613   7.451  18.735  0.00  0.00    +0.000 A 
ATOM      6  C   UNL     1       1.967   8.656  18.443  0.00  0.00    +0.000 A 
ENDROOT
BRANCH   1  11
ATOM      7  C   UNL     1      -1.657  11.857  18.844  0.00  0.00    +0.000 A 
ATOM      8  C   UNL     1      -0.901  13.003  18.542  0.00  0.00    +0.000 A 
ATOM      9  C   UNL     1       0.488  12.938  18.465  0.00  0.00    +0.000 A 
ATOM     10  C   UNL     1       1.148  11.736  18.746  0.00  0.00    +0.000 A 
ATOM     11  C   UNL     1       0.431  10.559  19.029  0.00  0.00    +0.000 A 
ATOM     12  C   UNL     1      -0.975  10.641  19.010  0.00  0.00    +0.000 A 
BRANCH   7  13
ATOM     13  C   UNL     1      -3.167  11.926  19.035  0.00  0.00    +0.000 C 
BRANCH  13  19
ATOM     14  C   UNL     1      -4.103  12.491  24.452  0.00  0.00    +0.000 C 
ATOM     15  N   UNL     1      -4.354  13.445  23.370  0.00  0.00    +0.000 NA
ATOM     16  C   UNL     1      -5.590  13.118  22.651  0.00  0.00    +0.000 C 
ATOM     17  C   UNL     1      -5.726  13.756  21.262  0.00  0.00    +0.000 C 
ATOM     18  C   UNL     1      -5.080  12.923  20.143  0.00  0.00    +0.000 C 
ATOM     19  N   UNL     1      -3.606  12.874  20.095  0.00  0.00    +0.000 NA
ATOM     20  C   UNL     1      -3.019  12.503  21.402  0.00  0.00    +0.000 C 
ATOM     21  C   UNL     1      -3.183  13.584  22.498  0.00  0.00    +0.000 C 
ENDBRANCH  13  19
ENDBRANCH   7  13
ENDBRANCH   1  11
BRANCH   4  22
ATOM     22  N   UNL     1       3.138   5.642  20.268  0.00  0.00    +0.000 N 
ATOM     23  H   UNL     1       3.265   5.392  21.253  0.00  0.00    +0.000 HD
BRANCH  22  24
ATOM     24  S   UNL     1       2.967   4.283  19.262  0.00  0.00    +0.000 S 
ATOM     25  O   UNL     1       3.387   3.130  20.057  0.00  0.00    +0.000 OA
ATOM     26  O   UNL     1       1.632   4.317  18.739  0.00  0.00    +0.000 OA
BRANCH  24  27
ATOM     27  C   UNL     1       4.098   4.543  17.949  0.00  0.00    +0.000 A 
ATOM     28  C   UNL     1       3.729   4.025  16.698  0.00  0.00    +0.000 A 
ATOM     29  C   UNL     1       4.661   3.911  15.675  0.00  0.00    +0.000 A 
ATOM     30  C   UNL     1       5.986   4.206  15.946  0.00  0.00    +0.000 A 
ATOM     31  C   UNL     1       6.358   4.661  17.218  0.00  0.00    +0.000 A 
ATOM     32  C   UNL     1       7.704   4.663  17.573  0.00  0.00    +0.000 A 
ATOM     33  C   UNL     1       8.047   4.960  18.877  0.00  0.00    +0.000 A 
ATOM     34  C   UNL     1       7.104   5.597  19.652  0.00  0.00    +0.000 A 
ATOM     35  N   UNL     1       5.792   5.595  19.351  0.00  0.00    +0.000 NA
ATOM     36  C   UNL     1       5.402   4.971  18.216  0.00  0.00    +0.000 A 
ENDBRANCH  24  27
ENDBRANCH  22  24
ENDBRANCH   4  22
TORSDOF 6
ENDMDL
MODEL 3
REMARK VINA RESULT:      -9.1      3.231     10.976
REMARK  Name = 
REMARK  7 active torsions:
REMARK  status: ('A' for Active; 'I' for Inactive)
REMARK    1  A    between atoms: C_1  and  N_2
REMARK    2  A    between atoms: N_6  and  C_7
REMARK    3  A    between atoms: C_7  and  C_8
REMARK    4  A    between atoms: C_12  and  C_13
REMARK    5  A    between atoms: C_16  and  N_17
REMARK    6  A    between atoms: N_17  and  S_18
REMARK    7  A    between atoms: S_18  and  C_21
REMARK                            x       y       z     vdW  Elec       q    Type
REMARK                         _______ _______ _______ _____ _____    ______ ____
ROOT
ATOM      1  C   UNL     1       0.978   9.103  19.442  0.00  0.00    +0.000 A 
ATOM      2  C   UNL     1       0.861   8.490  20.706  0.00  0.00    +0.000 A 
ATOM      3  C   UNL     1       1.579   7.322  21.023  0.00  0.00    +0.000 A 
ATOM      4  C   UNL     1       2.432   6.750  20.085  0.00  0.00    +0.000 A 
ATOM      5  C   UNL     1       2.565   7.338  18.838  0.00  0.00    +0.000 A 
ATOM      6  C   UNL     1       1.841   8.492  18.522  0.00  0.00    +0.000 A 
ENDROOT
BRANCH   1  11
ATOM      7  C   UNL     1      -1.790  11.347  18.073  0.00  0.00    +0.000 A 
ATOM      8  C   UNL     1      -1.347  12.608  18.507  0.00  0.00    +0.000 A 
ATOM      9  C   UNL     1      -0.145  12.740  19.198  0.00  0.00    +0.000 A 
ATOM     10  C   UNL     1       0.605  11.603  19.518  0.00  0.00    +0.000 A 
ATOM     11  C   UNL     1       0.212  10.323  19.084  0.00  0.00    +0.000 A 
ATOM     12  C   UNL     1      -0.962  10.238  18.310  0.00  0.00    +0.000 A 
BRANCH   7  13
ATOM     13  C   UNL     1      -3.149  11.165  17.408  0.00  0.00    +0.000 C 
BRANCH  13  19
ATOM     14  C   UNL     1      -7.358  11.631  20.957  0.00  0.00    +0.000 C 
ATOM     15  N   UNL     1      -6.902  12.581  19.942  0.00  0.00    +0.000 NA
ATOM     16  C   UNL     1      -7.375  12.198  18.607  0.00  0.00    +0.000 C 
ATOM     17  C   UNL     1      -6.618  12.842  17.437  0.00  0.00    +0.000 C 
ATOM     18  C   UNL     1      -5.370  12.053  17.010  0.00  0.00    +0.000 C 
ATOM     19  N   UNL     1      -4.206  12.079  17.918  0.00  0.00    +0.000 NA
ATOM     20  C   UNL     1      -4.575  11.726  19.307  0.00  0.00    +0.000 C 
ATOM     21  C   UNL     1      -5.451  12.787  20.017  0.00  0.00    +0.000 C 
ENDBRANCH  13  19
ENDBRANCH   7  13
ENDBRANCH   1  11
BRANCH   4  22
ATOM     22  N   UNL     1       3.236   5.620  20.418  0.00  0.00    +0.000 N 
ATOM     23  H   UNL     1       3.442   5.441  21.405  0.00  0.00    +0.000 HD
BRANCH  22  24
ATOM     24  S   UNL     1       3.063   4.192  19.513  0.00  0.00    +0.000 S 
ATOM     25  O   UNL     1       3.608   3.116  20.340  0.00  0.00    +0.000 OA
ATOM     26  O   UNL     1       1.691   4.123  19.100  0.00  0.00    +0.000 OA
BRANCH  24  27
ATOM     27  C   UNL     1       4.070   4.424  18.098  0.00  0.00    +0.000 A 
ATOM     28  C   UNL     1       3.619   3.831  16.909  0.00  0.00    +0.000 A 
ATOM     29  C   UNL     1       4.468   3.698  15.818  0.00  0.00    +0.000 A 
ATOM     30  C   UNL     1       5.798   4.052  15.962  0.00  0.00    +0.000 A 
ATOM     31  C   UNL     1       6.256   4.583  17.175  0.00  0.00    +0.000 A 
ATOM     32  C   UNL     1       7.626   4.648  17.414  0.00  0.00    +0.000 A 
ATOM     33  C   UNL     1       8.064   5.022  18.669  0.00  0.00    +0.000 A 
ATOM     34  C   UNL     1       7.165   5.665  19.490  0.00  0.00    +0.000 A 
ATOM     35  N   UNL     1       5.833   5.603  19.301  0.00  0.00    +0.000 NA
ATOM     36  C   UNL     1       5.375   4.909  18.233  0.00  0.00    +0.000 A 
ENDBRANCH  24  27
ENDBRANCH  22  24
ENDBRANCH   4  22
TORSDOF 6
ENDMDL
MODEL 4
REMARK VINA RESULT:      -9.0      3.310     11.003
REMARK  Name = 
REMARK  7 active torsions:
REMARK  status: ('A' for Active; 'I' for Inactive)
REMARK    1  A    between atoms: C_1  and  N_2
REMARK    2  A    between atoms: N_6  and  C_7
REMARK    3  A    between atoms: C_7  and  C_8
REMARK    4  A    between atoms: C_12  and  C_13
REMARK    5  A    between atoms: C_16  and  N_17
REMARK    6  A    between atoms: N_17  and  S_18
REMARK    7  A    between atoms: S_18  and  C_21
REMARK                            x       y       z     vdW  Elec       q    Type
REMARK                         _______ _______ _______ _____ _____    ______ ____
ROOT
ATOM      1  C   UNL     1       1.042   9.108  19.104  0.00  0.00    +0.000 A 
ATOM      2  C   UNL     1       0.921   8.512  20.375  0.00  0.00    +0.000 A 
ATOM      3  C   UNL     1       1.647   7.356  20.714  0.00  0.00    +0.000 A 
ATOM      4  C   UNL     1       2.514   6.779  19.791  0.00  0.00    +0.000 A 
ATOM      5  C   UNL     1       2.652   7.352  18.537  0.00  0.00    +0.000 A 
ATOM      6  C   UNL     1       1.919   8.494  18.200  0.00  0.00    +0.000 A 
ENDROOT
BRANCH   1  11
ATOM      7  C   UNL     1      -1.802  11.308  17.822  0.00  0.00    +0.000 A 
ATOM      8  C   UNL     1      -1.299  12.588  18.114  0.00  0.00    +0.000 A 
ATOM      9  C   UNL     1      -0.036  12.742  18.680  0.00  0.00    +0.000 A 
ATOM     10  C   UNL     1       0.721  11.615  19.018  0.00  0.00    +0.000 A 
ATOM     11  C   UNL     1       0.268  10.316  18.724  0.00  0.00    +0.000 A 
ATOM     12  C   UNL     1      -0.974  10.201  18.068  0.00  0.00    +0.000 A 
BRANCH   7  13
ATOM     13  C   UNL     1      -3.219  11.109  17.299  0.00  0.00    +0.000 C 
BRANCH  13  19
ATOM     14  C   UNL     1      -7.337  11.737  20.930  0.00  0.00    +0.000 C 
ATOM     15  N   UNL     1      -6.842  12.683  19.927  0.00  0.00    +0.000 NA
ATOM     16  C   UNL     1      -7.358  12.358  18.593  0.00  0.00    +0.000 C 
ATOM     17  C   UNL     1      -6.584  12.983  17.424  0.00  0.00    +0.000 C 
ATOM     18  C   UNL     1      -5.391  12.134  16.959  0.00  0.00    +0.000 C 
ATOM     19  N   UNL     1      -4.213  12.071  17.847  0.00  0.00    +0.000 NA
ATOM     20  C   UNL     1      -4.580  11.709  19.234  0.00  0.00    +0.000 C 
ATOM     21  C   UNL     1      -5.381  12.802  19.982  0.00  0.00    +0.000 C 
ENDBRANCH  13  19
ENDBRANCH   7  13
ENDBRANCH   1  11
BRANCH   4  22
ATOM     22  N   UNL     1       3.326   5.662  20.146  0.00  0.00    +0.000 N 
ATOM     23  H   UNL     1       3.257   5.291  21.098  0.00  0.00    +0.000 HD
BRANCH  22  24
ATOM     24  S   UNL     1       3.612   4.451  18.988  0.00  0.00    +0.000 S 
ATOM     25  O   UNL     1       3.435   3.175  19.679  0.00  0.00    +0.000 OA
ATOM     26  O   UNL     1       2.780   4.750  17.858  0.00  0.00    +0.000 OA
BRANCH  24  27
ATOM     27  C   UNL     1       5.290   4.651  18.525  0.00  0.00    +0.000 A 
ATOM     28  C   UNL     1       6.110   5.335  19.436  0.00  0.00    +0.000 A 
ATOM     29  C   UNL     1       7.358   5.805  19.051  0.00  0.00    +0.000 A 
ATOM     30  C   UNL     1       7.732   5.692  17.723  0.00  0.00    +0.000 A 
ATOM     31  C   UNL     1       6.878   5.066  16.805  0.00  0.00    +0.000 A 
ATOM     32  C   UNL     1       7.114   5.224  15.442  0.00  0.00    +0.000 A 
ATOM     33  C   UNL     1       6.181   4.740  14.546  0.00  0.00    +0.000 A 
ATOM     34  C   UNL     1       5.277   3.811  15.011  0.00  0.00    +0.000 A 
ATOM     35  N   UNL     1       5.009   3.649  16.321  0.00  0.00    +0.000 NA
ATOM     36  C   UNL     1       5.692   4.408  17.208  0.00  0.00    +0.000 A 
ENDBRANCH  24  27
ENDBRANCH  22  24
ENDBRANCH   4  22
TORSDOF 6
ENDMDL
MODEL 5
REMARK VINA RESULT:      -9.0      1.077      1.599
REMARK  Name = 
REMARK  7 active torsions:
REMARK  status: ('A' for Active; 'I' for Inactive)
REMARK    1  A    between atoms: C_1  and  N_2
REMARK    2  A    between atoms: N_6  and  C_7
REMARK    3  A    between atoms: C_7  and  C_8
REMARK    4  A    between atoms: C_12  and  C_13
REMARK    5  A    between atoms: C_16  and  N_17
REMARK    6  A    between atoms: N_17  and  S_18
REMARK    7  A    between atoms: S_18  and  C_21
REMARK                            x       y       z     vdW  Elec       q    Type
REMARK                         _______ _______ _______ _____ _____    ______ ____
ROOT
ATOM      1  C   UNL     1       1.760   7.396  19.993  0.00  0.00    +0.000 A 
ATOM      2  C   UNL     1       1.955   8.134  18.808  0.00  0.00    +0.000 A 
ATOM      3  C   UNL     1       1.559   9.480  18.709  0.00  0.00    +0.000 A 
ATOM      4  C   UNL     1       0.967  10.116  19.796  0.00  0.00    +0.000 A 
ATOM      5  C   UNL     1       0.770   9.411  20.972  0.00  0.00    +0.000 A 
ATOM      6  C   UNL     1       1.154   8.070  21.063  0.00  0.00    +0.000 A 
ENDROOT
BRANCH   1  11
ATOM      7  C   UNL     1       3.632   4.120  19.422  0.00  0.00    +0.000 A 
ATOM      8  C   UNL     1       3.030   3.298  20.390  0.00  0.00    +0.000 A 
ATOM      9  C   UNL     1       2.001   3.783  21.192  0.00  0.00    +0.000 A 
ATOM     10  C   UNL     1       1.595   5.117  21.078  0.00  0.00    +0.000 A 
ATOM     11  C   UNL     1       2.154   5.970  20.107  0.00  0.00    +0.000 A 
ATOM     12  C   UNL     1       3.129   5.419  19.253  0.00  0.00    +0.000 A 
BRANCH   7  13
ATOM     13  C   UNL     1       4.828   3.644  18.605  0.00  0.00    +0.000 C 
BRANCH  13  19
ATOM     14  C   UNL     1       6.662   4.116  13.414  0.00  0.00    +0.000 C 
ATOM     15  N   UNL     1       6.520   5.154  14.437  0.00  0.00    +0.000 NA
ATOM     16  C   UNL     1       7.634   5.113  15.391  0.00  0.00    +0.000 C 
ATOM     17  C   UNL     1       7.381   5.833  16.723  0.00  0.00    +0.000 C 
ATOM     18  C   UNL     1       6.699   4.945  17.775  0.00  0.00    +0.000 C 
ATOM     19  N   UNL     1       5.278   4.607  17.563  0.00  0.00    +0.000 NA
ATOM     20  C   UNL     1       5.031   4.063  16.209  0.00  0.00    +0.000 C 
ATOM     21  C   UNL     1       5.199   5.100  15.072  0.00  0.00    +0.000 C 
ENDBRANCH  13  19
ENDBRANCH   7  13
ENDBRANCH   1  11
BRANCH   4  22
ATOM     22  N   UNL     1       0.642  11.503  19.746  0.00  0.00    +0.000 N 
ATOM     23  H   UNL     1       1.352  12.159  19.408  0.00  0.00    +0.000 HD
BRANCH  22  24
ATOM     24  S   UNL     1      -0.937  11.963  19.314  0.00  0.00    +0.000 S 
ATOM     25  O   UNL     1      -0.795  12.975  18.268  0.00  0.00    +0.000 OA
ATOM     26  O   UNL     1      -1.657  10.758  19.022  0.00  0.00    +0.000 OA
BRANCH  24  27
ATOM     27  C   UNL     1      -1.610  12.691  20.759  0.00  0.00    +0.000 A 
ATOM     28  C   UNL     1      -0.770  12.738  21.882  0.00  0.00    +0.000 A 
ATOM     29  C   UNL     1      -1.285  13.014  23.141  0.00  0.00    +0.000 A 
ATOM     30  C   UNL     1      -2.657  13.123  23.290  0.00  0.00    +0.000 A 
ATOM     31  C   UNL     1      -3.495  13.009  22.173  0.00  0.00    +0.000 A 
ATOM     32  C   UNL     1      -4.860  12.815  22.366  0.00  0.00    +0.000 A 
ATOM     33  C   UNL     1      -5.654  12.544  21.268  0.00  0.00    +0.000 A 
ATOM     34  C   UNL     1      -5.144  12.848  20.026  0.00  0.00    +0.000 A 
ATOM     35  N   UNL     1      -3.828  13.018  19.801  0.00  0.00    +0.000 NA
ATOM     36  C   UNL     1      -2.986  12.923  20.855  0.00  0.00    +0.000 A 
ENDBRANCH  24  27
ENDBRANCH  22  24
ENDBRANCH   4  22
TORSDOF 6
ENDMDL
MODEL 6
REMARK VINA RESULT:      -8.9      3.063     10.976
REMARK  Name = 
REMARK  7 active torsions:
REMARK  status: ('A' for Active; 'I' for Inactive)
REMARK    1  A    between atoms: C_1  and  N_2
REMARK    2  A    between atoms: N_6  and  C_7
REMARK    3  A    between atoms: C_7  and  C_8
REMARK    4  A    between atoms: C_12  and  C_13
REMARK    5  A    between atoms: C_16  and  N_17
REMARK    6  A    between atoms: N_17  and  S_18
REMARK    7  A    between atoms: S_18  and  C_21
REMARK                            x       y       z     vdW  Elec       q    Type
REMARK                         _______ _______ _______ _____ _____    ______ ____
ROOT
ATOM      1  C   UNL     1       1.250   9.250  19.141  0.00  0.00    +0.000 A 
ATOM      2  C   UNL     1       1.078   8.645  20.403  0.00  0.00    +0.000 A 
ATOM      3  C   UNL     1       1.674   7.408  20.711  0.00  0.00    +0.000 A 
ATOM      4  C   UNL     1       2.459   6.757  19.765  0.00  0.00    +0.000 A 
ATOM      5  C   UNL     1       2.646   7.336  18.520  0.00  0.00    +0.000 A 
ATOM      6  C   UNL     1       2.042   8.559  18.214  0.00  0.00    +0.000 A 
ENDROOT
BRANCH   1  11
ATOM      7  C   UNL     1      -1.408  11.804  18.153  0.00  0.00    +0.000 A 
ATOM      8  C   UNL     1      -0.679  13.001  18.263  0.00  0.00    +0.000 A 
ATOM      9  C   UNL     1       0.668  12.982  18.612  0.00  0.00    +0.000 A 
ATOM     10  C   UNL     1       1.295  11.768  18.913  0.00  0.00    +0.000 A 
ATOM     11  C   UNL     1       0.611  10.544  18.794  0.00  0.00    +0.000 A 
ATOM     12  C   UNL     1      -0.725  10.594  18.351  0.00  0.00    +0.000 A 
BRANCH   7  13
ATOM     13  C   UNL     1      -2.906  11.806  17.874  0.00  0.00    +0.000 C 
BRANCH  13  19
ATOM     14  C   UNL     1      -7.656  13.443  20.175  0.00  0.00    +0.000 C 
ATOM     15  N   UNL     1      -6.565  12.667  20.769  0.00  0.00    +0.000 NA
ATOM     16  C   UNL     1      -5.455  13.537  21.172  0.00  0.00    +0.000 C 
ATOM     17  C   UNL     1      -4.113  12.824  21.389  0.00  0.00    +0.000 C 
ATOM     18  C   UNL     1      -3.283  12.681  20.104  0.00  0.00    +0.000 C 
ATOM     19  N   UNL     1      -3.755  11.715  19.093  0.00  0.00    +0.000 NA
ATOM     20  C   UNL     1      -5.181  11.919  18.752  0.00  0.00    +0.000 C 
ATOM     21  C   UNL     1      -6.161  11.560  19.895  0.00  0.00    +0.000 C 
ENDBRANCH  13  19
ENDBRANCH   7  13
ENDBRANCH   1  11
BRANCH   4  22
ATOM     22  N   UNL     1       3.145   5.549  20.088  0.00  0.00    +0.000 N 
ATOM     23  H   UNL     1       2.951   5.104  20.989  0.00  0.00    +0.000 HD
BRANCH  22  24
ATOM     24  S   UNL     1       3.458   4.425  18.852  0.00  0.00    +0.000 S 
ATOM     25  O   UNL     1       3.203   3.105  19.427  0.00  0.00    +0.000 OA
ATOM     26  O   UNL     1       2.699   4.842  17.708  0.00  0.00    +0.000 OA
BRANCH  24  27
ATOM     27  C   UNL     1       5.164   4.601  18.497  0.00  0.00    +0.000 A 
ATOM     28  C   UNL     1       5.941   5.241  19.475  0.00  0.00    +0.000 A 
ATOM     29  C   UNL     1       7.220   5.695  19.180  0.00  0.00    +0.000 A 
ATOM     30  C   UNL     1       7.670   5.612  17.874  0.00  0.00    +0.000 A 
ATOM     31  C   UNL     1       6.862   5.030  16.888  0.00  0.00    +0.000 A 
ATOM     32  C   UNL     1       7.182   5.223  15.547  0.00  0.00    +0.000 A 
ATOM     33  C   UNL     1       6.295   4.784  14.583  0.00  0.00    +0.000 A 
ATOM     34  C   UNL     1       5.347   3.862  14.965  0.00  0.00    +0.000 A 
ATOM     35  N   UNL     1       4.997   3.668  16.251  0.00  0.00    +0.000 NA
ATOM     36  C   UNL     1       5.640   4.387  17.200  0.00  0.00    +0.000 A 
ENDBRANCH  24  27
ENDBRANCH  22  24
ENDBRANCH   4  22
TORSDOF 6
ENDMDL
MODEL 7
REMARK VINA RESULT:      -8.9      4.046      9.949
REMARK  Name = 
REMARK  7 active torsions:
REMARK  status: ('A' for Active; 'I' for Inactive)
REMARK    1  A    between atoms: C_1  and  N_2
REMARK    2  A    between atoms: N_6  and  C_7
REMARK    3  A    between atoms: C_7  and  C_8
REMARK    4  A    between atoms: C_12  and  C_13
REMARK    5  A    between atoms: C_16  and  N_17
REMARK    6  A    between atoms: N_17  and  S_18
REMARK    7  A    between atoms: S_18  and  C_21
REMARK                            x       y       z     vdW  Elec       q    Type
REMARK                         _______ _______ _______ _____ _____    ______ ____
ROOT
ATOM      1  C   UNL     1       1.039   9.179  19.305  0.00  0.00    +0.000 A 
ATOM      2  C   UNL     1       1.877   8.570  18.349  0.00  0.00    +0.000 A 
ATOM      3  C   UNL     1       2.618   7.413  18.655  0.00  0.00    +0.000 A 
ATOM      4  C   UNL     1       2.529   6.840  19.920  0.00  0.00    +0.000 A 
ATOM      5  C   UNL     1       1.707   7.420  20.873  0.00  0.00    +0.000 A 
ATOM      6  C   UNL     1       0.982   8.575  20.569  0.00  0.00    +0.000 A 
ENDROOT
BRANCH   1  11
ATOM      7  C   UNL     1       0.069  12.865  19.114  0.00  0.00    +0.000 A 
ATOM      8  C   UNL     1      -1.099  12.791  18.334  0.00  0.00    +0.000 A 
ATOM      9  C   UNL     1      -1.592  11.561  17.909  0.00  0.00    +0.000 A 
ATOM     10  C   UNL     1      -0.893  10.386  18.208  0.00  0.00    +0.000 A 
ATOM     11  C   UNL     1       0.267  10.410  19.005  0.00  0.00    +0.000 A 
ATOM     12  C   UNL     1       0.687  11.663  19.493  0.00  0.00    +0.000 A 
BRANCH   7  13
ATOM     13  C   UNL     1       0.684  14.204  19.503  0.00  0.00    +0.000 C 
BRANCH  13  19
ATOM     14  C   UNL     1       6.066  15.456  19.431  0.00  0.00    +0.000 C 
ATOM     15  N   UNL     1       5.085  15.549  18.348  0.00  0.00    +0.000 NA
ATOM     16  C   UNL     1       4.263  16.757  18.482  0.00  0.00    +0.000 C 
ATOM     17  C   UNL     1       2.948  16.742  17.690  0.00  0.00    +0.000 C 
ATOM     18  C   UNL     1       1.782  16.095  18.456  0.00  0.00    +0.000 C 
ATOM     19  N   UNL     1       1.816  14.631  18.637  0.00  0.00    +0.000 NA
ATOM     20  C   UNL     1       3.105  14.169  19.197  0.00  0.00    +0.000 C 
ATOM     21  C   UNL     1       4.304  14.314  18.227  0.00  0.00    +0.000 C 
ENDBRANCH  13  19
ENDBRANCH   7  13
ENDBRANCH   1  11
BRANCH   4  22
ATOM     22  N   UNL     1       3.200   5.619  20.220  0.00  0.00    +0.000 N 
ATOM     23  H   UNL     1       3.311   5.351  21.202  0.00  0.00    +0.000 HD
BRANCH  22  24
ATOM     24  S   UNL     1       2.974   4.282  19.195  0.00  0.00    +0.000 S 
ATOM     25  O   UNL     1       3.368   3.104  19.967  0.00  0.00    +0.000 OA
ATOM     26  O   UNL     1       1.633   4.365  18.691  0.00  0.00    +0.000 OA
BRANCH  24  27
ATOM     27  C   UNL     1       4.094   4.528  17.871  0.00  0.00    +0.000 A 
ATOM     28  C   UNL     1       3.713   4.003  16.627  0.00  0.00    +0.000 A 
ATOM     29  C   UNL     1       4.636   3.878  15.597  0.00  0.00    +0.000 A 
ATOM     30  C   UNL     1       5.964   4.169  15.855  0.00  0.00    +0.000 A 
ATOM     31  C   UNL     1       6.349   4.631  17.121  0.00  0.00    +0.000 A 
ATOM     32  C   UNL     1       7.698   4.628  17.464  0.00  0.00    +0.000 A 
ATOM     33  C   UNL     1       8.053   4.932  18.764  0.00  0.00    +0.000 A 
ATOM     34  C   UNL     1       7.120   5.578  19.542  0.00  0.00    +0.000 A 
ATOM     35  N   UNL     1       5.806   5.581  19.252  0.00  0.00    +0.000 NA
ATOM     36  C   UNL     1       5.403   4.951  18.124  0.00  0.00    +0.000 A 
ENDBRANCH  24  27
ENDBRANCH  22  24
ENDBRANCH   4  22
TORSDOF 6
ENDMDL
MODEL 8
REMARK VINA RESULT:      -8.8      1.460      2.565
REMARK  Name = 
REMARK  7 active torsions:
REMARK  status: ('A' for Active; 'I' for Inactive)
REMARK    1  A    between atoms: C_1  and  N_2
REMARK    2  A    between atoms: N_6  and  C_7
REMARK    3  A    between atoms: C_7  and  C_8
REMARK    4  A    between atoms: C_12  and  C_13
REMARK    5  A    between atoms: C_16  and  N_17
REMARK    6  A    between atoms: N_17  and  S_18
REMARK    7  A    between atoms: S_18  and  C_21
REMARK                            x       y       z     vdW  Elec       q    Type
REMARK                         _______ _______ _______ _____ _____    ______ ____
ROOT
ATOM      1  C   UNL     1       1.947   7.299  19.341  0.00  0.00    +0.000 A 
ATOM      2  C   UNL     1       1.486   8.143  20.372  0.00  0.00    +0.000 A 
ATOM      3  C   UNL     1       1.213   9.503  20.138  0.00  0.00    +0.000 A 
ATOM      4  C   UNL     1       1.390  10.043  18.868  0.00  0.00    +0.000 A 
ATOM      5  C   UNL     1       1.838   9.230  17.839  0.00  0.00    +0.000 A 
ATOM      6  C   UNL     1       2.119   7.882  18.078  0.00  0.00    +0.000 A 
ENDROOT
BRANCH   1  11
ATOM      7  C   UNL     1       3.230   3.750  18.767  0.00  0.00    +0.000 A 
ATOM      8  C   UNL     1       2.996   3.177  20.029  0.00  0.00    +0.000 A 
ATOM      9  C   UNL     1       2.393   3.915  21.043  0.00  0.00    +0.000 A 
ATOM     10  C   UNL     1       2.064   5.258  20.830  0.00  0.00    +0.000 A 
ATOM     11  C   UNL     1       2.258   5.867  19.576  0.00  0.00    +0.000 A 
ATOM     12  C   UNL     1       2.788   5.065  18.546  0.00  0.00    +0.000 A 
BRANCH   7  13
ATOM     13  C   UNL     1       3.981   2.997  17.676  0.00  0.00    +0.000 C 
BRANCH  13  19
ATOM     14  C   UNL     1       7.928   6.756  18.588  0.00  0.00    +0.000 C 
ATOM     15  N   UNL     1       7.512   6.147  17.323  0.00  0.00    +0.000 NA
ATOM     16  C   UNL     1       6.290   6.777  16.809  0.00  0.00    +0.000 C 
ATOM     17  C   UNL     1       5.529   5.959  15.756  0.00  0.00    +0.000 C 
ATOM     18  C   UNL     1       4.530   4.962  16.364  0.00  0.00    +0.000 C 
ATOM     19  N   UNL     1       5.082   3.774  17.044  0.00  0.00    +0.000 NA
ATOM     20  C   UNL     1       6.109   4.134  18.047  0.00  0.00    +0.000 C 
ATOM     21  C   UNL     1       7.420   4.688  17.438  0.00  0.00    +0.000 C 
ENDBRANCH  13  19
ENDBRANCH   7  13
ENDBRANCH   1  11
BRANCH   4  22
ATOM     22  N   UNL     1       1.033  11.395  18.590  0.00  0.00    +0.000 N 
ATOM     23  H   UNL     1       1.444  11.850  17.770  0.00  0.00    +0.000 HD
BRANCH  22  24
ATOM     24  S   UNL     1      -0.559  11.906  18.895  0.00  0.00    +0.000 S 
ATOM     25  O   UNL     1      -0.784  13.073  18.044  0.00  0.00    +0.000 OA
ATOM     26  O   UNL     1      -1.403  10.757  18.735  0.00  0.00    +0.000 OA
BRANCH  24  27
ATOM     27  C   UNL     1      -0.568  12.386  20.580  0.00  0.00    +0.000 A 
ATOM     28  C   UNL     1      -1.670  11.967  21.341  0.00  0.00    +0.000 A 
ATOM     29  C   UNL     1      -1.928  12.528  22.585  0.00  0.00    +0.000 A 
ATOM     30  C   UNL     1      -1.149  13.592  23.009  0.00  0.00    +0.000 A 
ATOM     31  C   UNL     1      -0.091  14.049  22.212  0.00  0.00    +0.000 A 
ATOM     32  C   UNL     1       0.482  15.287  22.490  0.00  0.00    +0.000 A 
ATOM     33  C   UNL     1       1.413  15.800  21.607  0.00  0.00    +0.000 A 
ATOM     34  C   UNL     1       2.000  14.924  20.723  0.00  0.00    +0.000 A 
ATOM     35  N   UNL     1       1.460  13.729  20.414  0.00  0.00    +0.000 NA
ATOM     36  C   UNL     1       0.313  13.371  21.037  0.00  0.00    +0.000 A 
ENDBRANCH  24  27
ENDBRANCH  22  24
ENDBRANCH   4  22
TORSDOF 6
ENDMDL
MODEL 9
REMARK VINA RESULT:      -8.8      3.974      9.948
REMARK  Name = 
REMARK  7 active torsions:
REMARK  status: ('A' for Active; 'I' for Inactive)
REMARK    1  A    between atoms: C_1  and  N_2
REMARK    2  A    between atoms: N_6  and  C_7
REMARK    3  A    between atoms: C_7  and  C_8
REMARK    4  A    between atoms: C_12  and  C_13
REMARK    5  A    between atoms: C_16  and  N_17
REMARK    6  A    between atoms: N_17  and  S_18
REMARK    7  A    between atoms: S_18  and  C_21
REMARK                            x       y       z     vdW  Elec       q    Type
REMARK                         _______ _______ _______ _____ _____    ______ ____
ROOT
ATOM      1  C   UNL     1       1.018   9.255  19.364  0.00  0.00    +0.000 A 
ATOM      2  C   UNL     1       0.876   8.577  20.592  0.00  0.00    +0.000 A 
ATOM      3  C   UNL     1       1.572   7.384  20.856  0.00  0.00    +0.000 A 
ATOM      4  C   UNL     1       2.429   6.849  19.900  0.00  0.00    +0.000 A 
ATOM      5  C   UNL     1       2.588   7.501  18.688  0.00  0.00    +0.000 A 
ATOM      6  C   UNL     1       1.885   8.681  18.425  0.00  0.00    +0.000 A 
ENDROOT
BRANCH   1  11
ATOM      7  C   UNL     1       0.287  12.946  18.729  0.00  0.00    +0.000 A 
ATOM      8  C   UNL     1      -1.068  12.888  18.358  0.00  0.00    +0.000 A 
ATOM      9  C   UNL     1      -1.751  11.675  18.353  0.00  0.00    +0.000 A 
ATOM     10  C   UNL     1      -1.074  10.490  18.664  0.00  0.00    +0.000 A 
ATOM     11  C   UNL     1       0.275  10.504  19.063  0.00  0.00    +0.000 A 
ATOM     12  C   UNL     1       0.910  11.759  19.144  0.00  0.00    +0.000 A 
BRANCH   7  13
ATOM     13  C   UNL     1       1.082  14.244  18.642  0.00  0.00    +0.000 C 
BRANCH  13  19
ATOM     14  C   UNL     1       5.062  16.607  21.660  0.00  0.00    +0.000 C 
ATOM     15  N   UNL     1       5.143  15.434  20.787  0.00  0.00    +0.000 NA
ATOM     16  C   UNL     1       5.243  15.829  19.378  0.00  0.00    +0.000 C 
ATOM     17  C   UNL     1       4.895  14.728  18.366  0.00  0.00    +0.000 C 
ATOM     18  C   UNL     1       3.395  14.652  18.040  0.00  0.00    +0.000 C 
ATOM     19  N   UNL     1       2.497  14.124  19.085  0.00  0.00    +0.000 NA
ATOM     20  C   UNL     1       2.696  14.803  20.385  0.00  0.00    +0.000 C 
ATOM     21  C   UNL     1       4.054  14.490  21.060  0.00  0.00    +0.000 C 
ENDBRANCH  13  19
ENDBRANCH   7  13
ENDBRANCH   1  11
BRANCH   4  22
ATOM     22  N   UNL     1       3.212   5.691  20.182  0.00  0.00    +0.000 N 
ATOM     23  H   UNL     1       3.416   5.466  21.160  0.00  0.00    +0.000 HD
BRANCH  22  24
ATOM     24  S   UNL     1       3.011   4.306  19.218  0.00  0.00    +0.000 S 
ATOM     25  O   UNL     1       3.417   3.171  20.044  0.00  0.00    +0.000 OA
ATOM     26  O   UNL     1       1.673   4.348  18.703  0.00  0.00    +0.000 OA
BRANCH  24  27
ATOM     27  C   UNL     1       4.136   4.509  17.889  0.00  0.00    +0.000 A 
ATOM     28  C   UNL     1       3.761   3.939  16.663  0.00  0.00    +0.000 A 
ATOM     29  C   UNL     1       4.688   3.781  15.642  0.00  0.00    +0.000 A 
ATOM     30  C   UNL     1       6.015   4.085  15.895  0.00  0.00    +0.000 A 
ATOM     31  C   UNL     1       6.393   4.593  17.145  0.00  0.00    +0.000 A 
ATOM     32  C   UNL     1       7.741   4.607  17.492  0.00  0.00    +0.000 A 
ATOM     33  C   UNL     1       8.090   4.958  18.782  0.00  0.00    +0.000 A 
ATOM     34  C   UNL     1       7.152   5.629  19.533  0.00  0.00    +0.000 A 
ATOM     35  N   UNL     1       5.838   5.616  19.238  0.00  0.00    +0.000 NA
ATOM     36  C   UNL     1       5.442   4.945  18.132  0.00  0.00    +0.000 A 
ENDBRANCH  24  27
ENDBRANCH  22  24
ENDBRANCH   4  22
TORSDOF 6
ENDMDL
