MODEL 1
REMARK VINA RESULT:      -7.7      0.000      0.000
REMARK  Name = 
REMARK  9 active torsions:
REMARK  status: ('A' for Active; 'I' for Inactive)
REMARK    1  A    between atoms: C_1  and  C_2
REMARK    2  A    between atoms: C_2  and  C_3
REMARK    3  A    between atoms: C_2  and  N_8
REMARK    4  A    between atoms: N_8  and  C_9
REMARK    5  A    between atoms: C_10  and  C_12
REMARK    6  A    between atoms: C_15  and  N_16
REMARK    7  A    between atoms: N_16  and  C_17
REMARK    8  A    between atoms: C_17  and  C_18
REMARK    9  A    between atoms: N_26  and  C_27
REMARK                            x       y       z     vdW  Elec       q    Type
REMARK                         _______ _______ _______ _____ _____    ______ ____
ROOT
ATOM      1  C   UNL     1       2.691   7.222  18.944  0.00  0.00    +0.000 A 
ATOM      2  C   UNL     1       2.053   7.443  20.169  0.00  0.00    +0.000 A 
ATOM      3  C   UNL     1       1.150   8.505  20.322  0.00  0.00    +0.000 A 
ATOM      4  C   UNL     1       0.945   9.448  19.308  0.00  0.00    +0.000 A 
ATOM      5  C   UNL     1       1.595   9.234  18.088  0.00  0.00    +0.000 A 
ATOM      6  C   UNL     1       2.469   8.146  17.912  0.00  0.00    +0.000 A 
ENDROOT
BRANCH   1   9
ATOM      7  N   UNL     1       3.223   4.875  18.137  0.00  0.00    +0.000 N 
ATOM      8  C   UNL     1       1.860   4.575  17.720  0.00  0.00    +0.000 C 
ATOM      9  C   UNL     1       3.647   6.092  18.690  0.00  0.00    +0.000 C 
ATOM     10  O   UNL     1       4.827   6.301  18.976  0.00  0.00    +0.000 OA
BRANCH   7  12
ATOM     11  C   UNL     1       3.586   2.427  17.805  0.00  0.00    +0.000 C 
ATOM     12  C   UNL     1       4.240   3.805  17.961  0.00  0.00    +0.000 C 
BRANCH  12  13
ATOM     13  C   UNL     1       5.137   4.122  16.774  0.00  0.00    +0.000 A 
ATOM     14  N   UNL     1       4.726   4.219  15.522  0.00  0.00    +0.000 NA
ATOM     15  C   UNL     1       5.784   4.551  14.701  0.00  0.00    +0.000 A 
ATOM     16  C   UNL     1       7.001   4.701  15.330  0.00  0.00    +0.000 A 
ATOM     17  S   UNL     1       6.821   4.420  17.012  0.00  0.00    +0.000 S 
ENDBRANCH  12  13
ENDBRANCH   7  12
ENDBRANCH   1   9
BRANCH   4  18
ATOM     18  N   UNL     1       0.032  10.497  19.535  0.00  0.00    +0.000 N 
ATOM     19  H   UNL     1       0.460  11.195  20.142  0.00  0.00    +0.000 HD
BRANCH  18  20
ATOM     20  C   UNL     1      -0.535  11.148  18.341  0.00  0.00    +0.000 C 
BRANCH  20  21
ATOM     21  C   UNL     1      -2.005  11.465  18.439  0.00  0.00    +0.000 A 
ATOM     22  N   UNL     1      -2.578  12.041  19.480  0.00  0.00    +0.000 NA
ATOM     23  C   UNL     1      -3.915  12.094  19.193  0.00  0.00    +0.000 A 
ATOM     24  C   UNL     1      -4.963  12.636  19.950  0.00  0.00    +0.000 A 
ATOM     25  C   UNL     1      -6.272  12.519  19.470  0.00  0.00    +0.000 A 
ATOM     26  C   UNL     1      -6.531  11.859  18.269  0.00  0.00    +0.000 A 
ATOM     27  C   UNL     1      -5.492  11.342  17.482  0.00  0.00    +0.000 A 
ATOM     28  C   UNL     1      -4.185  11.502  17.964  0.00  0.00    +0.000 A 
ATOM     29  N   UNL     1      -2.938  11.220  17.453  0.00  0.00    +0.000 N 
ATOM     30  C   UNL     1      -2.646  10.875  16.081  0.00  0.00    +0.000 C 
ENDBRANCH  20  21
ENDBRANCH  18  20
ENDBRANCH   4  18
TORSDOF 6
ENDMDL
MODEL 2
REMARK VINA RESULT:      -7.7      2.219      2.916
REMARK  Name = 
REMARK  9 active torsions:
REMARK  status: ('A' for Active; 'I' for Inactive)
REMARK    1  A    between atoms: C_1  and  C_2
REMARK    2  A    between atoms: C_2  and  C_3
REMARK    3  A    between atoms: C_2  and  N_8
REMARK    4  A    between atoms: N_8  and  C_9
REMARK    5  A    between atoms: C_10  and  C_12
REMARK    6  A    between atoms: C_15  and  N_16
REMARK    7  A    between atoms: N_16  and  C_17
REMARK    8  A    between atoms: C_17  and  C_18
REMARK    9  A    between atoms: N_26  and  C_27
REMARK                            x       y       z     vdW  Elec       q    Type
REMARK                         _______ _______ _______ _____ _____    ______ ____
ROOT
ATOM      1  C   UNL     1       2.560   7.205  19.109  0.00  0.00    +0.000 A 
ATOM      2  C   UNL     1       1.838   7.557  20.254  0.00  0.00    +0.000 A 
ATOM      3  C   UNL     1       0.975   8.663  20.242  0.00  0.00    +0.000 A 
ATOM      4  C   UNL     1       0.893   9.520  19.139  0.00  0.00    +0.000 A 
ATOM      5  C   UNL     1       1.628   9.175  17.998  0.00  0.00    +0.000 A 
ATOM      6  C   UNL     1       2.462   8.043  17.988  0.00  0.00    +0.000 A 
ENDROOT
BRANCH   1   9
ATOM      7  N   UNL     1       3.088   4.819  18.426  0.00  0.00    +0.000 N 
ATOM      8  C   UNL     1       1.799   4.583  17.790  0.00  0.00    +0.000 C 
ATOM      9  C   UNL     1       3.480   6.021  19.031  0.00  0.00    +0.000 C 
ATOM     10  O   UNL     1       4.606   6.173  19.508  0.00  0.00    +0.000 OA
BRANCH   7  12
ATOM     11  C   UNL     1       3.436   2.407  17.877  0.00  0.00    +0.000 C 
ATOM     12  C   UNL     1       4.059   3.693  18.435  0.00  0.00    +0.000 C 
BRANCH  12  13
ATOM     13  C   UNL     1       5.312   4.073  17.660  0.00  0.00    +0.000 A 
ATOM     14  N   UNL     1       6.518   4.191  18.187  0.00  0.00    +0.000 NA
ATOM     15  C   UNL     1       7.433   4.513  17.206  0.00  0.00    +0.000 A 
ATOM     16  C   UNL     1       6.920   4.645  15.933  0.00  0.00    +0.000 A 
ATOM     17  S   UNL     1       5.231   4.353  15.958  0.00  0.00    +0.000 S 
ENDBRANCH  12  13
ENDBRANCH   7  12
ENDBRANCH   1   9
BRANCH   4  18
ATOM     18  N   UNL     1       0.014  10.619  19.201  0.00  0.00    +0.000 N 
ATOM     19  H   UNL     1      -0.949  10.287  19.162  0.00  0.00    +0.000 HD
BRANCH  18  20
ATOM     20  C   UNL     1       0.184  11.536  20.342  0.00  0.00    +0.000 C 
BRANCH  20  21
ATOM     21  C   UNL     1      -1.098  11.910  21.041  0.00  0.00    +0.000 A 
ATOM     22  N   UNL     1      -2.055  12.644  20.505  0.00  0.00    +0.000 NA
ATOM     23  C   UNL     1      -3.005  12.795  21.479  0.00  0.00    +0.000 A 
ATOM     24  C   UNL     1      -4.236  13.463  21.420  0.00  0.00    +0.000 A 
ATOM     25  C   UNL     1      -5.021  13.534  22.576  0.00  0.00    +0.000 A 
ATOM     26  C   UNL     1      -4.576  12.968  23.771  0.00  0.00    +0.000 A 
ATOM     27  C   UNL     1      -3.363  12.267  23.839  0.00  0.00    +0.000 A 
ATOM     28  C   UNL     1      -2.611  12.177  22.660  0.00  0.00    +0.000 A 
ATOM     29  N   UNL     1      -1.451  11.519  22.316  0.00  0.00    +0.000 N 
ATOM     30  C   UNL     1      -0.803  10.488  23.093  0.00  0.00    +0.000 C 
ENDBRANCH  20  21
ENDBRANCH  18  20
ENDBRANCH   4  18
TORSDOF 6
ENDMDL
MODEL 3
REMARK VINA RESULT:      -7.5      2.775      4.333
REMARK  Name = 
REMARK  9 active torsions:
REMARK  status: ('A' for Active; 'I' for Inactive)
REMARK    1  A    between atoms: C_1  and  C_2
REMARK    2  A    between atoms: C_2  and  C_3
REMARK    3  A    between atoms: C_2  and  N_8
REMARK    4  A    between atoms: N_8  and  C_9
REMARK    5  A    between atoms: C_10  and  C_12
REMARK    6  A    between atoms: C_15  and  N_16
REMARK    7  A    between atoms: N_16  and  C_17
REMARK    8  A    between atoms: C_17  and  C_18
REMARK    9  A    between atoms: N_26  and  C_27
REMARK                            x       y       z     vdW  Elec       q    Type
REMARK                         _______ _______ _______ _____ _____    ______ ____
ROOT
ATOM      1  C   UNL     1       2.720   7.200  18.891  0.00  0.00    +0.000 A 
ATOM      2  C   UNL     1       2.085   7.436  20.115  0.00  0.00    +0.000 A 
ATOM      3  C   UNL     1       1.190   8.506  20.260  0.00  0.00    +0.000 A 
ATOM      4  C   UNL     1       0.991   9.442  19.238  0.00  0.00    +0.000 A 
ATOM      5  C   UNL     1       1.638   9.213  18.018  0.00  0.00    +0.000 A 
ATOM      6  C   UNL     1       2.503   8.117  17.851  0.00  0.00    +0.000 A 
ENDROOT
BRANCH   1   9
ATOM      7  N   UNL     1       3.235   4.847  18.092  0.00  0.00    +0.000 N 
ATOM      8  C   UNL     1       1.872   4.557  17.669  0.00  0.00    +0.000 C 
ATOM      9  C   UNL     1       3.666   6.060  18.645  0.00  0.00    +0.000 C 
ATOM     10  O   UNL     1       4.847   6.260  18.937  0.00  0.00    +0.000 OA
BRANCH   7  12
ATOM     11  C   UNL     1       3.578   2.394  17.771  0.00  0.00    +0.000 C 
ATOM     12  C   UNL     1       4.243   3.767  17.925  0.00  0.00    +0.000 C 
BRANCH  12  13
ATOM     13  C   UNL     1       5.148   4.071  16.741  0.00  0.00    +0.000 A 
ATOM     14  N   UNL     1       4.753   4.114  15.480  0.00  0.00    +0.000 NA
ATOM     15  C   UNL     1       5.812   4.450  14.664  0.00  0.00    +0.000 A 
ATOM     16  C   UNL     1       7.016   4.658  15.304  0.00  0.00    +0.000 A 
ATOM     17  S   UNL     1       6.818   4.428  16.992  0.00  0.00    +0.000 S 
ENDBRANCH  12  13
ENDBRANCH   7  12
ENDBRANCH   1   9
BRANCH   4  18
ATOM     18  N   UNL     1       0.086  10.499  19.457  0.00  0.00    +0.000 N 
ATOM     19  H   UNL     1      -0.805  10.124  19.783  0.00  0.00    +0.000 HD
BRANCH  18  20
ATOM     20  C   UNL     1       0.536  11.576  20.357  0.00  0.00    +0.000 C 
BRANCH  20  21
ATOM     21  C   UNL     1       1.081  12.792  19.655  0.00  0.00    +0.000 A 
ATOM     22  N   UNL     1       2.242  12.836  19.027  0.00  0.00    +0.000 NA
ATOM     23  C   UNL     1       2.382  14.123  18.583  0.00  0.00    +0.000 A 
ATOM     24  C   UNL     1       3.421  14.694  17.834  0.00  0.00    +0.000 A 
ATOM     25  C   UNL     1       3.372  16.062  17.547  0.00  0.00    +0.000 A 
ATOM     26  C   UNL     1       2.318  16.848  18.013  0.00  0.00    +0.000 A 
ATOM     27  C   UNL     1       1.254  16.287  18.734  0.00  0.00    +0.000 A 
ATOM     28  C   UNL     1       1.305  14.908  18.980  0.00  0.00    +0.000 A 
ATOM     29  N   UNL     1       0.436  14.008  19.554  0.00  0.00    +0.000 N 
ATOM     30  C   UNL     1      -0.955  14.253  19.858  0.00  0.00    +0.000 C 
ENDBRANCH  20  21
ENDBRANCH  18  20
ENDBRANCH   4  18
TORSDOF 6
ENDMDL
MODEL 4
REMARK VINA RESULT:      -7.4      1.413      1.661
REMARK  Name = 
REMARK  9 active torsions:
REMARK  status: ('A' for Active; 'I' for Inactive)
REMARK    1  A    between atoms: C_1  and  C_2
REMARK    2  A    between atoms: C_2  and  C_3
REMARK    3  A    between atoms: C_2  and  N_8
REMARK    4  A    between atoms: N_8  and  C_9
REMARK    5  A    between atoms: C_10  and  C_12
REMARK    6  A    between atoms: C_15  and  N_16
REMARK    7  A    between atoms: N_16  and  C_17
REMARK    8  A    between atoms: C_17  and  C_18
REMARK    9  A    between atoms: N_26  and  C_27
REMARK                            x       y       z     vdW  Elec       q    Type
REMARK                         _______ _______ _______ _____ _____    ______ ____
ROOT
ATOM      1  C   UNL     1       2.203   7.669  18.863  0.00  0.00    +0.000 A 
ATOM      2  C   UNL     1       1.860   7.876  20.204  0.00  0.00    +0.000 A 
ATOM      3  C   UNL     1       1.021   8.939  20.570  0.00  0.00    +0.000 A 
ATOM      4  C   UNL     1       0.598   9.896  19.640  0.00  0.00    +0.000 A 
ATOM      5  C   UNL     1       0.955   9.696  18.301  0.00  0.00    +0.000 A 
ATOM      6  C   UNL     1       1.760   8.608  17.920  0.00  0.00    +0.000 A 
ENDROOT
BRANCH   1   9
ATOM      7  N   UNL     1       3.076   5.291  19.025  0.00  0.00    +0.000 N 
ATOM      8  C   UNL     1       2.249   4.933  20.169  0.00  0.00    +0.000 C 
ATOM      9  C   UNL     1       3.070   6.539  18.386  0.00  0.00    +0.000 C 
ATOM     10  O   UNL     1       3.758   6.764  17.389  0.00  0.00    +0.000 OA
BRANCH   7  12
ATOM     11  C   UNL     1       3.633   3.846  17.066  0.00  0.00    +0.000 C 
ATOM     12  C   UNL     1       3.998   4.251  18.499  0.00  0.00    +0.000 C 
BRANCH  12  13
ATOM     13  C   UNL     1       5.438   4.737  18.578  0.00  0.00    +0.000 A 
ATOM     14  N   UNL     1       6.009   5.232  19.663  0.00  0.00    +0.000 NA
ATOM     15  C   UNL     1       7.328   5.542  19.403  0.00  0.00    +0.000 A 
ATOM     16  C   UNL     1       7.758   5.288  18.118  0.00  0.00    +0.000 A 
ATOM     17  S   UNL     1       6.469   4.632  17.197  0.00  0.00    +0.000 S 
ENDBRANCH  12  13
ENDBRANCH   7  12
ENDBRANCH   1   9
BRANCH   4  18
ATOM     18  N   UNL     1      -0.234  10.944  20.080  0.00  0.00    +0.000 N 
ATOM     19  H   UNL     1       0.246  11.477  20.806  0.00  0.00    +0.000 HD
BRANCH  18  20
ATOM     20  C   UNL     1      -0.749  11.856  19.045  0.00  0.00    +0.000 C 
BRANCH  20  21
ATOM     21  C   UNL     1      -2.252  11.918  18.957  0.00  0.00    +0.000 A 
ATOM     22  N   UNL     1      -3.032  12.483  19.860  0.00  0.00    +0.000 NA
ATOM     23  C   UNL     1      -4.316  12.271  19.435  0.00  0.00    +0.000 A 
ATOM     24  C   UNL     1      -5.521  12.691  20.015  0.00  0.00    +0.000 A 
ATOM     25  C   UNL     1      -6.727  12.299  19.423  0.00  0.00    +0.000 A 
ATOM     26  C   UNL     1      -6.729  11.489  18.287  0.00  0.00    +0.000 A 
ATOM     27  C   UNL     1      -5.532  11.089  17.674  0.00  0.00    +0.000 A 
ATOM     28  C   UNL     1      -4.337  11.523  18.263  0.00  0.00    +0.000 A 
ATOM     29  N   UNL     1      -3.008  11.417  17.917  0.00  0.00    +0.000 N 
ATOM     30  C   UNL     1      -2.502  10.996  16.631  0.00  0.00    +0.000 C 
ENDBRANCH  20  21
ENDBRANCH  18  20
ENDBRANCH   4  18
TORSDOF 6
ENDMDL
MODEL 5
REMARK VINA RESULT:      -7.3      3.842     10.022
REMARK  Name = 
REMARK  9 active torsions:
REMARK  status: ('A' for Active; 'I' for Inactive)
REMARK    1  A    between atoms: C_1  and  C_2
REMARK    2  A    between atoms: C_2  and  C_3
REMARK    3  A    between atoms: C_2  and  N_8
REMARK    4  A    between atoms: N_8  and  C_9
REMARK    5  A    between atoms: C_10  and  C_12
REMARK    6  A    between atoms: C_15  and  N_16
REMARK    7  A    between atoms: N_16  and  C_17
REMARK    8  A    between atoms: C_17  and  C_18
REMARK    9  A    between atoms: N_26  and  C_27
REMARK                            x       y       z     vdW  Elec       q    Type
REMARK                         _______ _______ _______ _____ _____    ______ ____
ROOT
ATOM      1  C   UNL     1       0.728  10.137  19.513  0.00  0.00    +0.000 A 
ATOM      2  C   UNL     1       1.576   9.350  18.727  0.00  0.00    +0.000 A 
ATOM      3  C   UNL     1       2.000   8.091  19.175  0.00  0.00    +0.000 A 
ATOM      4  C   UNL     1       1.696   7.627  20.461  0.00  0.00    +0.000 A 
ATOM      5  C   UNL     1       0.860   8.422  21.252  0.00  0.00    +0.000 A 
ATOM      6  C   UNL     1       0.395   9.668  20.793  0.00  0.00    +0.000 A 
ENDROOT
BRANCH   1   9
ATOM      7  N   UNL     1       0.699  12.672  19.646  0.00  0.00    +0.000 N 
ATOM      8  C   UNL     1       1.765  12.757  20.636  0.00  0.00    +0.000 C 
ATOM      9  C   UNL     1       0.206  11.482  19.094  0.00  0.00    +0.000 C 
ATOM     10  O   UNL     1      -0.664  11.480  18.221  0.00  0.00    +0.000 OA
BRANCH   7  12
ATOM     11  C   UNL     1      -1.067  14.377  20.104  0.00  0.00    +0.000 C 
ATOM     12  C   UNL     1       0.089  13.949  19.192  0.00  0.00    +0.000 C 
BRANCH  12  13
ATOM     13  C   UNL     1       1.149  15.037  19.107  0.00  0.00    +0.000 A 
ATOM     14  N   UNL     1       1.111  16.181  19.769  0.00  0.00    +0.000 NA
ATOM     15  C   UNL     1       2.240  16.924  19.493  0.00  0.00    +0.000 A 
ATOM     16  C   UNL     1       3.134  16.347  18.617  0.00  0.00    +0.000 A 
ATOM     17  S   UNL     1       2.546  14.814  18.118  0.00  0.00    +0.000 S 
ENDBRANCH  12  13
ENDBRANCH   7  12
ENDBRANCH   1   9
BRANCH   4  18
ATOM     18  N   UNL     1       2.166   6.357  20.849  0.00  0.00    +0.000 N 
ATOM     19  H   UNL     1       1.696   6.067  21.706  0.00  0.00    +0.000 HD
BRANCH  18  20
ATOM     20  C   UNL     1       2.077   5.285  19.841  0.00  0.00    +0.000 C 
BRANCH  20  21
ATOM     21  C   UNL     1       3.357   5.026  19.089  0.00  0.00    +0.000 A 
ATOM     22  N   UNL     1       4.554   5.409  19.494  0.00  0.00    +0.000 NA
ATOM     23  C   UNL     1       5.424   5.033  18.507  0.00  0.00    +0.000 A 
ATOM     24  C   UNL     1       6.818   5.176  18.453  0.00  0.00    +0.000 A 
ATOM     25  C   UNL     1       7.494   4.763  17.300  0.00  0.00    +0.000 A 
ATOM     26  C   UNL     1       6.791   4.236  16.216  0.00  0.00    +0.000 A 
ATOM     27  C   UNL     1       5.402   4.053  16.267  0.00  0.00    +0.000 A 
ATOM     28  C   UNL     1       4.749   4.440  17.445  0.00  0.00    +0.000 A 
ATOM     29  N   UNL     1       3.452   4.339  17.896  0.00  0.00    +0.000 N 
ATOM     30  C   UNL     1       2.413   3.531  17.302  0.00  0.00    +0.000 C 
ENDBRANCH  20  21
ENDBRANCH  18  20
ENDBRANCH   4  18
TORSDOF 6
ENDMDL
MODEL 6
REMARK VINA RESULT:      -7.3      3.339     10.330
REMARK  Name = 
REMARK  9 active torsions:
REMARK  status: ('A' for Active; 'I' for Inactive)
REMARK    1  A    between atoms: C_1  and  C_2
REMARK    2  A    between atoms: C_2  and  C_3
REMARK    3  A    between atoms: C_2  and  N_8
REMARK    4  A    between atoms: N_8  and  C_9
REMARK    5  A    between atoms: C_10  and  C_12
REMARK    6  A    between atoms: C_15  and  N_16
REMARK    7  A    between atoms: N_16  and  C_17
REMARK    8  A    between atoms: C_17  and  C_18
REMARK    9  A    between atoms: N_26  and  C_27
REMARK                            x       y       z     vdW  Elec       q    Type
REMARK                         _______ _______ _______ _____ _____    ______ ____
ROOT
ATOM      1  C   UNL     1       1.172   9.199  20.197  0.00  0.00    +0.000 A 
ATOM      2  C   UNL     1       1.888   8.799  19.063  0.00  0.00    +0.000 A 
ATOM      3  C   UNL     1       2.248   7.455  18.883  0.00  0.00    +0.000 A 
ATOM      4  C   UNL     1       2.017   6.493  19.874  0.00  0.00    +0.000 A 
ATOM      5  C   UNL     1       1.314   6.898  21.014  0.00  0.00    +0.000 A 
ATOM      6  C   UNL     1       0.912   8.235  21.182  0.00  0.00    +0.000 A 
ENDROOT
BRANCH   1   9
ATOM      7  N   UNL     1      -0.366  11.172  19.769  0.00  0.00    +0.000 N 
ATOM      8  C   UNL     1      -1.193  10.475  18.793  0.00  0.00    +0.000 C 
ATOM      9  C   UNL     1       0.724  10.610  20.449  0.00  0.00    +0.000 C 
ATOM     10  O   UNL     1       1.354  11.238  21.302  0.00  0.00    +0.000 OA
BRANCH   7  12
ATOM     11  C   UNL     1      -0.733  13.437  18.785  0.00  0.00    +0.000 C 
ATOM     12  C   UNL     1      -0.706  12.589  20.062  0.00  0.00    +0.000 C 
BRANCH  12  13
ATOM     13  C   UNL     1      -2.034  12.669  20.800  0.00  0.00    +0.000 A 
ATOM     14  N   UNL     1      -3.193  12.967  20.238  0.00  0.00    +0.000 NA
ATOM     15  C   UNL     1      -4.200  12.920  21.178  0.00  0.00    +0.000 A 
ATOM     16  C   UNL     1      -3.806  12.591  22.458  0.00  0.00    +0.000 A 
ATOM     17  S   UNL     1      -2.112  12.327  22.490  0.00  0.00    +0.000 S 
ENDBRANCH  12  13
ENDBRANCH   7  12
ENDBRANCH   1   9
BRANCH   4  18
ATOM     18  N   UNL     1       2.417   5.164  19.631  0.00  0.00    +0.000 N 
ATOM     19  H   UNL     1       2.106   4.880  18.702  0.00  0.00    +0.000 HD
BRANCH  18  20
ATOM     20  C   UNL     1       3.850   4.866  19.795  0.00  0.00    +0.000 C 
BRANCH  20  21
ATOM     21  C   UNL     1       4.615   4.737  18.502  0.00  0.00    +0.000 A 
ATOM     22  N   UNL     1       5.587   5.547  18.124  0.00  0.00    +0.000 NA
ATOM     23  C   UNL     1       5.968   5.122  16.881  0.00  0.00    +0.000 A 
ATOM     24  C   UNL     1       6.981   5.618  16.047  0.00  0.00    +0.000 A 
ATOM     25  C   UNL     1       7.148   5.051  14.779  0.00  0.00    +0.000 A 
ATOM     26  C   UNL     1       6.310   4.023  14.345  0.00  0.00    +0.000 A 
ATOM     27  C   UNL     1       5.316   3.492  15.179  0.00  0.00    +0.000 A 
ATOM     28  C   UNL     1       5.189   4.050  16.458  0.00  0.00    +0.000 A 
ATOM     29  N   UNL     1       4.418   3.750  17.559  0.00  0.00    +0.000 N 
ATOM     30  C   UNL     1       3.658   2.537  17.751  0.00  0.00    +0.000 C 
ENDBRANCH  20  21
ENDBRANCH  18  20
ENDBRANCH   4  18
TORSDOF 6
ENDMDL
MODEL 7
REMARK VINA RESULT:      -7.3      1.347      1.560
REMARK  Name = 
REMARK  9 active torsions:
REMARK  status: ('A' for Active; 'I' for Inactive)
REMARK    1  A    between atoms: C_1  and  C_2
REMARK    2  A    between atoms: C_2  and  C_3
REMARK    3  A    between atoms: C_2  and  N_8
REMARK    4  A    between atoms: N_8  and  C_9
REMARK    5  A    between atoms: C_10  and  C_12
REMARK    6  A    between atoms: C_15  and  N_16
REMARK    7  A    between atoms: N_16  and  C_17
REMARK    8  A    between atoms: C_17  and  C_18
REMARK    9  A    between atoms: N_26  and  C_27
REMARK                            x       y       z     vdW  Elec       q    Type
REMARK                         _______ _______ _______ _____ _____    ______ ____
ROOT
ATOM      1  C   UNL     1       1.827   7.883  19.659  0.00  0.00    +0.000 A 
ATOM      2  C   UNL     1       1.385   8.438  20.865  0.00  0.00    +0.000 A 
ATOM      3  C   UNL     1       0.813   9.719  20.894  0.00  0.00    +0.000 A 
ATOM      4  C   UNL     1       0.772  10.532  19.756  0.00  0.00    +0.000 A 
ATOM      5  C   UNL     1       1.228   9.981  18.553  0.00  0.00    +0.000 A 
ATOM      6  C   UNL     1       1.763   8.681  18.507  0.00  0.00    +0.000 A 
ENDROOT
BRANCH   1   9
ATOM      7  N   UNL     1       3.332   6.185  18.523  0.00  0.00    +0.000 N 
ATOM      8  C   UNL     1       3.825   7.111  17.513  0.00  0.00    +0.000 C 
ATOM      9  C   UNL     1       2.422   6.510  19.538  0.00  0.00    +0.000 C 
ATOM     10  O   UNL     1       2.082   5.691  20.395  0.00  0.00    +0.000 OA
BRANCH   7  12
ATOM     11  C   UNL     1       3.005   3.929  17.502  0.00  0.00    +0.000 C 
ATOM     12  C   UNL     1       3.833   4.787  18.466  0.00  0.00    +0.000 C 
BRANCH  12  13
ATOM     13  C   UNL     1       5.305   4.771  18.083  0.00  0.00    +0.000 A 
ATOM     14  N   UNL     1       5.779   4.358  16.920  0.00  0.00    +0.000 NA
ATOM     15  C   UNL     1       7.149   4.509  16.887  0.00  0.00    +0.000 A 
ATOM     16  C   UNL     1       7.719   5.032  18.029  0.00  0.00    +0.000 A 
ATOM     17  S   UNL     1       6.497   5.351  19.189  0.00  0.00    +0.000 S 
ENDBRANCH  12  13
ENDBRANCH   7  12
ENDBRANCH   1   9
BRANCH   4  18
ATOM     18  N   UNL     1       0.194  11.813  19.861  0.00  0.00    +0.000 N 
ATOM     19  H   UNL     1       0.913  12.491  20.113  0.00  0.00    +0.000 HD
BRANCH  18  20
ATOM     20  C   UNL     1      -0.562  12.293  18.691  0.00  0.00    +0.000 C 
BRANCH  20  21
ATOM     21  C   UNL     1      -2.058  12.153  18.812  0.00  0.00    +0.000 A 
ATOM     22  N   UNL     1      -2.774  12.622  19.817  0.00  0.00    +0.000 NA
ATOM     23  C   UNL     1      -4.064  12.235  19.573  0.00  0.00    +0.000 A 
ATOM     24  C   UNL     1      -5.224  12.500  20.315  0.00  0.00    +0.000 A 
ATOM     25  C   UNL     1      -6.436  11.943  19.894  0.00  0.00    +0.000 A 
ATOM     26  C   UNL     1      -6.486  11.123  18.766  0.00  0.00    +0.000 A 
ATOM     27  C   UNL     1      -5.343  10.877  17.992  0.00  0.00    +0.000 A 
ATOM     28  C   UNL     1      -4.147  11.474  18.412  0.00  0.00    +0.000 A 
ATOM     29  N   UNL     1      -2.876  11.541  17.884  0.00  0.00    +0.000 N 
ATOM     30  C   UNL     1      -2.500  11.172  16.540  0.00  0.00    +0.000 C 
ENDBRANCH  20  21
ENDBRANCH  18  20
ENDBRANCH   4  18
TORSDOF 6
ENDMDL
MODEL 8
REMARK VINA RESULT:      -7.3      2.359      2.788
REMARK  Name = 
REMARK  9 active torsions:
REMARK  status: ('A' for Active; 'I' for Inactive)
REMARK    1  A    between atoms: C_1  and  C_2
REMARK    2  A    between atoms: C_2  and  C_3
REMARK    3  A    between atoms: C_2  and  N_8
REMARK    4  A    between atoms: N_8  and  C_9
REMARK    5  A    between atoms: C_10  and  C_12
REMARK    6  A    between atoms: C_15  and  N_16
REMARK    7  A    between atoms: N_16  and  C_17
REMARK    8  A    between atoms: C_17  and  C_18
REMARK    9  A    between atoms: N_26  and  C_27
REMARK                            x       y       z     vdW  Elec       q    Type
REMARK                         _______ _______ _______ _____ _____    ______ ____
ROOT
ATOM      1  C   UNL     1       2.539   6.972  19.436  0.00  0.00    +0.000 A 
ATOM      2  C   UNL     1       1.824   7.197  20.618  0.00  0.00    +0.000 A 
ATOM      3  C   UNL     1       0.963   8.298  20.732  0.00  0.00    +0.000 A 
ATOM      4  C   UNL     1       0.877   9.272  19.730  0.00  0.00    +0.000 A 
ATOM      5  C   UNL     1       1.603   9.053  18.554  0.00  0.00    +0.000 A 
ATOM      6  C   UNL     1       2.436   7.928  18.415  0.00  0.00    +0.000 A 
ENDROOT
BRANCH   1   9
ATOM      7  N   UNL     1       3.064   4.681  18.480  0.00  0.00    +0.000 N 
ATOM      8  C   UNL     1       1.778   4.525  17.815  0.00  0.00    +0.000 C 
ATOM      9  C   UNL     1       3.457   5.803  19.223  0.00  0.00    +0.000 C 
ATOM     10  O   UNL     1       4.581   5.894  19.720  0.00  0.00    +0.000 OA
BRANCH   7  12
ATOM     11  C   UNL     1       3.390   2.328  17.711  0.00  0.00    +0.000 C 
ATOM     12  C   UNL     1       4.032   3.559  18.360  0.00  0.00    +0.000 C 
BRANCH  12  13
ATOM     13  C   UNL     1       5.262   4.006  17.585  0.00  0.00    +0.000 A 
ATOM     14  N   UNL     1       6.471   4.145  18.102  0.00  0.00    +0.000 NA
ATOM     15  C   UNL     1       7.362   4.530  17.122  0.00  0.00    +0.000 A 
ATOM     16  C   UNL     1       6.830   4.690  15.861  0.00  0.00    +0.000 A 
ATOM     17  S   UNL     1       5.150   4.343  15.896  0.00  0.00    +0.000 S 
ENDBRANCH  12  13
ENDBRANCH   7  12
ENDBRANCH   1   9
BRANCH   4  18
ATOM     18  N   UNL     1      -0.000  10.358  19.917  0.00  0.00    +0.000 N 
ATOM     19  H   UNL     1      -0.965  10.027  19.883  0.00  0.00    +0.000 HD
BRANCH  18  20
ATOM     20  C   UNL     1       0.209  11.174  21.127  0.00  0.00    +0.000 C 
BRANCH  20  21
ATOM     21  C   UNL     1      -1.048  11.772  21.703  0.00  0.00    +0.000 A 
ATOM     22  N   UNL     1      -1.546  11.470  22.888  0.00  0.00    +0.000 NA
ATOM     23  C   UNL     1      -2.710  12.181  23.000  0.00  0.00    +0.000 A 
ATOM     24  C   UNL     1      -3.609  12.244  24.074  0.00  0.00    +0.000 A 
ATOM     25  C   UNL     1      -4.775  13.004  23.933  0.00  0.00    +0.000 A 
ATOM     26  C   UNL     1      -5.047  13.673  22.739  0.00  0.00    +0.000 A 
ATOM     27  C   UNL     1      -4.141  13.649  21.668  0.00  0.00    +0.000 A 
ATOM     28  C   UNL     1      -2.963  12.911  21.844  0.00  0.00    +0.000 A 
ATOM     29  N   UNL     1      -1.829  12.727  21.084  0.00  0.00    +0.000 N 
ATOM     30  C   UNL     1      -1.453  13.505  19.927  0.00  0.00    +0.000 C 
ENDBRANCH  20  21
ENDBRANCH  18  20
ENDBRANCH   4  18
TORSDOF 6
ENDMDL
MODEL 9
REMARK VINA RESULT:      -7.3      3.687     10.282
REMARK  Name = 
REMARK  9 active torsions:
REMARK  status: ('A' for Active; 'I' for Inactive)
REMARK    1  A    between atoms: C_1  and  C_2
REMARK    2  A    between atoms: C_2  and  C_3
REMARK    3  A    between atoms: C_2  and  N_8
REMARK    4  A    between atoms: N_8  and  C_9
REMARK    5  A    between atoms: C_10  and  C_12
REMARK    6  A    between atoms: C_15  and  N_16
REMARK    7  A    between atoms: N_16  and  C_17
REMARK    8  A    between atoms: C_17  and  C_18
REMARK    9  A    between atoms: N_26  and  C_27
REMARK                            x       y       z     vdW  Elec       q    Type
REMARK                         _______ _______ _______ _____ _____    ______ ____
ROOT
ATOM      1  C   UNL     1      -1.186  10.831  19.201  0.00  0.00    +0.000 A 
ATOM      2  C   UNL     1      -0.727  10.266  20.396  0.00  0.00    +0.000 A 
ATOM      3  C   UNL     1       0.443   9.492  20.416  0.00  0.00    +0.000 A 
ATOM      4  C   UNL     1       1.123   9.156  19.240  0.00  0.00    +0.000 A 
ATOM      5  C   UNL     1       0.654   9.710  18.044  0.00  0.00    +0.000 A 
ATOM      6  C   UNL     1      -0.494  10.522  18.021  0.00  0.00    +0.000 A 
ENDROOT
BRANCH   1   9
ATOM      7  N   UNL     1      -3.556  11.275  18.409  0.00  0.00    +0.000 N 
ATOM      8  C   UNL     1      -3.714   9.983  17.755  0.00  0.00    +0.000 C 
ATOM      9  C   UNL     1      -2.411  11.694  19.100  0.00  0.00    +0.000 C 
ATOM     10  O   UNL     1      -2.359  12.783  19.676  0.00  0.00    +0.000 OA
BRANCH   7  12
ATOM     11  C   UNL     1      -5.391  12.162  16.965  0.00  0.00    +0.000 C 
ATOM     12  C   UNL     1      -4.701  12.220  18.334  0.00  0.00    +0.000 C 
BRANCH  12  13
ATOM     13  C   UNL     1      -5.690  11.938  19.455  0.00  0.00    +0.000 A 
ATOM     14  N   UNL     1      -5.673  12.522  20.641  0.00  0.00    +0.000 NA
ATOM     15  C   UNL     1      -6.725  12.067  21.408  0.00  0.00    +0.000 A 
ATOM     16  C   UNL     1      -7.540  11.131  20.806  0.00  0.00    +0.000 A 
ATOM     17  S   UNL     1      -6.974  10.808  19.220  0.00  0.00    +0.000 S 
ENDBRANCH  12  13
ENDBRANCH   7  12
ENDBRANCH   1   9
BRANCH   4  18
ATOM     18  N   UNL     1       2.285   8.365  19.335  0.00  0.00    +0.000 N 
ATOM     19  H   UNL     1       2.148   7.642  20.042  0.00  0.00    +0.000 HD
BRANCH  18  20
ATOM     20  C   UNL     1       2.772   7.758  18.084  0.00  0.00    +0.000 C 
BRANCH  20  21
ATOM     21  C   UNL     1       2.756   6.251  18.071  0.00  0.00    +0.000 A 
ATOM     22  N   UNL     1       1.776   5.510  18.553  0.00  0.00    +0.000 NA
ATOM     23  C   UNL     1       2.176   4.210  18.400  0.00  0.00    +0.000 A 
ATOM     24  C   UNL     1       1.492   3.029  18.721  0.00  0.00    +0.000 A 
ATOM     25  C   UNL     1       2.136   1.802  18.525  0.00  0.00    +0.000 A 
ATOM     26  C   UNL     1       3.442   1.757  18.036  0.00  0.00    +0.000 A 
ATOM     27  C   UNL     1       4.128   2.926  17.677  0.00  0.00    +0.000 A 
ATOM     28  C   UNL     1       3.450   4.141  17.848  0.00  0.00    +0.000 A 
ATOM     29  N   UNL     1       3.745   5.450  17.537  0.00  0.00    +0.000 N 
ATOM     30  C   UNL     1       4.816   5.893  16.675  0.00  0.00    +0.000 C 
ENDBRANCH  20  21
ENDBRANCH  18  20
ENDBRANCH   4  18
TORSDOF 6
ENDMDL
