MODEL 1
REMARK VINA RESULT:      -7.2      0.000      0.000
REMARK  Name = 
REMARK  11 active torsions:
REMARK  status: ('A' for Active; 'I' for Inactive)
REMARK    1  A    between atoms: C_1  and  C_2
REMARK    2  A    between atoms: C_3  and  C_4
REMARK    3  A    between atoms: N_10  and  C_11
REMARK    4  A    between atoms: C_11  and  C_12
REMARK    5  A    between atoms: C_12  and  C_13
REMARK    6  A    between atoms: C_13  and  C_14
REMARK    7  A    between atoms: C_14  and  C_15
REMARK    8  A    between atoms: C_15  and  C_16
REMARK    9  A    between atoms: C_16  and  C_17
REMARK   10  A    between atoms: C_17  and  C_18
REMARK   11  A    between atoms: C_18  and  O_20
REMARK                            x       y       z     vdW  Elec       q    Type
REMARK                         _______ _______ _______ _____ _____    ______ ____
ROOT
ATOM      1  C   UNL     1       4.064   1.423  17.745  0.00  0.00    +0.000 C 
ATOM      2  C   UNL     1       3.759   2.828  18.153  0.00  0.00    +0.000 A 
ATOM      3  C   UNL     1       4.306   4.029  17.679  0.00  0.00    +0.000 A 
ATOM      4  N   UNL     1       3.701   5.041  18.424  0.00  0.00    +0.000 N 
ATOM      5  C   UNL     1       2.778   4.517  19.321  0.00  0.00    +0.000 A 
ATOM      6  C   UNL     1       1.925   5.140  20.256  0.00  0.00    +0.000 A 
ATOM      7  C   UNL     1       1.077   4.336  21.025  0.00  0.00    +0.000 A 
ATOM      8  C   UNL     1       1.075   2.956  20.875  0.00  0.00    +0.000 A 
ATOM      9  C   UNL     1       1.926   2.348  19.949  0.00  0.00    +0.000 A 
ATOM     10  C   UNL     1       2.791   3.139  19.159  0.00  0.00    +0.000 A 
ENDROOT
BRANCH   3  11
ATOM     11  C   UNL     1       5.323   4.214  16.610  0.00  0.00    +0.000 A 
ATOM     12  C   UNL     1       5.036   4.126  15.245  0.00  0.00    +0.000 A 
ATOM     13  C   UNL     1       6.010   4.380  14.280  0.00  0.00    +0.000 A 
ATOM     14  C   UNL     1       7.268   4.758  14.703  0.00  0.00    +0.000 A 
ATOM     15  N   UNL     1       7.612   4.844  16.000  0.00  0.00    +0.000 NA
ATOM     16  C   UNL     1       6.643   4.552  16.910  0.00  0.00    +0.000 A 
ENDBRANCH   3  11
BRANCH   4  17
ATOM     17  C   UNL     1       3.874   6.483  18.267  0.00  0.00    +0.000 C 
BRANCH  17  18
ATOM     18  C   UNL     1       2.716   7.149  17.508  0.00  0.00    +0.000 C 
BRANCH  18  19
ATOM     19  C   UNL     1       2.593   8.647  17.808  0.00  0.00    +0.000 C 
BRANCH  19  20
ATOM     20  C   UNL     1       1.486   8.908  18.822  0.00  0.00    +0.000 C 
BRANCH  20  21
ATOM     21  C   UNL     1       0.527  10.009  18.384  0.00  0.00    +0.000 C 
BRANCH  21  22
ATOM     22  C   UNL     1      -0.592  10.154  19.420  0.00  0.00    +0.000 C 
BRANCH  22  23
ATOM     23  C   UNL     1      -1.203  11.545  19.395  0.00  0.00    +0.000 C 
BRANCH  23  24
ATOM     24  C   UNL     1      -1.726  11.900  18.026  0.00  0.00    +0.000 C 
ATOM     25  O   UNL     1      -2.660  11.350  17.453  0.00  0.00    +0.000 OA
BRANCH  24  26
ATOM     26  O   UNL     1      -1.034  12.920  17.463  0.00  0.00    +0.000 OA
ATOM     27  H   UNL     1      -0.218  13.148  17.948  0.00  0.00    +0.000 HD
ENDBRANCH  24  26
ENDBRANCH  23  24
ENDBRANCH  22  23
ENDBRANCH  21  22
ENDBRANCH  20  21
ENDBRANCH  19  20
ENDBRANCH  18  19
ENDBRANCH  17  18
ENDBRANCH   4  17
TORSDOF 10
ENDMDL
MODEL 2
REMARK VINA RESULT:      -7.1      2.108      2.331
REMARK  Name = 
REMARK  11 active torsions:
REMARK  status: ('A' for Active; 'I' for Inactive)
REMARK    1  A    between atoms: C_1  and  C_2
REMARK    2  A    between atoms: C_3  and  C_4
REMARK    3  A    between atoms: N_10  and  C_11
REMARK    4  A    between atoms: C_11  and  C_12
REMARK    5  A    between atoms: C_12  and  C_13
REMARK    6  A    between atoms: C_13  and  C_14
REMARK    7  A    between atoms: C_14  and  C_15
REMARK    8  A    between atoms: C_15  and  C_16
REMARK    9  A    between atoms: C_16  and  C_17
REMARK   10  A    between atoms: C_17  and  C_18
REMARK   11  A    between atoms: C_18  and  O_20
REMARK                            x       y       z     vdW  Elec       q    Type
REMARK                         _______ _______ _______ _____ _____    ______ ____
ROOT
ATOM      1  C   UNL     1       4.038   1.697  17.638  0.00  0.00    +0.000 C 
ATOM      2  C   UNL     1       3.737   3.125  17.957  0.00  0.00    +0.000 A 
ATOM      3  C   UNL     1       4.272   4.293  17.393  0.00  0.00    +0.000 A 
ATOM      4  N   UNL     1       3.680   5.352  18.081  0.00  0.00    +0.000 N 
ATOM      5  C   UNL     1       2.777   4.888  19.029  0.00  0.00    +0.000 A 
ATOM      6  C   UNL     1       1.940   5.571  19.937  0.00  0.00    +0.000 A 
ATOM      7  C   UNL     1       1.110   4.819  20.775  0.00  0.00    +0.000 A 
ATOM      8  C   UNL     1       1.108   3.433  20.718  0.00  0.00    +0.000 A 
ATOM      9  C   UNL     1       1.942   2.765  19.818  0.00  0.00    +0.000 A 
ATOM     10  C   UNL     1       2.789   3.502  18.960  0.00  0.00    +0.000 A 
ENDROOT
BRANCH   3  11
ATOM     11  C   UNL     1       5.267   4.407  16.294  0.00  0.00    +0.000 A 
ATOM     12  C   UNL     1       5.038   3.953  14.993  0.00  0.00    +0.000 A 
ATOM     13  C   UNL     1       5.976   4.150  13.979  0.00  0.00    +0.000 A 
ATOM     14  C   UNL     1       7.132   4.839  14.281  0.00  0.00    +0.000 A 
ATOM     15  N   UNL     1       7.420   5.286  15.516  0.00  0.00    +0.000 NA
ATOM     16  C   UNL     1       6.495   5.042  16.485  0.00  0.00    +0.000 A 
ENDBRANCH   3  11
BRANCH   4  17
ATOM     17  C   UNL     1       3.847   6.780  17.825  0.00  0.00    +0.000 C 
BRANCH  17  18
ATOM     18  C   UNL     1       2.772   7.642  18.507  0.00  0.00    +0.000 C 
BRANCH  18  19
ATOM     19  C   UNL     1       2.224   8.742  17.590  0.00  0.00    +0.000 C 
BRANCH  19  20
ATOM     20  C   UNL     1       0.969   9.369  18.187  0.00  0.00    +0.000 C 
BRANCH  20  21
ATOM     21  C   UNL     1       1.113   9.687  19.671  0.00  0.00    +0.000 C 
BRANCH  21  22
ATOM     22  C   UNL     1      -0.267   9.653  20.336  0.00  0.00    +0.000 C 
BRANCH  22  23
ATOM     23  C   UNL     1      -0.255   8.823  21.609  0.00  0.00    +0.000 C 
BRANCH  23  24
ATOM     24  C   UNL     1      -0.201   9.691  22.840  0.00  0.00    +0.000 C 
ATOM     25  O   UNL     1      -1.097  10.431  23.234  0.00  0.00    +0.000 OA
BRANCH  24  26
ATOM     26  O   UNL     1       0.980   9.578  23.495  0.00  0.00    +0.000 OA
ATOM     27  H   UNL     1       1.723  10.006  23.027  0.00  0.00    +0.000 HD
ENDBRANCH  24  26
ENDBRANCH  23  24
ENDBRANCH  22  23
ENDBRANCH  21  22
ENDBRANCH  20  21
ENDBRANCH  19  20
ENDBRANCH  18  19
ENDBRANCH  17  18
ENDBRANCH   4  17
TORSDOF 10
ENDMDL
MODEL 3
REMARK VINA RESULT:      -7.0      1.392      4.550
REMARK  Name = 
REMARK  11 active torsions:
REMARK  status: ('A' for Active; 'I' for Inactive)
REMARK    1  A    between atoms: C_1  and  C_2
REMARK    2  A    between atoms: C_3  and  C_4
REMARK    3  A    between atoms: N_10  and  C_11
REMARK    4  A    between atoms: C_11  and  C_12
REMARK    5  A    between atoms: C_12  and  C_13
REMARK    6  A    between atoms: C_13  and  C_14
REMARK    7  A    between atoms: C_14  and  C_15
REMARK    8  A    between atoms: C_15  and  C_16
REMARK    9  A    between atoms: C_16  and  C_17
REMARK   10  A    between atoms: C_17  and  C_18
REMARK   11  A    between atoms: C_18  and  O_20
REMARK                            x       y       z     vdW  Elec       q    Type
REMARK                         _______ _______ _______ _____ _____    ______ ____
ROOT
ATOM      1  C   UNL     1       3.870   1.701  17.321  0.00  0.00    +0.000 C 
ATOM      2  C   UNL     1       3.959   3.183  17.489  0.00  0.00    +0.000 A 
ATOM      3  C   UNL     1       3.428   3.996  18.501  0.00  0.00    +0.000 A 
ATOM      4  N   UNL     1       3.768   5.304  18.155  0.00  0.00    +0.000 N 
ATOM      5  C   UNL     1       4.515   5.332  16.984  0.00  0.00    +0.000 A 
ATOM      6  C   UNL     1       5.090   6.401  16.266  0.00  0.00    +0.000 A 
ATOM      7  C   UNL     1       5.816   6.114  15.106  0.00  0.00    +0.000 A 
ATOM      8  C   UNL     1       5.968   4.806  14.668  0.00  0.00    +0.000 A 
ATOM      9  C   UNL     1       5.392   3.753  15.383  0.00  0.00    +0.000 A 
ATOM     10  C   UNL     1       4.655   4.018  16.559  0.00  0.00    +0.000 A 
ENDROOT
BRANCH   3  11
ATOM     11  C   UNL     1       2.655   3.579  19.701  0.00  0.00    +0.000 A 
ATOM     12  C   UNL     1       1.259   3.510  19.737  0.00  0.00    +0.000 A 
ATOM     13  C   UNL     1       0.584   3.043  20.865  0.00  0.00    +0.000 A 
ATOM     14  C   UNL     1       1.330   2.613  21.943  0.00  0.00    +0.000 A 
ATOM     15  N   UNL     1       2.673   2.671  21.978  0.00  0.00    +0.000 NA
ATOM     16  C   UNL     1       3.292   3.167  20.872  0.00  0.00    +0.000 A 
ENDBRANCH   3  11
BRANCH   4  17
ATOM     17  C   UNL     1       3.511   6.521  18.922  0.00  0.00    +0.000 C 
BRANCH  17  18
ATOM     18  C   UNL     1       2.214   7.232  18.502  0.00  0.00    +0.000 C 
BRANCH  18  19
ATOM     19  C   UNL     1       2.472   8.514  17.703  0.00  0.00    +0.000 C 
BRANCH  19  20
ATOM     20  C   UNL     1       1.529   9.627  18.144  0.00  0.00    +0.000 C 
BRANCH  20  21
ATOM     21  C   UNL     1       0.930   9.384  19.525  0.00  0.00    +0.000 C 
BRANCH  21  22
ATOM     22  C   UNL     1      -0.417  10.105  19.632  0.00  0.00    +0.000 C 
BRANCH  22  23
ATOM     23  C   UNL     1      -1.080  10.260  18.273  0.00  0.00    +0.000 C 
BRANCH  23  24
ATOM     24  C   UNL     1      -1.534  11.677  18.033  0.00  0.00    +0.000 C 
ATOM     25  O   UNL     1      -1.704  12.530  18.897  0.00  0.00    +0.000 OA
BRANCH  24  26
ATOM     26  O   UNL     1      -1.751  11.930  16.719  0.00  0.00    +0.000 OA
ATOM     27  H   UNL     1      -2.696  11.909  16.473  0.00  0.00    +0.000 HD
ENDBRANCH  24  26
ENDBRANCH  23  24
ENDBRANCH  22  23
ENDBRANCH  21  22
ENDBRANCH  20  21
ENDBRANCH  19  20
ENDBRANCH  18  19
ENDBRANCH  17  18
ENDBRANCH   4  17
TORSDOF 10
ENDMDL
MODEL 4
REMARK VINA RESULT:      -6.9      1.615      1.740
REMARK  Name = 
REMARK  11 active torsions:
REMARK  status: ('A' for Active; 'I' for Inactive)
REMARK    1  A    between atoms: C_1  and  C_2
REMARK    2  A    between atoms: C_3  and  C_4
REMARK    3  A    between atoms: N_10  and  C_11
REMARK    4  A    between atoms: C_11  and  C_12
REMARK    5  A    between atoms: C_12  and  C_13
REMARK    6  A    between atoms: C_13  and  C_14
REMARK    7  A    between atoms: C_14  and  C_15
REMARK    8  A    between atoms: C_15  and  C_16
REMARK    9  A    between atoms: C_16  and  C_17
REMARK   10  A    between atoms: C_17  and  C_18
REMARK   11  A    between atoms: C_18  and  O_20
REMARK                            x       y       z     vdW  Elec       q    Type
REMARK                         _______ _______ _______ _____ _____    ______ ____
ROOT
ATOM      1  C   UNL     1       3.748   1.407  17.364  0.00  0.00    +0.000 C 
ATOM      2  C   UNL     1       3.653   2.769  17.972  0.00  0.00    +0.000 A 
ATOM      3  C   UNL     1       4.327   3.947  17.620  0.00  0.00    +0.000 A 
ATOM      4  N   UNL     1       3.902   4.914  18.531  0.00  0.00    +0.000 N 
ATOM      5  C   UNL     1       2.969   4.389  19.416  0.00  0.00    +0.000 A 
ATOM      6  C   UNL     1       2.257   4.976  20.483  0.00  0.00    +0.000 A 
ATOM      7  C   UNL     1       1.354   4.185  21.201  0.00  0.00    +0.000 A 
ATOM      8  C   UNL     1       1.163   2.850  20.874  0.00  0.00    +0.000 A 
ATOM      9  C   UNL     1       1.875   2.275  19.818  0.00  0.00    +0.000 A 
ATOM     10  C   UNL     1       2.792   3.054  19.077  0.00  0.00    +0.000 A 
ENDROOT
BRANCH   3  11
ATOM     11  C   UNL     1       5.299   4.152  16.513  0.00  0.00    +0.000 A 
ATOM     12  C   UNL     1       4.960   4.068  15.160  0.00  0.00    +0.000 A 
ATOM     13  C   UNL     1       5.893   4.341  14.159  0.00  0.00    +0.000 A 
ATOM     14  C   UNL     1       7.161   4.732  14.535  0.00  0.00    +0.000 A 
ATOM     15  N   UNL     1       7.555   4.815  15.818  0.00  0.00    +0.000 NA
ATOM     16  C   UNL     1       6.625   4.506  16.764  0.00  0.00    +0.000 A 
ENDBRANCH   3  11
BRANCH   4  17
ATOM     17  C   UNL     1       4.254   6.331  18.551  0.00  0.00    +0.000 C 
BRANCH  17  18
ATOM     18  C   UNL     1       3.267   7.208  17.764  0.00  0.00    +0.000 C 
BRANCH  18  19
ATOM     19  C   UNL     1       2.467   8.156  18.665  0.00  0.00    +0.000 C 
BRANCH  19  20
ATOM     20  C   UNL     1       1.419   8.914  17.858  0.00  0.00    +0.000 C 
BRANCH  20  21
ATOM     21  C   UNL     1       0.885  10.142  18.586  0.00  0.00    +0.000 C 
BRANCH  21  22
ATOM     22  C   UNL     1       0.812   9.854  20.089  0.00  0.00    +0.000 C 
BRANCH  22  23
ATOM     23  C   UNL     1       0.815  11.135  20.907  0.00  0.00    +0.000 C 
BRANCH  23  24
ATOM     24  C   UNL     1      -0.460  11.295  21.696  0.00  0.00    +0.000 C 
ATOM     25  O   UNL     1      -1.547  11.632  21.238  0.00  0.00    +0.000 OA
BRANCH  24  26
ATOM     26  O   UNL     1      -0.285  11.028  23.012  0.00  0.00    +0.000 OA
ATOM     27  H   UNL     1      -0.328  11.824  23.577  0.00  0.00    +0.000 HD
ENDBRANCH  24  26
ENDBRANCH  23  24
ENDBRANCH  22  23
ENDBRANCH  21  22
ENDBRANCH  20  21
ENDBRANCH  19  20
ENDBRANCH  18  19
ENDBRANCH  17  18
ENDBRANCH   4  17
TORSDOF 10
ENDMDL
MODEL 5
REMARK VINA RESULT:      -6.8      0.834      1.133
REMARK  Name = 
REMARK  11 active torsions:
REMARK  status: ('A' for Active; 'I' for Inactive)
REMARK    1  A    between atoms: C_1  and  C_2
REMARK    2  A    between atoms: C_3  and  C_4
REMARK    3  A    between atoms: N_10  and  C_11
REMARK    4  A    between atoms: C_11  and  C_12
REMARK    5  A    between atoms: C_12  and  C_13
REMARK    6  A    between atoms: C_13  and  C_14
REMARK    7  A    between atoms: C_14  and  C_15
REMARK    8  A    between atoms: C_15  and  C_16
REMARK    9  A    between atoms: C_16  and  C_17
REMARK   10  A    between atoms: C_17  and  C_18
REMARK   11  A    between atoms: C_18  and  O_20
REMARK                            x       y       z     vdW  Elec       q    Type
REMARK                         _______ _______ _______ _____ _____    ______ ____
ROOT
ATOM      1  C   UNL     1       4.017   1.596  17.608  0.00  0.00    +0.000 C 
ATOM      2  C   UNL     1       3.702   2.972  18.099  0.00  0.00    +0.000 A 
ATOM      3  C   UNL     1       4.233   4.204  17.690  0.00  0.00    +0.000 A 
ATOM      4  N   UNL     1       3.627   5.166  18.498  0.00  0.00    +0.000 N 
ATOM      5  C   UNL     1       2.719   4.582  19.372  0.00  0.00    +0.000 A 
ATOM      6  C   UNL     1       1.869   5.141  20.350  0.00  0.00    +0.000 A 
ATOM      7  C   UNL     1       1.037   4.286  21.080  0.00  0.00    +0.000 A 
ATOM      8  C   UNL     1       1.046   2.917  20.851  0.00  0.00    +0.000 A 
ATOM      9  C   UNL     1       1.893   2.372  19.883  0.00  0.00    +0.000 A 
ATOM     10  C   UNL     1       2.743   3.215  19.132  0.00  0.00    +0.000 A 
ENDROOT
BRANCH   3  11
ATOM     11  C   UNL     1       5.237   4.461  16.623  0.00  0.00    +0.000 A 
ATOM     12  C   UNL     1       6.585   4.729  16.877  0.00  0.00    +0.000 A 
ATOM     13  C   UNL     1       7.501   4.891  15.839  0.00  0.00    +0.000 A 
ATOM     14  C   UNL     1       7.054   4.747  14.542  0.00  0.00    +0.000 A 
ATOM     15  N   UNL     1       5.768   4.507  14.230  0.00  0.00    +0.000 NA
ATOM     16  C   UNL     1       4.899   4.392  15.272  0.00  0.00    +0.000 A 
ENDBRANCH   3  11
BRANCH   4  17
ATOM     17  C   UNL     1       3.785   6.616  18.423  0.00  0.00    +0.000 C 
BRANCH  17  18
ATOM     18  C   UNL     1       2.591   7.318  17.757  0.00  0.00    +0.000 C 
BRANCH  18  19
ATOM     19  C   UNL     1       1.956   8.388  18.652  0.00  0.00    +0.000 C 
BRANCH  19  20
ATOM     20  C   UNL     1       1.808   9.706  17.900  0.00  0.00    +0.000 C 
BRANCH  20  21
ATOM     21  C   UNL     1       1.086  10.774  18.712  0.00  0.00    +0.000 C 
BRANCH  21  22
ATOM     22  C   UNL     1      -0.121  10.149  19.420  0.00  0.00    +0.000 C 
BRANCH  22  23
ATOM     23  C   UNL     1      -1.412  10.870  19.071  0.00  0.00    +0.000 C 
BRANCH  23  24
ATOM     24  C   UNL     1      -1.652  10.893  17.583  0.00  0.00    +0.000 C 
ATOM     25  O   UNL     1      -1.796   9.909  16.866  0.00  0.00    +0.000 OA
BRANCH  24  26
ATOM     26  O   UNL     1      -1.690  12.155  17.090  0.00  0.00    +0.000 OA
ATOM     27  H   UNL     1      -1.536  12.840  17.769  0.00  0.00    +0.000 HD
ENDBRANCH  24  26
ENDBRANCH  23  24
ENDBRANCH  22  23
ENDBRANCH  21  22
ENDBRANCH  20  21
ENDBRANCH  19  20
ENDBRANCH  18  19
ENDBRANCH  17  18
ENDBRANCH   4  17
TORSDOF 10
ENDMDL
MODEL 6
REMARK VINA RESULT:      -6.7      2.313      5.533
REMARK  Name = 
REMARK  11 active torsions:
REMARK  status: ('A' for Active; 'I' for Inactive)
REMARK    1  A    between atoms: C_1  and  C_2
REMARK    2  A    between atoms: C_3  and  C_4
REMARK    3  A    between atoms: N_10  and  C_11
REMARK    4  A    between atoms: C_11  and  C_12
REMARK    5  A    between atoms: C_12  and  C_13
REMARK    6  A    between atoms: C_13  and  C_14
REMARK    7  A    between atoms: C_14  and  C_15
REMARK    8  A    between atoms: C_15  and  C_16
REMARK    9  A    between atoms: C_16  and  C_17
REMARK   10  A    between atoms: C_17  and  C_18
REMARK   11  A    between atoms: C_18  and  O_20
REMARK                            x       y       z     vdW  Elec       q    Type
REMARK                         _______ _______ _______ _____ _____    ______ ____
ROOT
ATOM      1  C   UNL     1       2.051   4.753  21.188  0.00  0.00    +0.000 C 
ATOM      2  C   UNL     1       2.421   5.718  20.108  0.00  0.00    +0.000 A 
ATOM      3  C   UNL     1       2.097   7.077  19.982  0.00  0.00    +0.000 A 
ATOM      4  N   UNL     1       2.657   7.490  18.774  0.00  0.00    +0.000 N 
ATOM      5  C   UNL     1       3.341   6.448  18.159  0.00  0.00    +0.000 A 
ATOM      6  C   UNL     1       4.069   6.390  16.952  0.00  0.00    +0.000 A 
ATOM      7  C   UNL     1       4.674   5.180  16.594  0.00  0.00    +0.000 A 
ATOM      8  C   UNL     1       4.560   4.060  17.406  0.00  0.00    +0.000 A 
ATOM      9  C   UNL     1       3.834   4.126  18.598  0.00  0.00    +0.000 A 
ATOM     10  C   UNL     1       3.215   5.337  18.982  0.00  0.00    +0.000 A 
ENDROOT
BRANCH   3  11
ATOM     11  C   UNL     1       1.317   7.925  20.923  0.00  0.00    +0.000 A 
ATOM     12  C   UNL     1      -0.067   7.826  21.088  0.00  0.00    +0.000 A 
ATOM     13  C   UNL     1      -0.742   8.594  22.036  0.00  0.00    +0.000 A 
ATOM     14  C   UNL     1      -0.005   9.438  22.841  0.00  0.00    +0.000 A 
ATOM     15  N   UNL     1       1.326   9.593  22.720  0.00  0.00    +0.000 NA
ATOM     16  C   UNL     1       1.942   8.852  21.758  0.00  0.00    +0.000 A 
ENDBRANCH   3  11
BRANCH   4  17
ATOM     17  C   UNL     1       2.666   8.839  18.214  0.00  0.00    +0.000 C 
BRANCH  17  18
ATOM     18  C   UNL     1       1.256   9.378  17.923  0.00  0.00    +0.000 C 
BRANCH  18  19
ATOM     19  C   UNL     1       1.057  10.815  18.417  0.00  0.00    +0.000 C 
BRANCH  19  20
ATOM     20  C   UNL     1      -0.190  10.922  19.287  0.00  0.00    +0.000 C 
BRANCH  20  21
ATOM     21  C   UNL     1      -1.420  11.373  18.507  0.00  0.00    +0.000 C 
BRANCH  21  22
ATOM     22  C   UNL     1      -2.335  10.170  18.255  0.00  0.00    +0.000 C 
BRANCH  22  23
ATOM     23  C   UNL     1      -2.594   9.963  16.771  0.00  0.00    +0.000 C 
BRANCH  23  24
ATOM     24  C   UNL     1      -3.618  10.935  16.244  0.00  0.00    +0.000 C 
ATOM     25  O   UNL     1      -4.671  11.235  16.797  0.00  0.00    +0.000 OA
BRANCH  24  26
ATOM     26  O   UNL     1      -3.257  11.462  15.049  0.00  0.00    +0.000 OA
ATOM     27  H   UNL     1      -2.434  11.987  15.092  0.00  0.00    +0.000 HD
ENDBRANCH  24  26
ENDBRANCH  23  24
ENDBRANCH  22  23
ENDBRANCH  21  22
ENDBRANCH  20  21
ENDBRANCH  19  20
ENDBRANCH  18  19
ENDBRANCH  17  18
ENDBRANCH   4  17
TORSDOF 10
ENDMDL
MODEL 7
REMARK VINA RESULT:      -6.7      1.447      1.712
REMARK  Name = 
REMARK  11 active torsions:
REMARK  status: ('A' for Active; 'I' for Inactive)
REMARK    1  A    between atoms: C_1  and  C_2
REMARK    2  A    between atoms: C_3  and  C_4
REMARK    3  A    between atoms: N_10  and  C_11
REMARK    4  A    between atoms: C_11  and  C_12
REMARK    5  A    between atoms: C_12  and  C_13
REMARK    6  A    between atoms: C_13  and  C_14
REMARK    7  A    between atoms: C_14  and  C_15
REMARK    8  A    between atoms: C_15  and  C_16
REMARK    9  A    between atoms: C_16  and  C_17
REMARK   10  A    between atoms: C_17  and  C_18
REMARK   11  A    between atoms: C_18  and  O_20
REMARK                            x       y       z     vdW  Elec       q    Type
REMARK                         _______ _______ _______ _____ _____    ______ ____
ROOT
ATOM      1  C   UNL     1       4.072   1.419  17.767  0.00  0.00    +0.000 C 
ATOM      2  C   UNL     1       3.771   2.814  18.209  0.00  0.00    +0.000 A 
ATOM      3  C   UNL     1       4.303   4.027  17.746  0.00  0.00    +0.000 A 
ATOM      4  N   UNL     1       3.713   5.022  18.524  0.00  0.00    +0.000 N 
ATOM      5  C   UNL     1       2.813   4.477  19.432  0.00  0.00    +0.000 A 
ATOM      6  C   UNL     1       1.980   5.079  20.399  0.00  0.00    +0.000 A 
ATOM      7  C   UNL     1       1.153   4.257  21.172  0.00  0.00    +0.000 A 
ATOM      8  C   UNL     1       1.152   2.880  20.995  0.00  0.00    +0.000 A 
ATOM      9  C   UNL     1       1.983   2.294  20.038  0.00  0.00    +0.000 A 
ATOM     10  C   UNL     1       2.827   3.102  19.244  0.00  0.00    +0.000 A 
ENDROOT
BRANCH   3  11
ATOM     11  C   UNL     1       5.294   4.237  16.657  0.00  0.00    +0.000 A 
ATOM     12  C   UNL     1       4.973   4.188  15.298  0.00  0.00    +0.000 A 
ATOM     13  C   UNL     1       5.924   4.464  14.316  0.00  0.00    +0.000 A 
ATOM     14  C   UNL     1       7.194   4.823  14.717  0.00  0.00    +0.000 A 
ATOM     15  N   UNL     1       7.571   4.871  16.007  0.00  0.00    +0.000 NA
ATOM     16  C   UNL     1       6.623   4.559  16.933  0.00  0.00    +0.000 A 
ENDBRANCH   3  11
BRANCH   4  17
ATOM     17  C   UNL     1       3.878   6.468  18.392  0.00  0.00    +0.000 C 
BRANCH  17  18
ATOM     18  C   UNL     1       2.755   7.128  17.577  0.00  0.00    +0.000 C 
BRANCH  18  19
ATOM     19  C   UNL     1       2.753   8.656  17.699  0.00  0.00    +0.000 C 
BRANCH  19  20
ATOM     20  C   UNL     1       1.370   9.167  18.089  0.00  0.00    +0.000 C 
BRANCH  20  21
ATOM     21  C   UNL     1       1.159   9.210  19.598  0.00  0.00    +0.000 C 
BRANCH  21  22
ATOM     22  C   UNL     1       0.592  10.577  19.996  0.00  0.00    +0.000 C 
BRANCH  22  23
ATOM     23  C   UNL     1       1.241  11.704  19.209  0.00  0.00    +0.000 C 
BRANCH  23  24
ATOM     24  C   UNL     1       1.536  12.896  20.084  0.00  0.00    +0.000 C 
ATOM     25  O   UNL     1       2.144  12.869  21.149  0.00  0.00    +0.000 OA
BRANCH  24  26
ATOM     26  O   UNL     1       1.040  14.046  19.566  0.00  0.00    +0.000 OA
ATOM     27  H   UNL     1       0.379  13.899  18.862  0.00  0.00    +0.000 HD
ENDBRANCH  24  26
ENDBRANCH  23  24
ENDBRANCH  22  23
ENDBRANCH  21  22
ENDBRANCH  20  21
ENDBRANCH  19  20
ENDBRANCH  18  19
ENDBRANCH  17  18
ENDBRANCH   4  17
TORSDOF 10
ENDMDL
MODEL 8
REMARK VINA RESULT:      -6.6      1.828      2.186
REMARK  Name = 
REMARK  11 active torsions:
REMARK  status: ('A' for Active; 'I' for Inactive)
REMARK    1  A    between atoms: C_1  and  C_2
REMARK    2  A    between atoms: C_3  and  C_4
REMARK    3  A    between atoms: N_10  and  C_11
REMARK    4  A    between atoms: C_11  and  C_12
REMARK    5  A    between atoms: C_12  and  C_13
REMARK    6  A    between atoms: C_13  and  C_14
REMARK    7  A    between atoms: C_14  and  C_15
REMARK    8  A    between atoms: C_15  and  C_16
REMARK    9  A    between atoms: C_16  and  C_17
REMARK   10  A    between atoms: C_17  and  C_18
REMARK   11  A    between atoms: C_18  and  O_20
REMARK                            x       y       z     vdW  Elec       q    Type
REMARK                         _______ _______ _______ _____ _____    ______ ____
ROOT
ATOM      1  C   UNL     1       3.913   1.526  17.459  0.00  0.00    +0.000 C 
ATOM      2  C   UNL     1       3.745   2.866  18.098  0.00  0.00    +0.000 A 
ATOM      3  C   UNL     1       4.353   4.087  17.773  0.00  0.00    +0.000 A 
ATOM      4  N   UNL     1       3.878   5.008  18.706  0.00  0.00    +0.000 N 
ATOM      5  C   UNL     1       2.977   4.413  19.580  0.00  0.00    +0.000 A 
ATOM      6  C   UNL     1       2.237   4.936  20.661  0.00  0.00    +0.000 A 
ATOM      7  C   UNL     1       1.380   4.080  21.361  0.00  0.00    +0.000 A 
ATOM      8  C   UNL     1       1.260   2.744  21.003  0.00  0.00    +0.000 A 
ATOM      9  C   UNL     1       2.000   2.234  19.934  0.00  0.00    +0.000 A 
ATOM     10  C   UNL     1       2.872   3.079  19.210  0.00  0.00    +0.000 A 
ENDROOT
BRANCH   3  11
ATOM     11  C   UNL     1       5.311   4.370  16.670  0.00  0.00    +0.000 A 
ATOM     12  C   UNL     1       6.676   4.590  16.869  0.00  0.00    +0.000 A 
ATOM     13  C   UNL     1       7.546   4.779  15.795  0.00  0.00    +0.000 A 
ATOM     14  C   UNL     1       7.032   4.710  14.516  0.00  0.00    +0.000 A 
ATOM     15  N   UNL     1       5.726   4.520  14.259  0.00  0.00    +0.000 NA
ATOM     16  C   UNL     1       4.905   4.376  15.336  0.00  0.00    +0.000 A 
ENDBRANCH   3  11
BRANCH   4  17
ATOM     17  C   UNL     1       4.154   6.442  18.759  0.00  0.00    +0.000 C 
BRANCH  17  18
ATOM     18  C   UNL     1       3.350   7.247  17.725  0.00  0.00    +0.000 C 
BRANCH  18  19
ATOM     19  C   UNL     1       1.996   7.722  18.265  0.00  0.00    +0.000 C 
BRANCH  19  20
ATOM     20  C   UNL     1       1.659   9.111  17.737  0.00  0.00    +0.000 C 
BRANCH  20  21
ATOM     21  C   UNL     1       1.487  10.141  18.847  0.00  0.00    +0.000 C 
BRANCH  21  22
ATOM     22  C   UNL     1       0.012  10.207  19.259  0.00  0.00    +0.000 C 
BRANCH  22  23
ATOM     23  C   UNL     1      -0.219   9.572  20.620  0.00  0.00    +0.000 C 
BRANCH  23  24
ATOM     24  C   UNL     1       0.642  10.206  21.684  0.00  0.00    +0.000 C 
ATOM     25  O   UNL     1       1.491   9.629  22.355  0.00  0.00    +0.000 OA
BRANCH  24  26
ATOM     26  O   UNL     1       0.376  11.525  21.839  0.00  0.00    +0.000 OA
ATOM     27  H   UNL     1       0.152  11.768  22.758  0.00  0.00    +0.000 HD
ENDBRANCH  24  26
ENDBRANCH  23  24
ENDBRANCH  22  23
ENDBRANCH  21  22
ENDBRANCH  20  21
ENDBRANCH  19  20
ENDBRANCH  18  19
ENDBRANCH  17  18
ENDBRANCH   4  17
TORSDOF 10
ENDMDL
MODEL 9
REMARK VINA RESULT:      -6.6      2.312      2.780
REMARK  Name = 
REMARK  11 active torsions:
REMARK  status: ('A' for Active; 'I' for Inactive)
REMARK    1  A    between atoms: C_1  and  C_2
REMARK    2  A    between atoms: C_3  and  C_4
REMARK    3  A    between atoms: N_10  and  C_11
REMARK    4  A    between atoms: C_11  and  C_12
REMARK    5  A    between atoms: C_12  and  C_13
REMARK    6  A    between atoms: C_13  and  C_14
REMARK    7  A    between atoms: C_14  and  C_15
REMARK    8  A    between atoms: C_15  and  C_16
REMARK    9  A    between atoms: C_16  and  C_17
REMARK   10  A    between atoms: C_17  and  C_18
REMARK   11  A    between atoms: C_18  and  O_20
REMARK                            x       y       z     vdW  Elec       q    Type
REMARK                         _______ _______ _______ _____ _____    ______ ____
ROOT
ATOM      1  C   UNL     1       5.159   3.041  16.615  0.00  0.00    +0.000 C 
ATOM      2  C   UNL     1       4.348   3.785  17.626  0.00  0.00    +0.000 A 
ATOM      3  C   UNL     1       4.630   4.996  18.274  0.00  0.00    +0.000 A 
ATOM      4  N   UNL     1       3.565   5.218  19.146  0.00  0.00    +0.000 N 
ATOM      5  C   UNL     1       2.618   4.206  19.043  0.00  0.00    +0.000 A 
ATOM      6  C   UNL     1       1.385   4.008  19.700  0.00  0.00    +0.000 A 
ATOM      7  C   UNL     1       0.626   2.881  19.371  0.00  0.00    +0.000 A 
ATOM      8  C   UNL     1       1.074   1.974  18.421  0.00  0.00    +0.000 A 
ATOM      9  C   UNL     1       2.298   2.176  17.778  0.00  0.00    +0.000 A 
ATOM     10  C   UNL     1       3.082   3.308  18.092  0.00  0.00    +0.000 A 
ENDROOT
BRANCH   3  11
ATOM     11  C   UNL     1       5.813   5.879  18.092  0.00  0.00    +0.000 A 
ATOM     12  C   UNL     1       5.855   6.939  17.182  0.00  0.00    +0.000 A 
ATOM     13  C   UNL     1       6.962   7.783  17.100  0.00  0.00    +0.000 A 
ATOM     14  C   UNL     1       8.013   7.571  17.969  0.00  0.00    +0.000 A 
ATOM     15  N   UNL     1       8.042   6.560  18.854  0.00  0.00    +0.000 NA
ATOM     16  C   UNL     1       6.957   5.736  18.877  0.00  0.00    +0.000 A 
ENDBRANCH   3  11
BRANCH   4  17
ATOM     17  C   UNL     1       3.343   6.382  20.000  0.00  0.00    +0.000 C 
BRANCH  17  18
ATOM     18  C   UNL     1       2.195   7.278  19.510  0.00  0.00    +0.000 C 
BRANCH  18  19
ATOM     19  C   UNL     1       2.536   8.024  18.215  0.00  0.00    +0.000 C 
BRANCH  19  20
ATOM     20  C   UNL     1       1.432   9.011  17.851  0.00  0.00    +0.000 C 
BRANCH  20  21
ATOM     21  C   UNL     1       1.710  10.423  18.354  0.00  0.00    +0.000 C 
BRANCH  21  22
ATOM     22  C   UNL     1       0.430  11.011  18.958  0.00  0.00    +0.000 C 
BRANCH  22  23
ATOM     23  C   UNL     1      -0.052  10.199  20.149  0.00  0.00    +0.000 C 
BRANCH  23  24
ATOM     24  C   UNL     1       0.457  10.764  21.451  0.00  0.00    +0.000 C 
ATOM     25  O   UNL     1       0.190  11.873  21.903  0.00  0.00    +0.000 OA
BRANCH  24  26
ATOM     26  O   UNL     1       1.274   9.900  22.100  0.00  0.00    +0.000 OA
ATOM     27  H   UNL     1       1.797  10.321  22.809  0.00  0.00    +0.000 HD
ENDBRANCH  24  26
ENDBRANCH  23  24
ENDBRANCH  22  23
ENDBRANCH  21  22
ENDBRANCH  20  21
ENDBRANCH  19  20
ENDBRANCH  18  19
ENDBRANCH  17  18
ENDBRANCH   4  17
TORSDOF 10
ENDMDL
