MODEL 1
REMARK VINA RESULT:      -8.9      0.000      0.000
REMARK  Name = 
REMARK  4 active torsions:
REMARK  status: ('A' for Active; 'I' for Inactive)
REMARK    1  A    between atoms: S_2  and  C_4
REMARK    2  A    between atoms: S_2  and  N_18
REMARK    3  A    between atoms: C_7  and  C_8
REMARK    4  A    between atoms: C_11  and  C_12
REMARK                            x       y       z     vdW  Elec       q    Type
REMARK                         _______ _______ _______ _____ _____    ______ ____
ROOT
ATOM      1  C   UNL     1       2.951   5.432  18.925  0.00  0.00    +0.000 A 
ATOM      2  C   UNL     1       2.808   6.661  18.255  0.00  0.00    +0.000 A 
ATOM      3  C   UNL     1       2.195   7.768  18.898  0.00  0.00    +0.000 A 
ATOM      4  C   UNL     1       1.693   7.662  20.207  0.00  0.00    +0.000 A 
ATOM      5  C   UNL     1       1.729   6.390  20.799  0.00  0.00    +0.000 A 
ATOM      6  C   UNL     1       2.340   5.288  20.169  0.00  0.00    +0.000 A 
ENDROOT
BRANCH   4   7
ATOM      7  C   UNL     1       1.210   8.828  20.957  0.00  0.00    +0.000 A 
ATOM      8  C   UNL     1       0.980   9.137  22.288  0.00  0.00    +0.000 A 
ATOM      9  N   UNL     1       0.383  10.370  22.406  0.00  0.00    +0.000 NA
ATOM     10  C   UNL     1       0.255  10.792  21.163  0.00  0.00    +0.000 A 
ATOM     11  O   UNL     1       0.762   9.918  20.229  0.00  0.00    +0.000 OA
BRANCH  10  12
ATOM     12  C   UNL     1      -0.451  12.118  20.854  0.00  0.00    +0.000 C 
ATOM     13  C   UNL     1      -0.636  12.579  19.423  0.00  0.00    +0.000 C 
ATOM     14  C   UNL     1      -1.814  12.089  20.191  0.00  0.00    +0.000 C 
ENDBRANCH  10  12
ENDBRANCH   4   7
BRANCH   1  16
ATOM     15  O   UNL     1       3.827   2.958  19.112  0.00  0.00    +0.000 OA
ATOM     16  S   UNL     1       3.628   3.969  18.097  0.00  0.00    +0.000 S 
ATOM     17  O   UNL     1       2.731   3.713  16.979  0.00  0.00    +0.000 OA
BRANCH  16  18
ATOM     18  N   UNL     1       5.130   4.373  17.413  0.00  0.00    +0.000 N 
ATOM     19  C   UNL     1       5.307   4.077  15.977  0.00  0.00    +0.000 C 
ATOM     20  C   UNL     1       5.786   5.309  15.195  0.00  0.00    +0.000 C 
ATOM     21  O   UNL     1       5.504   6.562  15.848  0.00  0.00    +0.000 OA
ATOM     22  C   UNL     1       6.183   6.539  17.045  0.00  0.00    +0.000 A 
ATOM     23  C   UNL     1       7.180   7.479  17.259  0.00  0.00    +0.000 A 
ATOM     24  C   UNL     1       8.097   7.276  18.287  0.00  0.00    +0.000 A 
ATOM     25  C   UNL     1       7.965   6.156  19.116  0.00  0.00    +0.000 A 
ATOM     26  C   UNL     1       6.899   5.247  18.944  0.00  0.00    +0.000 A 
ATOM     27  C   UNL     1       5.993   5.430  17.892  0.00  0.00    +0.000 A 
ENDBRANCH  16  18
ENDBRANCH   1  16
TORSDOF 4
ENDMDL
MODEL 2
REMARK VINA RESULT:      -8.8      1.108      1.593
REMARK  Name = 
REMARK  4 active torsions:
REMARK  status: ('A' for Active; 'I' for Inactive)
REMARK    1  A    between atoms: S_2  and  C_4
REMARK    2  A    between atoms: S_2  and  N_18
REMARK    3  A    between atoms: C_7  and  C_8
REMARK    4  A    between atoms: C_11  and  C_12
REMARK                            x       y       z     vdW  Elec       q    Type
REMARK                         _______ _______ _______ _____ _____    ______ ____
ROOT
ATOM      1  C   UNL     1       2.691   5.824  18.651  0.00  0.00    +0.000 A 
ATOM      2  C   UNL     1       2.355   6.152  19.978  0.00  0.00    +0.000 A 
ATOM      3  C   UNL     1       1.830   7.430  20.296  0.00  0.00    +0.000 A 
ATOM      4  C   UNL     1       1.654   8.412  19.304  0.00  0.00    +0.000 A 
ATOM      5  C   UNL     1       2.121   8.104  18.017  0.00  0.00    +0.000 A 
ATOM      6  C   UNL     1       2.639   6.835  17.693  0.00  0.00    +0.000 A 
ENDROOT
BRANCH   4   7
ATOM      7  C   UNL     1       0.958   9.677  19.570  0.00  0.00    +0.000 A 
ATOM      8  C   UNL     1       0.842  10.551  20.639  0.00  0.00    +0.000 A 
ATOM      9  N   UNL     1      -0.074  11.539  20.364  0.00  0.00    +0.000 NA
ATOM     10  C   UNL     1      -0.503  11.258  19.148  0.00  0.00    +0.000 A 
ATOM     11  O   UNL     1       0.101  10.155  18.591  0.00  0.00    +0.000 OA
BRANCH  10  12
ATOM     12  C   UNL     1      -1.612  12.093  18.497  0.00  0.00    +0.000 C 
ATOM     13  C   UNL     1      -2.384  11.558  17.309  0.00  0.00    +0.000 C 
ATOM     14  C   UNL     1      -3.053  11.641  18.637  0.00  0.00    +0.000 C 
ENDBRANCH  10  12
ENDBRANCH   4   7
BRANCH   1  16
ATOM     15  O   UNL     1       3.657   3.515  19.462  0.00  0.00    +0.000 OA
ATOM     16  S   UNL     1       3.466   4.242  18.226  0.00  0.00    +0.000 S 
ATOM     17  O   UNL     1       2.635   3.680  17.171  0.00  0.00    +0.000 OA
BRANCH  16  18
ATOM     18  N   UNL     1       4.982   4.547  17.521  0.00  0.00    +0.000 N 
ATOM     19  C   UNL     1       5.117   4.246  16.082  0.00  0.00    +0.000 C 
ATOM     20  C   UNL     1       5.666   5.446  15.296  0.00  0.00    +0.000 C 
ATOM     21  O   UNL     1       5.479   6.712  15.958  0.00  0.00    +0.000 OA
ATOM     22  C   UNL     1       6.173   6.639  17.144  0.00  0.00    +0.000 A 
ATOM     23  C   UNL     1       7.234   7.508  17.346  0.00  0.00    +0.000 A 
ATOM     24  C   UNL     1       8.151   7.240  18.359  0.00  0.00    +0.000 A 
ATOM     25  C   UNL     1       7.955   6.128  19.187  0.00  0.00    +0.000 A 
ATOM     26  C   UNL     1       6.828   5.293  19.027  0.00  0.00    +0.000 A 
ATOM     27  C   UNL     1       5.921   5.541  17.990  0.00  0.00    +0.000 A 
ENDBRANCH  16  18
ENDBRANCH   1  16
TORSDOF 4
ENDMDL
MODEL 3
REMARK VINA RESULT:      -8.7      1.094      1.319
REMARK  Name = 
REMARK  4 active torsions:
REMARK  status: ('A' for Active; 'I' for Inactive)
REMARK    1  A    between atoms: S_2  and  C_4
REMARK    2  A    between atoms: S_2  and  N_18
REMARK    3  A    between atoms: C_7  and  C_8
REMARK    4  A    between atoms: C_11  and  C_12
REMARK                            x       y       z     vdW  Elec       q    Type
REMARK                         _______ _______ _______ _____ _____    ______ ____
ROOT
ATOM      1  C   UNL     1       2.726   5.999  18.890  0.00  0.00    +0.000 A 
ATOM      2  C   UNL     1       2.553   7.071  17.995  0.00  0.00    +0.000 A 
ATOM      3  C   UNL     1       1.933   8.275  18.420  0.00  0.00    +0.000 A 
ATOM      4  C   UNL     1       1.455   8.421  19.735  0.00  0.00    +0.000 A 
ATOM      5  C   UNL     1       1.521   7.291  20.564  0.00  0.00    +0.000 A 
ATOM      6  C   UNL     1       2.139   6.095  20.150  0.00  0.00    +0.000 A 
ENDROOT
BRANCH   4   7
ATOM      7  C   UNL     1       0.966   9.706  20.251  0.00  0.00    +0.000 A 
ATOM      8  C   UNL     1       1.227  11.046  20.013  0.00  0.00    +0.000 A 
ATOM      9  N   UNL     1       0.551  11.841  20.907  0.00  0.00    +0.000 NA
ATOM     10  C   UNL     1      -0.104  10.989  21.672  0.00  0.00    +0.000 A 
ATOM     11  O   UNL     1       0.078   9.673  21.315  0.00  0.00    +0.000 OA
BRANCH  10  12
ATOM     12  C   UNL     1      -0.931  11.484  22.866  0.00  0.00    +0.000 C 
ATOM     13  C   UNL     1      -1.210  12.960  23.053  0.00  0.00    +0.000 C 
ATOM     14  C   UNL     1      -2.312  12.058  22.617  0.00  0.00    +0.000 C 
ENDBRANCH  10  12
ENDBRANCH   4   7
BRANCH   1  16
ATOM     15  O   UNL     1       3.613   3.608  19.538  0.00  0.00    +0.000 OA
ATOM     16  S   UNL     1       3.413   4.410  18.352  0.00  0.00    +0.000 S 
ATOM     17  O   UNL     1       2.520   3.945  17.300  0.00  0.00    +0.000 OA
BRANCH  16  18
ATOM     18  N   UNL     1       4.915   4.687  17.607  0.00  0.00    +0.000 N 
ATOM     19  C   UNL     1       5.010   4.373  16.167  0.00  0.00    +0.000 C 
ATOM     20  C   UNL     1       5.557   5.559  15.358  0.00  0.00    +0.000 C 
ATOM     21  O   UNL     1       5.405   6.833  16.014  0.00  0.00    +0.000 OA
ATOM     22  C   UNL     1       6.127   6.758  17.183  0.00  0.00    +0.000 A 
ATOM     23  C   UNL     1       7.205   7.613  17.352  0.00  0.00    +0.000 A 
ATOM     24  C   UNL     1       8.143   7.339  18.345  0.00  0.00    +0.000 A 
ATOM     25  C   UNL     1       7.951   6.237  19.186  0.00  0.00    +0.000 A 
ATOM     26  C   UNL     1       6.808   5.418  19.061  0.00  0.00    +0.000 A 
ATOM     27  C   UNL     1       5.880   5.671  18.045  0.00  0.00    +0.000 A 
ENDBRANCH  16  18
ENDBRANCH   1  16
TORSDOF 4
ENDMDL
MODEL 4
REMARK VINA RESULT:      -8.6      1.202      1.800
REMARK  Name = 
REMARK  4 active torsions:
REMARK  status: ('A' for Active; 'I' for Inactive)
REMARK    1  A    between atoms: S_2  and  C_4
REMARK    2  A    between atoms: S_2  and  N_18
REMARK    3  A    between atoms: C_7  and  C_8
REMARK    4  A    between atoms: C_11  and  C_12
REMARK                            x       y       z     vdW  Elec       q    Type
REMARK                         _______ _______ _______ _____ _____    ______ ____
ROOT
ATOM      1  C   UNL     1       2.605   5.963  18.656  0.00  0.00    +0.000 A 
ATOM      2  C   UNL     1       2.311   6.322  19.984  0.00  0.00    +0.000 A 
ATOM      3  C   UNL     1       1.825   7.619  20.293  0.00  0.00    +0.000 A 
ATOM      4  C   UNL     1       1.648   8.587  19.287  0.00  0.00    +0.000 A 
ATOM      5  C   UNL     1       2.075   8.245  17.995  0.00  0.00    +0.000 A 
ATOM      6  C   UNL     1       2.553   6.958  17.681  0.00  0.00    +0.000 A 
ENDROOT
BRANCH   4   7
ATOM      7  C   UNL     1       0.990   9.873  19.547  0.00  0.00    +0.000 A 
ATOM      8  C   UNL     1      -0.049  10.323  20.346  0.00  0.00    +0.000 A 
ATOM      9  N   UNL     1      -0.332  11.642  20.081  0.00  0.00    +0.000 NA
ATOM     10  C   UNL     1       0.525  11.977  19.135  0.00  0.00    +0.000 A 
ATOM     11  O   UNL     1       1.380  10.959  18.780  0.00  0.00    +0.000 OA
BRANCH  10  12
ATOM     12  C   UNL     1       0.483  13.371  18.497  0.00  0.00    +0.000 C 
ATOM     13  C   UNL     1       0.238  14.601  19.345  0.00  0.00    +0.000 C 
ATOM     14  C   UNL     1       1.599  14.352  18.796  0.00  0.00    +0.000 C 
ENDBRANCH  10  12
ENDBRANCH   4   7
BRANCH   1  16
ATOM     15  O   UNL     1       3.498   3.629  19.480  0.00  0.00    +0.000 OA
ATOM     16  S   UNL     1       3.331   4.355  18.241  0.00  0.00    +0.000 S 
ATOM     17  O   UNL     1       2.483   3.813  17.189  0.00  0.00    +0.000 OA
BRANCH  16  18
ATOM     18  N   UNL     1       4.856   4.608  17.535  0.00  0.00    +0.000 N 
ATOM     19  C   UNL     1       4.978   4.308  16.094  0.00  0.00    +0.000 C 
ATOM     20  C   UNL     1       5.569   5.492  15.312  0.00  0.00    +0.000 C 
ATOM     21  O   UNL     1       5.428   6.761  15.979  0.00  0.00    +0.000 OA
ATOM     22  C   UNL     1       6.121   6.657  17.164  0.00  0.00    +0.000 A 
ATOM     23  C   UNL     1       7.212   7.487  17.368  0.00  0.00    +0.000 A 
ATOM     24  C   UNL     1       8.120   7.182  18.379  0.00  0.00    +0.000 A 
ATOM     25  C   UNL     1       7.886   6.075  19.202  0.00  0.00    +0.000 A 
ATOM     26  C   UNL     1       6.729   5.282  19.041  0.00  0.00    +0.000 A 
ATOM     27  C   UNL     1       5.831   5.566  18.007  0.00  0.00    +0.000 A 
ENDBRANCH  16  18
ENDBRANCH   1  16
TORSDOF 4
ENDMDL
MODEL 5
REMARK VINA RESULT:      -8.5      1.427      1.810
REMARK  Name = 
REMARK  4 active torsions:
REMARK  status: ('A' for Active; 'I' for Inactive)
REMARK    1  A    between atoms: S_2  and  C_4
REMARK    2  A    between atoms: S_2  and  N_18
REMARK    3  A    between atoms: C_7  and  C_8
REMARK    4  A    between atoms: C_11  and  C_12
REMARK                            x       y       z     vdW  Elec       q    Type
REMARK                         _______ _______ _______ _____ _____    ______ ____
ROOT
ATOM      1  C   UNL     1       2.599   6.405  18.799  0.00  0.00    +0.000 A 
ATOM      2  C   UNL     1       2.400   7.339  17.766  0.00  0.00    +0.000 A 
ATOM      3  C   UNL     1       1.865   8.623  18.045  0.00  0.00    +0.000 A 
ATOM      4  C   UNL     1       1.496   8.989  19.353  0.00  0.00    +0.000 A 
ATOM      5  C   UNL     1       1.581   7.993  20.337  0.00  0.00    +0.000 A 
ATOM      6  C   UNL     1       2.116   6.718  20.069  0.00  0.00    +0.000 A 
ENDROOT
BRANCH   4   7
ATOM      7  C   UNL     1       1.102  10.359  19.700  0.00  0.00    +0.000 A 
ATOM      8  C   UNL     1       0.362  10.965  20.703  0.00  0.00    +0.000 A 
ATOM      9  N   UNL     1       0.204  12.307  20.450  0.00  0.00    +0.000 NA
ATOM     10  C   UNL     1       0.838  12.502  19.310  0.00  0.00    +0.000 A 
ATOM     11  O   UNL     1       1.433  11.367  18.809  0.00  0.00    +0.000 OA
BRANCH  10  12
ATOM     12  C   UNL     1       0.828  13.878  18.633  0.00  0.00    +0.000 C 
ATOM     13  C   UNL     1       0.920  15.145  19.457  0.00  0.00    +0.000 C 
ATOM     14  C   UNL     1       2.093  14.715  18.648  0.00  0.00    +0.000 C 
ENDBRANCH  10  12
ENDBRANCH   4   7
BRANCH   1  16
ATOM     15  O   UNL     1       3.292   4.046  19.737  0.00  0.00    +0.000 OA
ATOM     16  S   UNL     1       3.176   4.720  18.463  0.00  0.00    +0.000 S 
ATOM     17  O   UNL     1       2.274   4.203  17.444  0.00  0.00    +0.000 OA
BRANCH  16  18
ATOM     18  N   UNL     1       4.711   4.802  17.737  0.00  0.00    +0.000 N 
ATOM     19  C   UNL     1       4.792   4.421  16.312  0.00  0.00    +0.000 C 
ATOM     20  C   UNL     1       5.477   5.507  15.468  0.00  0.00    +0.000 C 
ATOM     21  O   UNL     1       5.454   6.816  16.071  0.00  0.00    +0.000 OA
ATOM     22  C   UNL     1       6.147   6.711  17.256  0.00  0.00    +0.000 A 
ATOM     23  C   UNL     1       7.309   7.450  17.412  0.00  0.00    +0.000 A 
ATOM     24  C   UNL     1       8.197   7.118  18.432  0.00  0.00    +0.000 A 
ATOM     25  C   UNL     1       7.874   6.077  19.311  0.00  0.00    +0.000 A 
ATOM     26  C   UNL     1       6.651   5.382  19.197  0.00  0.00    +0.000 A 
ATOM     27  C   UNL     1       5.770   5.693  18.154  0.00  0.00    +0.000 A 
ENDBRANCH  16  18
ENDBRANCH   1  16
TORSDOF 4
ENDMDL
MODEL 6
REMARK VINA RESULT:      -8.2      3.509      7.037
REMARK  Name = 
REMARK  4 active torsions:
REMARK  status: ('A' for Active; 'I' for Inactive)
REMARK    1  A    between atoms: S_2  and  C_4
REMARK    2  A    between atoms: S_2  and  N_18
REMARK    3  A    between atoms: C_7  and  C_8
REMARK    4  A    between atoms: C_11  and  C_12
REMARK                            x       y       z     vdW  Elec       q    Type
REMARK                         _______ _______ _______ _____ _____    ______ ____
ROOT
ATOM      1  C   UNL     1       6.647   6.098  18.002  0.00  0.00    +0.000 A 
ATOM      2  C   UNL     1       7.663   6.104  18.976  0.00  0.00    +0.000 A 
ATOM      3  C   UNL     1       8.469   7.254  19.174  0.00  0.00    +0.000 A 
ATOM      4  C   UNL     1       8.294   8.408  18.389  0.00  0.00    +0.000 A 
ATOM      5  C   UNL     1       7.366   8.327  17.340  0.00  0.00    +0.000 A 
ATOM      6  C   UNL     1       6.559   7.190  17.140  0.00  0.00    +0.000 A 
ENDROOT
BRANCH   4   7
ATOM      7  C   UNL     1       8.993   9.666  18.681  0.00  0.00    +0.000 A 
ATOM      8  C   UNL     1       9.472  10.307  19.812  0.00  0.00    +0.000 A 
ATOM      9  N   UNL     1       9.936  11.563  19.502  0.00  0.00    +0.000 NA
ATOM     10  C   UNL     1       9.735  11.675  18.203  0.00  0.00    +0.000 A 
ATOM     11  O   UNL     1       9.190  10.549  17.630  0.00  0.00    +0.000 OA
BRANCH  10  12
ATOM     12  C   UNL     1      10.052  12.984  17.470  0.00  0.00    +0.000 C 
ATOM     13  C   UNL     1      11.024  13.984  18.062  0.00  0.00    +0.000 C 
ATOM     14  C   UNL     1      11.433  13.180  16.877  0.00  0.00    +0.000 C 
ENDBRANCH  10  12
ENDBRANCH   4   7
BRANCH   1  16
ATOM     15  O   UNL     1       5.952   4.234  16.281  0.00  0.00    +0.000 OA
ATOM     16  S   UNL     1       5.673   4.611  17.649  0.00  0.00    +0.000 S 
ATOM     17  O   UNL     1       5.975   3.690  18.735  0.00  0.00    +0.000 OA
BRANCH  16  18
ATOM     18  N   UNL     1       4.023   4.990  17.795  0.00  0.00    +0.000 N 
ATOM     19  C   UNL     1       3.096   3.857  17.987  0.00  0.00    +0.000 C 
ATOM     20  C   UNL     1       2.189   4.061  19.211  0.00  0.00    +0.000 C 
ATOM     21  O   UNL     1       2.711   4.997  20.174  0.00  0.00    +0.000 OA
ATOM     22  C   UNL     1       2.814   6.206  19.526  0.00  0.00    +0.000 A 
ATOM     23  C   UNL     1       2.050   7.270  19.981  0.00  0.00    +0.000 A 
ATOM     24  C   UNL     1       1.873   8.382  19.162  0.00  0.00    +0.000 A 
ATOM     25  C   UNL     1       2.512   8.427  17.917  0.00  0.00    +0.000 A 
ATOM     26  C   UNL     1       3.355   7.377  17.495  0.00  0.00    +0.000 A 
ATOM     27  C   UNL     1       3.510   6.244  18.301  0.00  0.00    +0.000 A 
ENDBRANCH  16  18
ENDBRANCH   1  16
TORSDOF 4
ENDMDL
MODEL 7
REMARK VINA RESULT:      -8.2      3.350      6.910
REMARK  Name = 
REMARK  4 active torsions:
REMARK  status: ('A' for Active; 'I' for Inactive)
REMARK    1  A    between atoms: S_2  and  C_4
REMARK    2  A    between atoms: S_2  and  N_18
REMARK    3  A    between atoms: C_7  and  C_8
REMARK    4  A    between atoms: C_11  and  C_12
REMARK                            x       y       z     vdW  Elec       q    Type
REMARK                         _______ _______ _______ _____ _____    ______ ____
ROOT
ATOM      1  C   UNL     1       6.396   5.792  17.928  0.00  0.00    +0.000 A 
ATOM      2  C   UNL     1       7.517   5.875  18.773  0.00  0.00    +0.000 A 
ATOM      3  C   UNL     1       8.266   7.077  18.865  0.00  0.00    +0.000 A 
ATOM      4  C   UNL     1       7.926   8.206  18.098  0.00  0.00    +0.000 A 
ATOM      5  C   UNL     1       6.887   8.052  17.168  0.00  0.00    +0.000 A 
ATOM      6  C   UNL     1       6.136   6.863  17.074  0.00  0.00    +0.000 A 
ENDROOT
BRANCH   4   7
ATOM      7  C   UNL     1       8.572   9.510  18.295  0.00  0.00    +0.000 A 
ATOM      8  C   UNL     1       8.876  10.606  17.505  0.00  0.00    +0.000 A 
ATOM      9  N   UNL     1       9.627  11.520  18.207  0.00  0.00    +0.000 NA
ATOM     10  C   UNL     1       9.772  10.977  19.400  0.00  0.00    +0.000 A 
ATOM     11  O   UNL     1       9.133   9.766  19.536  0.00  0.00    +0.000 OA
BRANCH  10  12
ATOM     12  C   UNL     1      10.631  11.658  20.473  0.00  0.00    +0.000 C 
ATOM     13  C   UNL     1      10.837  13.158  20.457  0.00  0.00    +0.000 C 
ATOM     14  C   UNL     1       9.958  12.553  21.495  0.00  0.00    +0.000 C 
ENDBRANCH  10  12
ENDBRANCH   4   7
BRANCH   1  16
ATOM     15  O   UNL     1       5.768   3.769  16.367  0.00  0.00    +0.000 OA
ATOM     16  S   UNL     1       5.484   4.242  17.703  0.00  0.00    +0.000 S 
ATOM     17  O   UNL     1       5.833   3.423  18.855  0.00  0.00    +0.000 OA
BRANCH  16  18
ATOM     18  N   UNL     1       3.820   4.561  17.838  0.00  0.00    +0.000 N 
ATOM     19  C   UNL     1       2.904   3.579  17.225  0.00  0.00    +0.000 C 
ATOM     20  C   UNL     1       1.838   3.094  18.219  0.00  0.00    +0.000 C 
ATOM     21  O   UNL     1       2.203   3.273  19.601  0.00  0.00    +0.000 OA
ATOM     22  C   UNL     1       2.362   4.627  19.789  0.00  0.00    +0.000 A 
ATOM     23  C   UNL     1       1.518   5.277  20.678  0.00  0.00    +0.000 A 
ATOM     24  C   UNL     1       1.426   6.665  20.637  0.00  0.00    +0.000 A 
ATOM     25  C   UNL     1       2.223   7.382  19.737  0.00  0.00    +0.000 A 
ATOM     26  C   UNL     1       3.140   6.720  18.893  0.00  0.00    +0.000 A 
ATOM     27  C   UNL     1       3.214   5.322  18.908  0.00  0.00    +0.000 A 
ENDBRANCH  16  18
ENDBRANCH   1  16
TORSDOF 4
ENDMDL
MODEL 8
REMARK VINA RESULT:      -8.0      2.655      4.387
REMARK  Name = 
REMARK  4 active torsions:
REMARK  status: ('A' for Active; 'I' for Inactive)
REMARK    1  A    between atoms: S_2  and  C_4
REMARK    2  A    between atoms: S_2  and  N_18
REMARK    3  A    between atoms: C_7  and  C_8
REMARK    4  A    between atoms: C_11  and  C_12
REMARK                            x       y       z     vdW  Elec       q    Type
REMARK                         _______ _______ _______ _____ _____    ______ ____
ROOT
ATOM      1  C   UNL     1       2.944   7.114  18.410  0.00  0.00    +0.000 A 
ATOM      2  C   UNL     1       2.417   7.304  19.700  0.00  0.00    +0.000 A 
ATOM      3  C   UNL     1       1.521   8.373  19.965  0.00  0.00    +0.000 A 
ATOM      4  C   UNL     1       1.157   9.283  18.956  0.00  0.00    +0.000 A 
ATOM      5  C   UNL     1       1.800   9.147  17.717  0.00  0.00    +0.000 A 
ATOM      6  C   UNL     1       2.686   8.086  17.445  0.00  0.00    +0.000 A 
ENDROOT
BRANCH   4   7
ATOM      7  C   UNL     1       0.107  10.290  19.153  0.00  0.00    +0.000 A 
ATOM      8  C   UNL     1      -0.216  11.223  20.126  0.00  0.00    +0.000 A 
ATOM      9  N   UNL     1      -1.418  11.826  19.843  0.00  0.00    +0.000 NA
ATOM     10  C   UNL     1      -1.811  11.260  18.718  0.00  0.00    +0.000 A 
ATOM     11  O   UNL     1      -0.920  10.336  18.224  0.00  0.00    +0.000 OA
BRANCH  10  12
ATOM     12  C   UNL     1      -3.171  11.607  18.099  0.00  0.00    +0.000 C 
ATOM     13  C   UNL     1      -3.511  11.174  16.689  0.00  0.00    +0.000 C 
ATOM     14  C   UNL     1      -4.167  10.495  17.839  0.00  0.00    +0.000 C 
ENDBRANCH  10  12
ENDBRANCH   4   7
BRANCH   1  16
ATOM     15  O   UNL     1       4.519   5.934  16.663  0.00  0.00    +0.000 OA
ATOM     16  S   UNL     1       4.174   5.828  18.063  0.00  0.00    +0.000 S 
ATOM     17  O   UNL     1       5.200   5.996  19.082  0.00  0.00    +0.000 OA
BRANCH  16  18
ATOM     18  N   UNL     1       3.471   4.307  18.348  0.00  0.00    +0.000 N 
ATOM     19  C   UNL     1       4.025   3.167  17.591  0.00  0.00    +0.000 C 
ATOM     20  C   UNL     1       4.420   2.005  18.516  0.00  0.00    +0.000 C 
ATOM     21  O   UNL     1       4.644   2.398  19.884  0.00  0.00    +0.000 OA
ATOM     22  C   UNL     1       3.451   2.908  20.343  0.00  0.00    +0.000 A 
ATOM     23  C   UNL     1       2.813   2.262  21.391  0.00  0.00    +0.000 A 
ATOM     24  C   UNL     1       1.473   2.540  21.647  0.00  0.00    +0.000 A 
ATOM     25  C   UNL     1       0.811   3.503  20.877  0.00  0.00    +0.000 A 
ATOM     26  C   UNL     1       1.490   4.216  19.865  0.00  0.00    +0.000 A 
ATOM     27  C   UNL     1       2.828   3.918  19.584  0.00  0.00    +0.000 A 
ENDBRANCH  16  18
ENDBRANCH   1  16
TORSDOF 4
ENDMDL
MODEL 9
REMARK VINA RESULT:      -7.9      3.907      7.378
REMARK  Name = 
REMARK  4 active torsions:
REMARK  status: ('A' for Active; 'I' for Inactive)
REMARK    1  A    between atoms: S_2  and  C_4
REMARK    2  A    between atoms: S_2  and  N_18
REMARK    3  A    between atoms: C_7  and  C_8
REMARK    4  A    between atoms: C_11  and  C_12
REMARK                            x       y       z     vdW  Elec       q    Type
REMARK                         _______ _______ _______ _____ _____    ______ ____
ROOT
ATOM      1  C   UNL     1       6.761   6.532  17.715  0.00  0.00    +0.000 A 
ATOM      2  C   UNL     1       7.813   6.402  18.641  0.00  0.00    +0.000 A 
ATOM      3  C   UNL     1       8.616   7.520  18.984  0.00  0.00    +0.000 A 
ATOM      4  C   UNL     1       8.402   8.779  18.392  0.00  0.00    +0.000 A 
ATOM      5  C   UNL     1       7.436   8.846  17.377  0.00  0.00    +0.000 A 
ATOM      6  C   UNL     1       6.631   7.742  17.035  0.00  0.00    +0.000 A 
ENDROOT
BRANCH   4   7
ATOM      7  C   UNL     1       9.100   9.987  18.849  0.00  0.00    +0.000 A 
ATOM      8  C   UNL     1       9.360  10.593  20.067  0.00  0.00    +0.000 A 
ATOM      9  N   UNL     1       9.962  11.816  19.885  0.00  0.00    +0.000 NA
ATOM     10  C   UNL     1      10.059  11.941  18.575  0.00  0.00    +0.000 A 
ATOM     11  O   UNL     1       9.581  10.854  17.880  0.00  0.00    +0.000 OA
BRANCH  10  12
ATOM     12  C   UNL     1      10.614  13.226  17.949  0.00  0.00    +0.000 C 
ATOM     13  C   UNL     1      11.742  13.985  18.616  0.00  0.00    +0.000 C 
ATOM     14  C   UNL     1      12.015  13.218  17.370  0.00  0.00    +0.000 C 
ENDBRANCH  10  12
ENDBRANCH   4   7
BRANCH   1  16
ATOM     15  O   UNL     1       5.082   5.497  15.974  0.00  0.00    +0.000 OA
ATOM     16  S   UNL     1       5.787   5.103  17.172  0.00  0.00    +0.000 S 
ATOM     17  O   UNL     1       6.728   3.992  17.132  0.00  0.00    +0.000 OA
BRANCH  16  18
ATOM     18  N   UNL     1       4.657   4.720  18.382  0.00  0.00    +0.000 N 
ATOM     19  C   UNL     1       4.422   5.745  19.419  0.00  0.00    +0.000 C 
ATOM     20  C   UNL     1       2.928   6.069  19.574  0.00  0.00    +0.000 C 
ATOM     21  O   UNL     1       2.133   5.726  18.422  0.00  0.00    +0.000 OA
ATOM     22  C   UNL     1       2.249   4.365  18.260  0.00  0.00    +0.000 A 
ATOM     23  C   UNL     1       1.110   3.583  18.379  0.00  0.00    +0.000 A 
ATOM     24  C   UNL     1       1.242   2.208  18.558  0.00  0.00    +0.000 A 
ATOM     25  C   UNL     1       2.520   1.636  18.563  0.00  0.00    +0.000 A 
ATOM     26  C   UNL     1       3.671   2.426  18.359  0.00  0.00    +0.000 A 
ATOM     27  C   UNL     1       3.545   3.812  18.210  0.00  0.00    +0.000 A 
ENDBRANCH  16  18
ENDBRANCH   1  16
TORSDOF 4
ENDMDL
