MODEL 1
REMARK VINA RESULT:      -8.1      0.000      0.000
REMARK  Name = 
REMARK  9 active torsions:
REMARK  status: ('A' for Active; 'I' for Inactive)
REMARK    1  A    between atoms: C_1  and  C_2
REMARK    2  A    between atoms: C_2  and  C_3
REMARK    3  A    between atoms: C_4  and  C_5
REMARK    4  A    between atoms: C_5  and  O_6
REMARK    5  A    between atoms: O_6  and  C_7
REMARK    6  A    between atoms: C_11  and  N_12
REMARK    7  A    between atoms: N_15  and  C_16
REMARK    8  A    between atoms: C_20  and  C_21
REMARK    9  A    between atoms: C_21  and  O_23
REMARK                            x       y       z     vdW  Elec       q    Type
REMARK                         _______ _______ _______ _____ _____    ______ ____
ROOT
ATOM      1  N   UNL     1       4.759   3.568  18.604  0.00  0.00    +0.000 N 
ATOM      2  C   UNL     1       4.851   4.008  17.293  0.00  0.00    +0.000 C 
ATOM      3  O   UNL     1       3.983   4.649  16.703  0.00  0.00    +0.000 OA
ATOM      4  N   UNL     1       6.044   3.624  16.691  0.00  0.00    +0.000 N 
ATOM      5  H   UNL     1       5.632   3.462  19.101  0.00  0.00    +0.000 HD
ATOM      6  H   UNL     1       6.384   2.721  16.996  0.00  0.00    +0.000 HD
ENDROOT
BRANCH   1  11
ATOM      7  C   UNL     1       1.917   5.010  20.525  0.00  0.00    +0.000 A 
ATOM      8  C   UNL     1       1.195   3.856  20.843  0.00  0.00    +0.000 A 
ATOM      9  C   UNL     1       1.692   2.605  20.499  0.00  0.00    +0.000 A 
ATOM     10  C   UNL     1       2.888   2.505  19.795  0.00  0.00    +0.000 A 
ATOM     11  C   UNL     1       3.577   3.653  19.381  0.00  0.00    +0.000 A 
ATOM     12  C   UNL     1       3.098   4.907  19.777  0.00  0.00    +0.000 A 
BRANCH   7  13
ATOM     13  O   UNL     1       1.548   6.275  20.913  0.00  0.00    +0.000 OA
BRANCH  13  14
ATOM     14  C   UNL     1       2.092   7.321  20.101  0.00  0.00    +0.000 C 
BRANCH  14  18
ATOM     15  C   UNL     1       0.235  10.702  19.528  0.00  0.00    +0.000 C 
ATOM     16  C   UNL     1       1.061   9.475  19.260  0.00  0.00    +0.000 C 
ATOM     17  C   UNL     1       1.671   9.350  17.887  0.00  0.00    +0.000 C 
ATOM     18  C   UNL     1       1.230   8.542  20.218  0.00  0.00    +0.000 C 
ENDBRANCH  14  18
ENDBRANCH  13  14
ENDBRANCH   7  13
ENDBRANCH   1  11
BRANCH   4  19
ATOM     19  C   UNL     1       6.291   3.977  15.343  0.00  0.00    +0.000 A 
ATOM     20  C   UNL     1       7.235   4.965  15.060  0.00  0.00    +0.000 A 
ATOM     21  C   UNL     1       7.599   5.221  13.735  0.00  0.00    +0.000 A 
ATOM     22  C   UNL     1       6.989   4.520  12.691  0.00  0.00    +0.000 A 
ATOM     23  C   UNL     1       5.999   3.567  12.969  0.00  0.00    +0.000 A 
ATOM     24  C   UNL     1       5.644   3.311  14.294  0.00  0.00    +0.000 A 
BRANCH  23  25
ATOM     25  C   UNL     1       5.347   2.884  11.827  0.00  0.00    +0.000 C 
ATOM     26  O   UNL     1       4.393   3.367  11.224  0.00  0.00    +0.000 OA
BRANCH  25  27
ATOM     27  O   UNL     1       5.905   1.706  11.487  0.00  0.00    +0.000 OA
ATOM     28  H   UNL     1       6.514   1.326  12.152  0.00  0.00    +0.000 HD
ENDBRANCH  25  27
ENDBRANCH  23  25
ENDBRANCH   4  19
TORSDOF 7
ENDMDL
MODEL 2
REMARK VINA RESULT:      -8.0      3.270      5.641
REMARK  Name = 
REMARK  9 active torsions:
REMARK  status: ('A' for Active; 'I' for Inactive)
REMARK    1  A    between atoms: C_1  and  C_2
REMARK    2  A    between atoms: C_2  and  C_3
REMARK    3  A    between atoms: C_4  and  C_5
REMARK    4  A    between atoms: C_5  and  O_6
REMARK    5  A    between atoms: O_6  and  C_7
REMARK    6  A    between atoms: C_11  and  N_12
REMARK    7  A    between atoms: N_15  and  C_16
REMARK    8  A    between atoms: C_20  and  C_21
REMARK    9  A    between atoms: C_21  and  O_23
REMARK                            x       y       z     vdW  Elec       q    Type
REMARK                         _______ _______ _______ _____ _____    ______ ____
ROOT
ATOM      1  N   UNL     1       1.947   7.412  20.978  0.00  0.00    +0.000 N 
ATOM      2  C   UNL     1       2.559   6.980  19.812  0.00  0.00    +0.000 C 
ATOM      3  O   UNL     1       2.562   7.597  18.748  0.00  0.00    +0.000 OA
ATOM      4  N   UNL     1       3.165   5.738  19.964  0.00  0.00    +0.000 N 
ATOM      5  H   UNL     1       2.356   7.088  21.842  0.00  0.00    +0.000 HD
ATOM      6  H   UNL     1       2.673   5.117  20.592  0.00  0.00    +0.000 HD
ENDROOT
BRANCH   1  11
ATOM      7  C   UNL     1      -0.276  10.204  19.921  0.00  0.00    +0.000 A 
ATOM      8  C   UNL     1      -0.655  10.728  21.160  0.00  0.00    +0.000 A 
ATOM      9  C   UNL     1      -0.109  10.217  22.330  0.00  0.00    +0.000 A 
ATOM     10  C   UNL     1       0.780   9.148  22.271  0.00  0.00    +0.000 A 
ATOM     11  C   UNL     1       1.097   8.545  21.047  0.00  0.00    +0.000 A 
ATOM     12  C   UNL     1       0.585   9.099  19.868  0.00  0.00    +0.000 A 
BRANCH   7  13
ATOM     13  O   UNL     1      -0.690  10.713  18.715  0.00  0.00    +0.000 OA
BRANCH  13  14
ATOM     14  C   UNL     1      -2.006  10.308  18.326  0.00  0.00    +0.000 C 
BRANCH  14  18
ATOM     15  C   UNL     1      -3.009  10.106  14.562  0.00  0.00    +0.000 C 
ATOM     16  C   UNL     1      -3.052  10.452  16.024  0.00  0.00    +0.000 C 
ATOM     17  C   UNL     1      -4.260  11.212  16.510  0.00  0.00    +0.000 C 
ATOM     18  C   UNL     1      -2.043  10.092  16.842  0.00  0.00    +0.000 C 
ENDBRANCH  14  18
ENDBRANCH  13  14
ENDBRANCH   7  13
ENDBRANCH   1  11
BRANCH   4  19
ATOM     19  C   UNL     1       3.822   5.142  18.861  0.00  0.00    +0.000 A 
ATOM     20  C   UNL     1       3.128   4.226  18.069  0.00  0.00    +0.000 A 
ATOM     21  C   UNL     1       3.709   3.743  16.893  0.00  0.00    +0.000 A 
ATOM     22  C   UNL     1       4.998   4.141  16.531  0.00  0.00    +0.000 A 
ATOM     23  C   UNL     1       5.720   5.017  17.354  0.00  0.00    +0.000 A 
ATOM     24  C   UNL     1       5.134   5.502  18.524  0.00  0.00    +0.000 A 
BRANCH  23  25
ATOM     25  C   UNL     1       7.102   5.372  16.954  0.00  0.00    +0.000 C 
ATOM     26  O   UNL     1       7.439   6.522  16.688  0.00  0.00    +0.000 OA
BRANCH  25  27
ATOM     27  O   UNL     1       7.963   4.335  16.934  0.00  0.00    +0.000 OA
ATOM     28  H   UNL     1       8.073   3.902  16.065  0.00  0.00    +0.000 HD
ENDBRANCH  25  27
ENDBRANCH  23  25
ENDBRANCH   4  19
TORSDOF 7
ENDMDL
MODEL 3
REMARK VINA RESULT:      -8.0      3.775      8.140
REMARK  Name = 
REMARK  9 active torsions:
REMARK  status: ('A' for Active; 'I' for Inactive)
REMARK    1  A    between atoms: C_1  and  C_2
REMARK    2  A    between atoms: C_2  and  C_3
REMARK    3  A    between atoms: C_4  and  C_5
REMARK    4  A    between atoms: C_5  and  O_6
REMARK    5  A    between atoms: O_6  and  C_7
REMARK    6  A    between atoms: C_11  and  N_12
REMARK    7  A    between atoms: N_15  and  C_16
REMARK    8  A    between atoms: C_20  and  C_21
REMARK    9  A    between atoms: C_21  and  O_23
REMARK                            x       y       z     vdW  Elec       q    Type
REMARK                         _______ _______ _______ _____ _____    ______ ____
ROOT
ATOM      1  N   UNL     1       3.379   7.408  17.625  0.00  0.00    +0.000 N 
ATOM      2  C   UNL     1       2.413   8.091  18.347  0.00  0.00    +0.000 C 
ATOM      3  O   UNL     1       2.003   7.765  19.460  0.00  0.00    +0.000 OA
ATOM      4  N   UNL     1       1.927   9.198  17.660  0.00  0.00    +0.000 N 
ATOM      5  H   UNL     1       3.931   7.960  16.985  0.00  0.00    +0.000 HD
ATOM      6  H   UNL     1       1.879   9.069  16.659  0.00  0.00    +0.000 HD
ENDROOT
BRANCH   1  11
ATOM      7  C   UNL     1       3.735   3.719  17.968  0.00  0.00    +0.000 A 
ATOM      8  C   UNL     1       4.945   3.631  18.664  0.00  0.00    +0.000 A 
ATOM      9  C   UNL     1       5.590   4.783  19.091  0.00  0.00    +0.000 A 
ATOM     10  C   UNL     1       5.055   6.031  18.785  0.00  0.00    +0.000 A 
ATOM     11  C   UNL     1       3.896   6.144  18.004  0.00  0.00    +0.000 A 
ATOM     12  C   UNL     1       3.223   4.977  17.622  0.00  0.00    +0.000 A 
BRANCH   7  13
ATOM     13  O   UNL     1       2.984   2.631  17.595  0.00  0.00    +0.000 OA
BRANCH  13  14
ATOM     14  C   UNL     1       1.648   2.636  18.110  0.00  0.00    +0.000 C 
BRANCH  14  18
ATOM     15  C   UNL     1       1.593   2.507  22.008  0.00  0.00    +0.000 C 
ATOM     16  C   UNL     1       1.465   3.031  20.605  0.00  0.00    +0.000 C 
ATOM     17  C   UNL     1       1.103   4.486  20.450  0.00  0.00    +0.000 C 
ATOM     18  C   UNL     1       1.667   2.216  19.549  0.00  0.00    +0.000 C 
ENDBRANCH  14  18
ENDBRANCH  13  14
ENDBRANCH   7  13
ENDBRANCH   1  11
BRANCH   4  19
ATOM     19  C   UNL     1       0.920   9.998  18.250  0.00  0.00    +0.000 A 
ATOM     20  C   UNL     1       1.281  10.969  19.186  0.00  0.00    +0.000 A 
ATOM     21  C   UNL     1       0.322  11.865  19.665  0.00  0.00    +0.000 A 
ATOM     22  C   UNL     1      -1.006  11.765  19.242  0.00  0.00    +0.000 A 
ATOM     23  C   UNL     1      -1.384  10.756  18.346  0.00  0.00    +0.000 A 
ATOM     24  C   UNL     1      -0.421   9.867  17.865  0.00  0.00    +0.000 A 
BRANCH  23  25
ATOM     25  C   UNL     1      -2.812  10.660  17.963  0.00  0.00    +0.000 C 
ATOM     26  O   UNL     1      -3.351   9.595  17.677  0.00  0.00    +0.000 OA
BRANCH  25  27
ATOM     27  O   UNL     1      -3.477  11.832  17.985  0.00  0.00    +0.000 OA
ATOM     28  H   UNL     1      -3.271  12.414  18.743  0.00  0.00    +0.000 HD
ENDBRANCH  25  27
ENDBRANCH  23  25
ENDBRANCH   4  19
TORSDOF 7
ENDMDL
MODEL 4
REMARK VINA RESULT:      -7.9      3.342      5.776
REMARK  Name = 
REMARK  9 active torsions:
REMARK  status: ('A' for Active; 'I' for Inactive)
REMARK    1  A    between atoms: C_1  and  C_2
REMARK    2  A    between atoms: C_2  and  C_3
REMARK    3  A    between atoms: C_4  and  C_5
REMARK    4  A    between atoms: C_5  and  O_6
REMARK    5  A    between atoms: O_6  and  C_7
REMARK    6  A    between atoms: C_11  and  N_12
REMARK    7  A    between atoms: N_15  and  C_16
REMARK    8  A    between atoms: C_20  and  C_21
REMARK    9  A    between atoms: C_21  and  O_23
REMARK                            x       y       z     vdW  Elec       q    Type
REMARK                         _______ _______ _______ _____ _____    ______ ____
ROOT
ATOM      1  N   UNL     1       1.833   7.557  21.043  0.00  0.00    +0.000 N 
ATOM      2  C   UNL     1       2.461   7.073  19.907  0.00  0.00    +0.000 C 
ATOM      3  O   UNL     1       2.517   7.660  18.828  0.00  0.00    +0.000 OA
ATOM      4  N   UNL     1       3.017   5.814  20.109  0.00  0.00    +0.000 N 
ATOM      5  H   UNL     1       2.205   7.241  21.927  0.00  0.00    +0.000 HD
ATOM      6  H   UNL     1       2.485   5.228  20.738  0.00  0.00    +0.000 HD
ENDROOT
BRANCH   1  11
ATOM      7  C   UNL     1      -0.175  10.454  19.847  0.00  0.00    +0.000 A 
ATOM      8  C   UNL     1      -0.648  10.970  21.057  0.00  0.00    +0.000 A 
ATOM      9  C   UNL     1      -0.235  10.415  22.261  0.00  0.00    +0.000 A 
ATOM     10  C   UNL     1       0.616   9.314  22.261  0.00  0.00    +0.000 A 
ATOM     11  C   UNL     1       1.024   8.721  21.059  0.00  0.00    +0.000 A 
ATOM     12  C   UNL     1       0.645   9.317  19.850  0.00  0.00    +0.000 A 
BRANCH   7  13
ATOM     13  O   UNL     1      -0.454  11.002  18.619  0.00  0.00    +0.000 OA
BRANCH  13  14
ATOM     14  C   UNL     1      -1.259  10.172  17.775  0.00  0.00    +0.000 C 
BRANCH  14  18
ATOM     15  C   UNL     1      -4.819  11.495  16.882  0.00  0.00    +0.000 C 
ATOM     16  C   UNL     1      -3.434  10.931  16.722  0.00  0.00    +0.000 C 
ATOM     17  C   UNL     1      -2.954  10.689  15.314  0.00  0.00    +0.000 C 
ATOM     18  C   UNL     1      -2.677  10.659  17.804  0.00  0.00    +0.000 C 
ENDBRANCH  14  18
ENDBRANCH  13  14
ENDBRANCH   7  13
ENDBRANCH   1  11
BRANCH   4  19
ATOM     19  C   UNL     1       3.682   5.166  19.041  0.00  0.00    +0.000 A 
ATOM     20  C   UNL     1       2.948   4.356  18.173  0.00  0.00    +0.000 A 
ATOM     21  C   UNL     1       3.557   3.830  17.030  0.00  0.00    +0.000 A 
ATOM     22  C   UNL     1       4.909   4.077  16.778  0.00  0.00    +0.000 A 
ATOM     23  C   UNL     1       5.664   4.843  17.677  0.00  0.00    +0.000 A 
ATOM     24  C   UNL     1       5.050   5.371  18.814  0.00  0.00    +0.000 A 
BRANCH  23  25
ATOM     25  C   UNL     1       7.105   5.037  17.392  0.00  0.00    +0.000 C 
ATOM     26  O   UNL     1       7.984   4.401  17.963  0.00  0.00    +0.000 OA
BRANCH  25  27
ATOM     27  O   UNL     1       7.367   5.949  16.434  0.00  0.00    +0.000 OA
ATOM     28  H   UNL     1       8.011   6.641  16.683  0.00  0.00    +0.000 HD
ENDBRANCH  25  27
ENDBRANCH  23  25
ENDBRANCH   4  19
TORSDOF 7
ENDMDL
MODEL 5
REMARK VINA RESULT:      -7.8      5.701      8.317
REMARK  Name = 
REMARK  9 active torsions:
REMARK  status: ('A' for Active; 'I' for Inactive)
REMARK    1  A    between atoms: C_1  and  C_2
REMARK    2  A    between atoms: C_2  and  C_3
REMARK    3  A    between atoms: C_4  and  C_5
REMARK    4  A    between atoms: C_5  and  O_6
REMARK    5  A    between atoms: O_6  and  C_7
REMARK    6  A    between atoms: C_11  and  N_12
REMARK    7  A    between atoms: N_15  and  C_16
REMARK    8  A    between atoms: C_20  and  C_21
REMARK    9  A    between atoms: C_21  and  O_23
REMARK                            x       y       z     vdW  Elec       q    Type
REMARK                         _______ _______ _______ _____ _____    ______ ____
ROOT
ATOM      1  N   UNL     1       7.123   8.060  16.940  0.00  0.00    +0.000 N 
ATOM      2  C   UNL     1       8.019   8.505  17.899  0.00  0.00    +0.000 C 
ATOM      3  O   UNL     1       8.521   7.802  18.774  0.00  0.00    +0.000 OA
ATOM      4  N   UNL     1       8.283   9.865  17.781  0.00  0.00    +0.000 N 
ATOM      5  H   UNL     1       7.124   8.560  16.062  0.00  0.00    +0.000 HD
ATOM      6  H   UNL     1       7.490  10.411  17.471  0.00  0.00    +0.000 HD
ENDROOT
BRANCH   1  11
ATOM      7  C   UNL     1       4.612   5.349  17.385  0.00  0.00    +0.000 A 
ATOM      8  C   UNL     1       5.321   4.245  16.900  0.00  0.00    +0.000 A 
ATOM      9  C   UNL     1       6.647   4.384  16.512  0.00  0.00    +0.000 A 
ATOM     10  C   UNL     1       7.257   5.633  16.561  0.00  0.00    +0.000 A 
ATOM     11  C   UNL     1       6.536   6.770  16.951  0.00  0.00    +0.000 A 
ATOM     12  C   UNL     1       5.216   6.614  17.391  0.00  0.00    +0.000 A 
BRANCH   7  13
ATOM     13  O   UNL     1       3.333   5.280  17.880  0.00  0.00    +0.000 OA
BRANCH  13  14
ATOM     14  C   UNL     1       3.191   5.787  19.212  0.00  0.00    +0.000 C 
BRANCH  14  18
ATOM     15  C   UNL     1       2.437   2.836  21.649  0.00  0.00    +0.000 C 
ATOM     16  C   UNL     1       2.239   3.893  20.598  0.00  0.00    +0.000 C 
ATOM     17  C   UNL     1       0.848   4.049  20.040  0.00  0.00    +0.000 C 
ATOM     18  C   UNL     1       3.275   4.653  20.188  0.00  0.00    +0.000 C 
ENDBRANCH  14  18
ENDBRANCH  13  14
ENDBRANCH   7  13
ENDBRANCH   1  11
BRANCH   4  19
ATOM     19  C   UNL     1       9.167  10.486  18.696  0.00  0.00    +0.000 A 
ATOM     20  C   UNL     1      10.465  10.796  18.287  0.00  0.00    +0.000 A 
ATOM     21  C   UNL     1      11.300  11.540  19.125  0.00  0.00    +0.000 A 
ATOM     22  C   UNL     1      10.853  11.939  20.387  0.00  0.00    +0.000 A 
ATOM     23  C   UNL     1       9.570  11.582  20.824  0.00  0.00    +0.000 A 
ATOM     24  C   UNL     1       8.738  10.843  19.982  0.00  0.00    +0.000 A 
BRANCH  23  25
ATOM     25  C   UNL     1       9.159  11.986  22.189  0.00  0.00    +0.000 C 
ATOM     26  O   UNL     1       9.227  13.146  22.584  0.00  0.00    +0.000 OA
BRANCH  25  27
ATOM     27  O   UNL     1       8.677  10.982  22.948  0.00  0.00    +0.000 OA
ATOM     28  H   UNL     1       8.616  10.115  22.502  0.00  0.00    +0.000 HD
ENDBRANCH  25  27
ENDBRANCH  23  25
ENDBRANCH   4  19
TORSDOF 7
ENDMDL
MODEL 6
REMARK VINA RESULT:      -7.6      3.361      7.965
REMARK  Name = 
REMARK  9 active torsions:
REMARK  status: ('A' for Active; 'I' for Inactive)
REMARK    1  A    between atoms: C_1  and  C_2
REMARK    2  A    between atoms: C_2  and  C_3
REMARK    3  A    between atoms: C_4  and  C_5
REMARK    4  A    between atoms: C_5  and  O_6
REMARK    5  A    between atoms: O_6  and  C_7
REMARK    6  A    between atoms: C_11  and  N_12
REMARK    7  A    between atoms: N_15  and  C_16
REMARK    8  A    between atoms: C_20  and  C_21
REMARK    9  A    between atoms: C_21  and  O_23
REMARK                            x       y       z     vdW  Elec       q    Type
REMARK                         _______ _______ _______ _____ _____    ______ ____
ROOT
ATOM      1  N   UNL     1       3.937   7.623  17.670  0.00  0.00    +0.000 N 
ATOM      2  C   UNL     1       2.672   7.892  18.169  0.00  0.00    +0.000 C 
ATOM      3  O   UNL     1       1.903   7.050  18.628  0.00  0.00    +0.000 OA
ATOM      4  N   UNL     1       2.345   9.240  18.075  0.00  0.00    +0.000 N 
ATOM      5  H   UNL     1       4.611   8.373  17.738  0.00  0.00    +0.000 HD
ATOM      6  H   UNL     1       2.725   9.698  17.257  0.00  0.00    +0.000 HD
ENDROOT
BRANCH   1  11
ATOM      7  C   UNL     1       5.117   4.166  18.383  0.00  0.00    +0.000 A 
ATOM      8  C   UNL     1       5.351   3.692  17.089  0.00  0.00    +0.000 A 
ATOM      9  C   UNL     1       5.204   4.538  15.998  0.00  0.00    +0.000 A 
ATOM     10  C   UNL     1       4.775   5.848  16.189  0.00  0.00    +0.000 A 
ATOM     11  C   UNL     1       4.441   6.314  17.468  0.00  0.00    +0.000 A 
ATOM     12  C   UNL     1       4.642   5.472  18.568  0.00  0.00    +0.000 A 
BRANCH   7  13
ATOM     13  O   UNL     1       5.333   3.428  19.520  0.00  0.00    +0.000 OA
BRANCH  13  14
ATOM     14  C   UNL     1       4.398   2.362  19.716  0.00  0.00    +0.000 C 
BRANCH  14  18
ATOM     15  C   UNL     1       0.792   3.706  20.347  0.00  0.00    +0.000 C 
ATOM     16  C   UNL     1       1.967   3.067  19.661  0.00  0.00    +0.000 C 
ATOM     17  C   UNL     1       1.765   2.621  18.235  0.00  0.00    +0.000 C 
ATOM     18  C   UNL     1       3.136   2.908  20.313  0.00  0.00    +0.000 C 
ENDBRANCH  14  18
ENDBRANCH  13  14
ENDBRANCH   7  13
ENDBRANCH   1  11
BRANCH   4  19
ATOM     19  C   UNL     1       1.078   9.684  18.524  0.00  0.00    +0.000 A 
ATOM     20  C   UNL     1       0.915  10.037  19.865  0.00  0.00    +0.000 A 
ATOM     21  C   UNL     1      -0.283  10.616  20.291  0.00  0.00    +0.000 A 
ATOM     22  C   UNL     1      -1.333  10.804  19.389  0.00  0.00    +0.000 A 
ATOM     23  C   UNL     1      -1.194  10.398  18.055  0.00  0.00    +0.000 A 
ATOM     24  C   UNL     1       0.007   9.825  17.632  0.00  0.00    +0.000 A 
BRANCH  23  25
ATOM     25  C   UNL     1      -2.352  10.572  17.147  0.00  0.00    +0.000 C 
ATOM     26  O   UNL     1      -2.854   9.639  16.528  0.00  0.00    +0.000 OA
BRANCH  25  27
ATOM     27  O   UNL     1      -2.825  11.832  17.079  0.00  0.00    +0.000 OA
ATOM     28  H   UNL     1      -2.862  12.309  17.932  0.00  0.00    +0.000 HD
ENDBRANCH  25  27
ENDBRANCH  23  25
ENDBRANCH   4  19
TORSDOF 7
ENDMDL
MODEL 7
REMARK VINA RESULT:      -7.6      3.656      6.555
REMARK  Name = 
REMARK  9 active torsions:
REMARK  status: ('A' for Active; 'I' for Inactive)
REMARK    1  A    between atoms: C_1  and  C_2
REMARK    2  A    between atoms: C_2  and  C_3
REMARK    3  A    between atoms: C_4  and  C_5
REMARK    4  A    between atoms: C_5  and  O_6
REMARK    5  A    between atoms: O_6  and  C_7
REMARK    6  A    between atoms: C_11  and  N_12
REMARK    7  A    between atoms: N_15  and  C_16
REMARK    8  A    between atoms: C_20  and  C_21
REMARK    9  A    between atoms: C_21  and  O_23
REMARK                            x       y       z     vdW  Elec       q    Type
REMARK                         _______ _______ _______ _____ _____    ______ ____
ROOT
ATOM      1  N   UNL     1       1.284   8.453  20.863  0.00  0.00    +0.000 N 
ATOM      2  C   UNL     1       1.935   7.723  19.881  0.00  0.00    +0.000 C 
ATOM      3  O   UNL     1       2.204   8.140  18.756  0.00  0.00    +0.000 OA
ATOM      4  N   UNL     1       2.242   6.433  20.299  0.00  0.00    +0.000 N 
ATOM      5  H   UNL     1       1.501   8.207  21.819  0.00  0.00    +0.000 HD
ATOM      6  H   UNL     1       1.554   6.030  20.921  0.00  0.00    +0.000 HD
ENDROOT
BRANCH   1  11
ATOM      7  C   UNL     1      -0.843  11.118  19.373  0.00  0.00    +0.000 A 
ATOM      8  C   UNL     1      -0.565  12.190  20.226  0.00  0.00    +0.000 A 
ATOM      9  C   UNL     1       0.383  12.055  21.232  0.00  0.00    +0.000 A 
ATOM     10  C   UNL     1       1.024  10.834  21.419  0.00  0.00    +0.000 A 
ATOM     11  C   UNL     1       0.690   9.720  20.638  0.00  0.00    +0.000 A 
ATOM     12  C   UNL     1      -0.228   9.878  19.593  0.00  0.00    +0.000 A 
BRANCH   7  13
ATOM     13  O   UNL     1      -1.691  11.196  18.296  0.00  0.00    +0.000 OA
BRANCH  13  14
ATOM     14  C   UNL     1      -2.342   9.964  17.970  0.00  0.00    +0.000 C 
BRANCH  14  18
ATOM     15  C   UNL     1      -3.420  10.135  14.225  0.00  0.00    +0.000 C 
ATOM     16  C   UNL     1      -3.376  10.412  15.701  0.00  0.00    +0.000 C 
ATOM     17  C   UNL     1      -4.414  11.358  16.249  0.00  0.00    +0.000 C 
ATOM     18  C   UNL     1      -2.440   9.832  16.479  0.00  0.00    +0.000 C 
ENDBRANCH  14  18
ENDBRANCH  13  14
ENDBRANCH   7  13
ENDBRANCH   1  11
BRANCH   4  19
ATOM     19  C   UNL     1       2.894   5.547  19.409  0.00  0.00    +0.000 A 
ATOM     20  C   UNL     1       2.127   4.756  18.551  0.00  0.00    +0.000 A 
ATOM     21  C   UNL     1       2.754   3.989  17.566  0.00  0.00    +0.000 A 
ATOM     22  C   UNL     1       4.147   3.979  17.464  0.00  0.00    +0.000 A 
ATOM     23  C   UNL     1       4.923   4.727  18.360  0.00  0.00    +0.000 A 
ATOM     24  C   UNL     1       4.293   5.497  19.339  0.00  0.00    +0.000 A 
BRANCH  23  25
ATOM     25  C   UNL     1       6.398   4.647  18.244  0.00  0.00    +0.000 C 
ATOM     26  O   UNL     1       7.154   5.018  19.136  0.00  0.00    +0.000 OA
BRANCH  25  27
ATOM     27  O   UNL     1       6.839   4.105  17.091  0.00  0.00    +0.000 OA
ATOM     28  H   UNL     1       6.921   3.131  17.093  0.00  0.00    +0.000 HD
ENDBRANCH  25  27
ENDBRANCH  23  25
ENDBRANCH   4  19
TORSDOF 7
ENDMDL
MODEL 8
REMARK VINA RESULT:      -7.6      3.640      6.277
REMARK  Name = 
REMARK  9 active torsions:
REMARK  status: ('A' for Active; 'I' for Inactive)
REMARK    1  A    between atoms: C_1  and  C_2
REMARK    2  A    between atoms: C_2  and  C_3
REMARK    3  A    between atoms: C_4  and  C_5
REMARK    4  A    between atoms: C_5  and  O_6
REMARK    5  A    between atoms: O_6  and  C_7
REMARK    6  A    between atoms: C_11  and  N_12
REMARK    7  A    between atoms: N_15  and  C_16
REMARK    8  A    between atoms: C_20  and  C_21
REMARK    9  A    between atoms: C_21  and  O_23
REMARK                            x       y       z     vdW  Elec       q    Type
REMARK                         _______ _______ _______ _____ _____    ______ ____
ROOT
ATOM      1  N   UNL     1       1.815   7.823  20.731  0.00  0.00    +0.000 N 
ATOM      2  C   UNL     1       2.437   7.242  19.638  0.00  0.00    +0.000 C 
ATOM      3  O   UNL     1       2.500   7.741  18.516  0.00  0.00    +0.000 OA
ATOM      4  N   UNL     1       2.977   5.997  19.939  0.00  0.00    +0.000 N 
ATOM      5  H   UNL     1       2.183   7.574  21.638  0.00  0.00    +0.000 HD
ATOM      6  H   UNL     1       2.437   5.469  20.613  0.00  0.00    +0.000 HD
ENDROOT
BRANCH   1  11
ATOM      7  C   UNL     1      -0.109  10.835  21.768  0.00  0.00    +0.000 A 
ATOM      8  C   UNL     1      -0.474  11.361  20.525  0.00  0.00    +0.000 A 
ATOM      9  C   UNL     1      -0.159  10.677  19.359  0.00  0.00    +0.000 A 
ATOM     10  C   UNL     1       0.561   9.489  19.425  0.00  0.00    +0.000 A 
ATOM     11  C   UNL     1       1.021   8.995  20.653  0.00  0.00    +0.000 A 
ATOM     12  C   UNL     1       0.655   9.662  21.829  0.00  0.00    +0.000 A 
BRANCH   7  13
ATOM     13  O   UNL     1      -0.464  11.395  22.971  0.00  0.00    +0.000 OA
BRANCH  13  14
ATOM     14  C   UNL     1      -1.877  11.498  23.177  0.00  0.00    +0.000 C 
BRANCH  14  18
ATOM     15  C   UNL     1      -3.669  14.853  24.039  0.00  0.00    +0.000 C 
ATOM     16  C   UNL     1      -3.367  13.382  23.980  0.00  0.00    +0.000 C 
ATOM     17  C   UNL     1      -4.361  12.454  24.631  0.00  0.00    +0.000 C 
ATOM     18  C   UNL     1      -2.249  12.937  23.371  0.00  0.00    +0.000 C 
ENDBRANCH  14  18
ENDBRANCH  13  14
ENDBRANCH   7  13
ENDBRANCH   1  11
BRANCH   4  19
ATOM     19  C   UNL     1       3.633   5.257  18.927  0.00  0.00    +0.000 A 
ATOM     20  C   UNL     1       2.897   4.358  18.153  0.00  0.00    +0.000 A 
ATOM     21  C   UNL     1       3.495   3.732  17.056  0.00  0.00    +0.000 A 
ATOM     22  C   UNL     1       4.838   3.971  16.757  0.00  0.00    +0.000 A 
ATOM     23  C   UNL     1       5.597   4.829  17.566  0.00  0.00    +0.000 A 
ATOM     24  C   UNL     1       4.994   5.456  18.657  0.00  0.00    +0.000 A 
BRANCH  23  25
ATOM     25  C   UNL     1       7.030   5.013  17.238  0.00  0.00    +0.000 C 
ATOM     26  O   UNL     1       7.433   5.923  16.520  0.00  0.00    +0.000 OA
BRANCH  25  27
ATOM     27  O   UNL     1       7.855   4.119  17.817  0.00  0.00    +0.000 OA
ATOM     28  H   UNL     1       8.800   4.210  17.582  0.00  0.00    +0.000 HD
ENDBRANCH  25  27
ENDBRANCH  23  25
ENDBRANCH   4  19
TORSDOF 7
ENDMDL
MODEL 9
REMARK VINA RESULT:      -7.5      6.594      8.431
REMARK  Name = 
REMARK  9 active torsions:
REMARK  status: ('A' for Active; 'I' for Inactive)
REMARK    1  A    between atoms: C_1  and  C_2
REMARK    2  A    between atoms: C_2  and  C_3
REMARK    3  A    between atoms: C_4  and  C_5
REMARK    4  A    between atoms: C_5  and  O_6
REMARK    5  A    between atoms: O_6  and  C_7
REMARK    6  A    between atoms: C_11  and  N_12
REMARK    7  A    between atoms: N_15  and  C_16
REMARK    8  A    between atoms: C_20  and  C_21
REMARK    9  A    between atoms: C_21  and  O_23
REMARK                            x       y       z     vdW  Elec       q    Type
REMARK                         _______ _______ _______ _____ _____    ______ ____
ROOT
ATOM      1  N   UNL     1       8.579   7.893  18.956  0.00  0.00    +0.000 N 
ATOM      2  C   UNL     1       8.583   9.249  18.670  0.00  0.00    +0.000 C 
ATOM      3  O   UNL     1       7.776   9.816  17.937  0.00  0.00    +0.000 OA
ATOM      4  N   UNL     1       9.632   9.916  19.294  0.00  0.00    +0.000 N 
ATOM      5  H   UNL     1       8.964   7.626  19.851  0.00  0.00    +0.000 HD
ATOM      6  H   UNL     1      10.477   9.366  19.374  0.00  0.00    +0.000 HD
ENDROOT
BRANCH   1  11
ATOM      7  C   UNL     1       6.353   4.963  18.404  0.00  0.00    +0.000 A 
ATOM      8  C   UNL     1       6.018   5.132  17.057  0.00  0.00    +0.000 A 
ATOM      9  C   UNL     1       6.594   6.157  16.317  0.00  0.00    +0.000 A 
ATOM     10  C   UNL     1       7.470   7.046  16.931  0.00  0.00    +0.000 A 
ATOM     11  C   UNL     1       7.744   6.954  18.303  0.00  0.00    +0.000 A 
ATOM     12  C   UNL     1       7.201   5.887  19.029  0.00  0.00    +0.000 A 
BRANCH   7  13
ATOM     13  O   UNL     1       5.907   3.921  19.179  0.00  0.00    +0.000 OA
BRANCH  13  14
ATOM     14  C   UNL     1       4.632   3.400  18.787  0.00  0.00    +0.000 C 
BRANCH  14  18
ATOM     15  C   UNL     1       1.646   5.227  20.507  0.00  0.00    +0.000 C 
ATOM     16  C   UNL     1       2.591   4.750  19.440  0.00  0.00    +0.000 C 
ATOM     17  C   UNL     1       2.370   5.278  18.046  0.00  0.00    +0.000 C 
ATOM     18  C   UNL     1       3.582   3.886  19.741  0.00  0.00    +0.000 C 
ENDBRANCH  14  18
ENDBRANCH  13  14
ENDBRANCH   7  13
ENDBRANCH   1  11
BRANCH   4  19
ATOM     19  C   UNL     1       9.792  11.307  19.092  0.00  0.00    +0.000 A 
ATOM     20  C   UNL     1       9.337  12.196  20.068  0.00  0.00    +0.000 A 
ATOM     21  C   UNL     1       9.619  13.559  19.955  0.00  0.00    +0.000 A 
ATOM     22  C   UNL     1      10.321  14.042  18.847  0.00  0.00    +0.000 A 
ATOM     23  C   UNL     1      10.731  13.161  17.837  0.00  0.00    +0.000 A 
ATOM     24  C   UNL     1      10.451  11.799  17.957  0.00  0.00    +0.000 A 
BRANCH  23  25
ATOM     25  C   UNL     1      11.429  13.726  16.658  0.00  0.00    +0.000 C 
ATOM     26  O   UNL     1      11.218  14.862  16.246  0.00  0.00    +0.000 OA
BRANCH  25  27
ATOM     27  O   UNL     1      12.333  12.900  16.095  0.00  0.00    +0.000 OA
ATOM     28  H   UNL     1      13.251  13.008  16.415  0.00  0.00    +0.000 HD
ENDBRANCH  25  27
ENDBRANCH  23  25
ENDBRANCH   4  19
TORSDOF 7
ENDMDL
