MODEL 1
REMARK VINA RESULT:      -7.6      0.000      0.000
REMARK  Name = 
REMARK  7 active torsions:
REMARK  status: ('A' for Active; 'I' for Inactive)
REMARK    1  A    between atoms: C_1  and  C_2
REMARK    2  A    between atoms: C_2  and  N_3
REMARK    3  A    between atoms: C_6  and  C_7
REMARK    4  A    between atoms: C_7  and  C_8
REMARK    5  A    between atoms: C_15  and  C_16
REMARK    6  A    between atoms: C_16  and  C_17
REMARK    7  A    between atoms: C_17  and  N_18
REMARK                            x       y       z     vdW  Elec       q    Type
REMARK                         _______ _______ _______ _____ _____    ______ ____
ROOT
ATOM      1  C   UNL     1       4.367   3.306  19.421  0.00  0.00    +0.000 C 
ATOM      2  O   UNL     1       5.044   2.441  19.974  0.00  0.00    +0.000 OA
ATOM      3  N   UNL     1       3.220   3.841  20.013  0.00  0.00    +0.000 N 
ATOM      4  C   UNL     1       2.878   3.415  21.376  0.00  0.00    +0.000 C 
ATOM      5  C   UNL     1       1.694   2.449  21.390  0.00  0.00    +0.000 C 
ATOM      6  C   UNL     1       0.515   2.971  20.570  0.00  0.00    +0.000 C 
ATOM      7  C   UNL     1       0.968   3.411  19.176  0.00  0.00    +0.000 C 
ATOM      8  C   UNL     1       2.115   4.438  19.239  0.00  0.00    +0.000 C 
ENDROOT
BRANCH   1   9
ATOM      9  C   UNL     1       4.768   3.906  18.077  0.00  0.00    +0.000 C 
BRANCH   9  13
ATOM     10  N   UNL     1       6.985   5.463  15.505  0.00  0.00    +0.000 NA
ATOM     11  C   UNL     1       5.577   5.842  15.699  0.00  0.00    +0.000 C 
ATOM     12  C   UNL     1       5.289   6.263  17.139  0.00  0.00    +0.000 C 
ATOM     13  C   UNL     1       5.652   5.169  18.150  0.00  0.00    +0.000 C 
ATOM     14  C   UNL     1       7.127   4.802  17.915  0.00  0.00    +0.000 C 
ATOM     15  C   UNL     1       7.421   4.430  16.456  0.00  0.00    +0.000 C 
BRANCH  10  17
ATOM     16  C   UNL     1       6.291   3.932  13.624  0.00  0.00    +0.000 C 
ATOM     17  C   UNL     1       7.193   5.064  14.101  0.00  0.00    +0.000 C 
ENDBRANCH  10  17
ENDBRANCH   9  13
ENDBRANCH   1   9
BRANCH   8  18
ATOM     18  C   UNL     1       1.662   5.792  19.805  0.00  0.00    +0.000 C 
BRANCH  18  19
ATOM     19  C   UNL     1       2.694   6.893  19.574  0.00  0.00    +0.000 C 
BRANCH  19  20
ATOM     20  N   UNL     1       2.059   8.112  19.111  0.00  0.00    +0.000 N 
ATOM     21  C   UNL     1       2.185   8.687  17.880  0.00  0.00    +0.000 A 
ATOM     22  C   UNL     1       1.449   9.846  17.927  0.00  0.00    +0.000 A 
ATOM     23  C   UNL     1       0.917   9.878  19.230  0.00  0.00    +0.000 A 
ATOM     24  N   UNL     1       1.288   8.821  19.956  0.00  0.00    +0.000 NA
ENDBRANCH  19  20
ENDBRANCH  18  19
ENDBRANCH   8  18
TORSDOF 6
ENDMDL
MODEL 2
REMARK VINA RESULT:      -7.5      1.604      2.466
REMARK  Name = 
REMARK  7 active torsions:
REMARK  status: ('A' for Active; 'I' for Inactive)
REMARK    1  A    between atoms: C_1  and  C_2
REMARK    2  A    between atoms: C_2  and  N_3
REMARK    3  A    between atoms: C_6  and  C_7
REMARK    4  A    between atoms: C_7  and  C_8
REMARK    5  A    between atoms: C_15  and  C_16
REMARK    6  A    between atoms: C_16  and  C_17
REMARK    7  A    between atoms: C_17  and  N_18
REMARK                            x       y       z     vdW  Elec       q    Type
REMARK                         _______ _______ _______ _____ _____    ______ ____
ROOT
ATOM      1  C   UNL     1       4.574   3.695  19.577  0.00  0.00    +0.000 C 
ATOM      2  O   UNL     1       5.174   2.639  19.772  0.00  0.00    +0.000 OA
ATOM      3  N   UNL     1       3.210   3.833  19.840  0.00  0.00    +0.000 N 
ATOM      4  C   UNL     1       2.503   2.702  20.455  0.00  0.00    +0.000 C 
ATOM      5  C   UNL     1       1.613   1.973  19.450  0.00  0.00    +0.000 C 
ATOM      6  C   UNL     1       0.719   2.934  18.667  0.00  0.00    +0.000 C 
ATOM      7  C   UNL     1       1.536   4.088  18.082  0.00  0.00    +0.000 C 
ATOM      8  C   UNL     1       2.352   4.823  19.162  0.00  0.00    +0.000 C 
ENDROOT
BRANCH   1   9
ATOM      9  C   UNL     1       5.293   4.952  19.096  0.00  0.00    +0.000 C 
BRANCH   9  13
ATOM     10  N   UNL     1       7.513   7.396  17.349  0.00  0.00    +0.000 NA
ATOM     11  C   UNL     1       7.922   6.636  18.541  0.00  0.00    +0.000 C 
ATOM     12  C   UNL     1       7.764   5.130  18.343  0.00  0.00    +0.000 C 
ATOM     13  C   UNL     1       6.329   4.738  17.973  0.00  0.00    +0.000 C 
ATOM     14  C   UNL     1       5.941   5.551  16.727  0.00  0.00    +0.000 C 
ATOM     15  C   UNL     1       6.151   7.059  16.913  0.00  0.00    +0.000 C 
BRANCH  10  17
ATOM     16  C   UNL     1       8.765   9.172  18.631  0.00  0.00    +0.000 C 
ATOM     17  C   UNL     1       7.686   8.837  17.608  0.00  0.00    +0.000 C 
ENDBRANCH  10  17
ENDBRANCH   9  13
ENDBRANCH   1   9
BRANCH   8  18
ATOM     18  C   UNL     1       1.463   5.604  20.142  0.00  0.00    +0.000 C 
BRANCH  18  19
ATOM     19  C   UNL     1       2.103   6.916  20.589  0.00  0.00    +0.000 C 
BRANCH  19  20
ATOM     20  N   UNL     1       1.824   7.979  19.642  0.00  0.00    +0.000 N 
ATOM     21  C   UNL     1       2.284   8.078  18.361  0.00  0.00    +0.000 A 
ATOM     22  C   UNL     1       1.805   9.272  17.880  0.00  0.00    +0.000 A 
ATOM     23  C   UNL     1       1.067   9.817  18.947  0.00  0.00    +0.000 A 
ATOM     24  N   UNL     1       1.078   9.030  20.025  0.00  0.00    +0.000 NA
ENDBRANCH  19  20
ENDBRANCH  18  19
ENDBRANCH   8  18
TORSDOF 6
ENDMDL
MODEL 3
REMARK VINA RESULT:      -7.3      2.333      7.003
REMARK  Name = 
REMARK  7 active torsions:
REMARK  status: ('A' for Active; 'I' for Inactive)
REMARK    1  A    between atoms: C_1  and  C_2
REMARK    2  A    between atoms: C_2  and  N_3
REMARK    3  A    between atoms: C_6  and  C_7
REMARK    4  A    between atoms: C_7  and  C_8
REMARK    5  A    between atoms: C_15  and  C_16
REMARK    6  A    between atoms: C_16  and  C_17
REMARK    7  A    between atoms: C_17  and  N_18
REMARK                            x       y       z     vdW  Elec       q    Type
REMARK                         _______ _______ _______ _____ _____    ______ ____
ROOT
ATOM      1  C   UNL     1       5.322   4.075  18.211  0.00  0.00    +0.000 C 
ATOM      2  O   UNL     1       5.557   3.620  19.330  0.00  0.00    +0.000 OA
ATOM      3  N   UNL     1       6.274   4.799  17.490  0.00  0.00    +0.000 N 
ATOM      4  C   UNL     1       7.621   4.935  18.057  0.00  0.00    +0.000 C 
ATOM      5  C   UNL     1       7.866   6.337  18.612  0.00  0.00    +0.000 C 
ATOM      6  C   UNL     1       7.482   7.428  17.613  0.00  0.00    +0.000 C 
ATOM      7  C   UNL     1       6.075   7.194  17.060  0.00  0.00    +0.000 C 
ATOM      8  C   UNL     1       5.920   5.787  16.452  0.00  0.00    +0.000 C 
ENDROOT
BRANCH   1   9
ATOM      9  C   UNL     1       3.995   3.822  17.502  0.00  0.00    +0.000 C 
BRANCH   9  13
ATOM     10  N   UNL     1       1.299   3.983  20.082  0.00  0.00    +0.000 NA
ATOM     11  C   UNL     1       2.622   4.602  20.253  0.00  0.00    +0.000 C 
ATOM     12  C   UNL     1       2.957   5.563  19.114  0.00  0.00    +0.000 C 
ATOM     13  C   UNL     1       2.900   4.882  17.741  0.00  0.00    +0.000 C 
ATOM     14  C   UNL     1       1.505   4.250  17.603  0.00  0.00    +0.000 C 
ATOM     15  C   UNL     1       1.153   3.326  18.776  0.00  0.00    +0.000 C 
BRANCH  10  17
ATOM     16  C   UNL     1       2.296   2.495  21.859  0.00  0.00    +0.000 C 
ATOM     17  C   UNL     1       1.041   3.067  21.209  0.00  0.00    +0.000 C 
ENDBRANCH  10  17
ENDBRANCH   9  13
ENDBRANCH   1   9
BRANCH   8  18
ATOM     18  C   UNL     1       6.740   5.608  15.164  0.00  0.00    +0.000 C 
BRANCH  18  19
ATOM     19  C   UNL     1       6.928   4.139  14.795  0.00  0.00    +0.000 C 
BRANCH  19  20
ATOM     20  N   UNL     1       6.278   3.833  13.534  0.00  0.00    +0.000 N 
ATOM     21  C   UNL     1       4.936   3.736  13.305  0.00  0.00    +0.000 A 
ATOM     22  C   UNL     1       4.803   3.377  11.986  0.00  0.00    +0.000 A 
ATOM     23  C   UNL     1       6.124   3.283  11.507  0.00  0.00    +0.000 A 
ATOM     24  N   UNL     1       7.026   3.560  12.450  0.00  0.00    +0.000 NA
ENDBRANCH  19  20
ENDBRANCH  18  19
ENDBRANCH   8  18
TORSDOF 6
ENDMDL
MODEL 4
REMARK VINA RESULT:      -7.2      0.787      1.117
REMARK  Name = 
REMARK  7 active torsions:
REMARK  status: ('A' for Active; 'I' for Inactive)
REMARK    1  A    between atoms: C_1  and  C_2
REMARK    2  A    between atoms: C_2  and  N_3
REMARK    3  A    between atoms: C_6  and  C_7
REMARK    4  A    between atoms: C_7  and  C_8
REMARK    5  A    between atoms: C_15  and  C_16
REMARK    6  A    between atoms: C_16  and  C_17
REMARK    7  A    between atoms: C_17  and  N_18
REMARK                            x       y       z     vdW  Elec       q    Type
REMARK                         _______ _______ _______ _____ _____    ______ ____
ROOT
ATOM      1  C   UNL     1       4.332   3.642  19.215  0.00  0.00    +0.000 C 
ATOM      2  O   UNL     1       5.131   2.794  19.609  0.00  0.00    +0.000 OA
ATOM      3  N   UNL     1       3.240   4.047  19.986  0.00  0.00    +0.000 N 
ATOM      4  C   UNL     1       3.107   3.503  21.344  0.00  0.00    +0.000 C 
ATOM      5  C   UNL     1       2.001   2.453  21.430  0.00  0.00    +0.000 C 
ATOM      6  C   UNL     1       0.693   2.941  20.808  0.00  0.00    +0.000 C 
ATOM      7  C   UNL     1       0.931   3.509  19.407  0.00  0.00    +0.000 C 
ATOM      8  C   UNL     1       2.007   4.612  19.406  0.00  0.00    +0.000 C 
ENDROOT
BRANCH   1   9
ATOM      9  C   UNL     1       4.514   4.362  17.883  0.00  0.00    +0.000 C 
BRANCH   9  13
ATOM     10  N   UNL     1       6.996   5.491  15.329  0.00  0.00    +0.000 NA
ATOM     11  C   UNL     1       5.616   5.996  15.398  0.00  0.00    +0.000 C 
ATOM     12  C   UNL     1       5.284   6.572  16.773  0.00  0.00    +0.000 C 
ATOM     13  C   UNL     1       5.496   5.552  17.899  0.00  0.00    +0.000 C 
ATOM     14  C   UNL     1       6.945   5.051  17.792  0.00  0.00    +0.000 C 
ATOM     15  C   UNL     1       7.289   4.521  16.394  0.00  0.00    +0.000 C 
BRANCH  10  17
ATOM     16  C   UNL     1       6.252   3.885  13.531  0.00  0.00    +0.000 C 
ATOM     17  C   UNL     1       7.249   4.947  13.982  0.00  0.00    +0.000 C 
ENDBRANCH  10  17
ENDBRANCH   9  13
ENDBRANCH   1   9
BRANCH   8  18
ATOM     18  C   UNL     1       1.544   5.886  20.128  0.00  0.00    +0.000 C 
BRANCH  18  19
ATOM     19  C   UNL     1       2.302   7.126  19.662  0.00  0.00    +0.000 C 
BRANCH  19  20
ATOM     20  N   UNL     1       1.634   8.338  20.099  0.00  0.00    +0.000 N 
ATOM     21  C   UNL     1       1.280   8.665  21.375  0.00  0.00    +0.000 A 
ATOM     22  C   UNL     1       0.629   9.871  21.289  0.00  0.00    +0.000 A 
ATOM     23  C   UNL     1       0.643  10.187  19.917  0.00  0.00    +0.000 A 
ATOM     24  N   UNL     1       1.254   9.252  19.188  0.00  0.00    +0.000 NA
ENDBRANCH  19  20
ENDBRANCH  18  19
ENDBRANCH   8  18
TORSDOF 6
ENDMDL
MODEL 5
REMARK VINA RESULT:      -7.1      1.698      2.681
REMARK  Name = 
REMARK  7 active torsions:
REMARK  status: ('A' for Active; 'I' for Inactive)
REMARK    1  A    between atoms: C_1  and  C_2
REMARK    2  A    between atoms: C_2  and  N_3
REMARK    3  A    between atoms: C_6  and  C_7
REMARK    4  A    between atoms: C_7  and  C_8
REMARK    5  A    between atoms: C_15  and  C_16
REMARK    6  A    between atoms: C_16  and  C_17
REMARK    7  A    between atoms: C_17  and  N_18
REMARK                            x       y       z     vdW  Elec       q    Type
REMARK                         _______ _______ _______ _____ _____    ______ ____
ROOT
ATOM      1  C   UNL     1       4.615   3.524  19.696  0.00  0.00    +0.000 C 
ATOM      2  O   UNL     1       4.983   2.369  19.910  0.00  0.00    +0.000 OA
ATOM      3  N   UNL     1       3.278   3.909  19.815  0.00  0.00    +0.000 N 
ATOM      4  C   UNL     1       2.309   2.919  20.300  0.00  0.00    +0.000 C 
ATOM      5  C   UNL     1       1.422   2.392  19.174  0.00  0.00    +0.000 C 
ATOM      6  C   UNL     1       0.816   3.521  18.340  0.00  0.00    +0.000 C 
ATOM      7  C   UNL     1       1.893   4.514  17.897  0.00  0.00    +0.000 C 
ATOM      8  C   UNL     1       2.702   5.059  19.091  0.00  0.00    +0.000 C 
ENDROOT
BRANCH   1   9
ATOM      9  C   UNL     1       5.604   4.633  19.351  0.00  0.00    +0.000 C 
BRANCH   9  13
ATOM     10  N   UNL     1       7.150   7.264  17.196  0.00  0.00    +0.000 NA
ATOM     11  C   UNL     1       7.911   6.454  18.160  0.00  0.00    +0.000 C 
ATOM     12  C   UNL     1       7.736   4.956  17.917  0.00  0.00    +0.000 C 
ATOM     13  C   UNL     1       6.264   4.527  17.961  0.00  0.00    +0.000 C 
ATOM     14  C   UNL     1       5.506   5.394  16.942  0.00  0.00    +0.000 C 
ATOM     15  C   UNL     1       5.727   6.897  17.159  0.00  0.00    +0.000 C 
BRANCH  10  17
ATOM     16  C   UNL     1       8.574   8.990  18.359  0.00  0.00    +0.000 C 
ATOM     17  C   UNL     1       7.359   8.693  17.489  0.00  0.00    +0.000 C 
ENDBRANCH  10  17
ENDBRANCH   9  13
ENDBRANCH   1   9
BRANCH   8  18
ATOM     18  C   UNL     1       1.865   5.971  20.001  0.00  0.00    +0.000 C 
BRANCH  18  19
ATOM     19  C   UNL     1       2.213   7.446  19.822  0.00  0.00    +0.000 C 
BRANCH  19  20
ATOM     20  N   UNL     1       1.198   8.294  20.418  0.00  0.00    +0.000 N 
ATOM     21  C   UNL     1       0.821   9.539  20.003  0.00  0.00    +0.000 A 
ATOM     22  C   UNL     1      -0.125   9.966  20.902  0.00  0.00    +0.000 A 
ATOM     23  C   UNL     1      -0.250   8.907  21.821  0.00  0.00    +0.000 A 
ATOM     24  N   UNL     1       0.558   7.885  21.528  0.00  0.00    +0.000 NA
ENDBRANCH  19  20
ENDBRANCH  18  19
ENDBRANCH   8  18
TORSDOF 6
ENDMDL
MODEL 6
REMARK VINA RESULT:      -6.7      1.378      2.233
REMARK  Name = 
REMARK  7 active torsions:
REMARK  status: ('A' for Active; 'I' for Inactive)
REMARK    1  A    between atoms: C_1  and  C_2
REMARK    2  A    between atoms: C_2  and  N_3
REMARK    3  A    between atoms: C_6  and  C_7
REMARK    4  A    between atoms: C_7  and  C_8
REMARK    5  A    between atoms: C_15  and  C_16
REMARK    6  A    between atoms: C_16  and  C_17
REMARK    7  A    between atoms: C_17  and  N_18
REMARK                            x       y       z     vdW  Elec       q    Type
REMARK                         _______ _______ _______ _____ _____    ______ ____
ROOT
ATOM      1  C   UNL     1       3.859   2.934  17.867  0.00  0.00    +0.000 C 
ATOM      2  O   UNL     1       4.178   1.745  17.868  0.00  0.00    +0.000 OA
ATOM      3  N   UNL     1       3.431   3.587  19.025  0.00  0.00    +0.000 N 
ATOM      4  C   UNL     1       3.457   2.846  20.292  0.00  0.00    +0.000 C 
ATOM      5  C   UNL     1       2.055   2.436  20.739  0.00  0.00    +0.000 C 
ATOM      6  C   UNL     1       1.073   3.607  20.705  0.00  0.00    +0.000 C 
ATOM      7  C   UNL     1       1.130   4.331  19.359  0.00  0.00    +0.000 C 
ATOM      8  C   UNL     1       2.561   4.779  19.005  0.00  0.00    +0.000 C 
ENDROOT
BRANCH   1   9
ATOM      9  C   UNL     1       3.972   3.796  16.614  0.00  0.00    +0.000 C 
BRANCH   9  13
ATOM     10  N   UNL     1       6.555   6.494  16.698  0.00  0.00    +0.000 NA
ATOM     11  C   UNL     1       6.509   5.384  17.663  0.00  0.00    +0.000 C 
ATOM     12  C   UNL     1       6.527   4.021  16.972  0.00  0.00    +0.000 C 
ATOM     13  C   UNL     1       5.374   3.860  15.974  0.00  0.00    +0.000 C 
ATOM     14  C   UNL     1       5.458   5.035  14.986  0.00  0.00    +0.000 C 
ATOM     15  C   UNL     1       5.492   6.399  15.688  0.00  0.00    +0.000 C 
BRANCH  10  17
ATOM     16  C   UNL     1       7.901   8.405  17.648  0.00  0.00    +0.000 C 
ATOM     17  C   UNL     1       6.530   7.774  17.429  0.00  0.00    +0.000 C 
ENDBRANCH  10  17
ENDBRANCH   9  13
ENDBRANCH   1   9
BRANCH   8  18
ATOM     18  C   UNL     1       3.072   5.898  19.925  0.00  0.00    +0.000 C 
BRANCH  18  19
ATOM     19  C   UNL     1       1.953   6.832  20.379  0.00  0.00    +0.000 C 
BRANCH  19  20
ATOM     20  N   UNL     1       1.836   7.973  19.490  0.00  0.00    +0.000 N 
ATOM     21  C   UNL     1       2.415   8.120  18.264  0.00  0.00    +0.000 A 
ATOM     22  C   UNL     1       2.066   9.376  17.830  0.00  0.00    +0.000 A 
ATOM     23  C   UNL     1       1.274   9.905  18.866  0.00  0.00    +0.000 A 
ATOM     24  N   UNL     1       1.133   9.051  19.882  0.00  0.00    +0.000 NA
ENDBRANCH  19  20
ENDBRANCH  18  19
ENDBRANCH   8  18
TORSDOF 6
ENDMDL
MODEL 7
REMARK VINA RESULT:      -6.7      1.502      2.291
REMARK  Name = 
REMARK  7 active torsions:
REMARK  status: ('A' for Active; 'I' for Inactive)
REMARK    1  A    between atoms: C_1  and  C_2
REMARK    2  A    between atoms: C_2  and  N_3
REMARK    3  A    between atoms: C_6  and  C_7
REMARK    4  A    between atoms: C_7  and  C_8
REMARK    5  A    between atoms: C_15  and  C_16
REMARK    6  A    between atoms: C_16  and  C_17
REMARK    7  A    between atoms: C_17  and  N_18
REMARK                            x       y       z     vdW  Elec       q    Type
REMARK                         _______ _______ _______ _____ _____    ______ ____
ROOT
ATOM      1  C   UNL     1       4.706   3.798  18.776  0.00  0.00    +0.000 C 
ATOM      2  O   UNL     1       5.417   3.147  19.540  0.00  0.00    +0.000 OA
ATOM      3  N   UNL     1       3.441   4.258  19.150  0.00  0.00    +0.000 N 
ATOM      4  C   UNL     1       2.999   4.029  20.532  0.00  0.00    +0.000 C 
ATOM      5  C   UNL     1       1.951   2.922  20.618  0.00  0.00    +0.000 C 
ATOM      6  C   UNL     1       0.818   3.120  19.611  0.00  0.00    +0.000 C 
ATOM      7  C   UNL     1       1.372   3.371  18.207  0.00  0.00    +0.000 C 
ATOM      8  C   UNL     1       2.367   4.547  18.181  0.00  0.00    +0.000 C 
ENDROOT
BRANCH   1   9
ATOM      9  C   UNL     1       5.182   4.208  17.386  0.00  0.00    +0.000 C 
BRANCH   9  13
ATOM     10  N   UNL     1       7.674   6.985  17.212  0.00  0.00    +0.000 NA
ATOM     11  C   UNL     1       7.341   6.270  18.454  0.00  0.00    +0.000 C 
ATOM     12  C   UNL     1       7.535   4.761  18.317  0.00  0.00    +0.000 C 
ATOM     13  C   UNL     1       6.709   4.170  17.167  0.00  0.00    +0.000 C 
ATOM     14  C   UNL     1       7.085   4.942  15.892  0.00  0.00    +0.000 C 
ATOM     15  C   UNL     1       6.939   6.461  16.053  0.00  0.00    +0.000 C 
BRANCH  10  17
ATOM     16  C   UNL     1       8.512   9.110  18.284  0.00  0.00    +0.000 C 
ATOM     17  C   UNL     1       7.462   8.431  17.412  0.00  0.00    +0.000 C 
ENDBRANCH  10  17
ENDBRANCH   9  13
ENDBRANCH   1   9
BRANCH   8  18
ATOM     18  C   UNL     1       1.687   5.900  18.439  0.00  0.00    +0.000 C 
BRANCH  18  19
ATOM     19  C   UNL     1       2.694   7.042  18.563  0.00  0.00    +0.000 C 
BRANCH  19  20
ATOM     20  N   UNL     1       2.018   8.311  18.749  0.00  0.00    +0.000 N 
ATOM     21  C   UNL     1       1.942   9.340  17.856  0.00  0.00    +0.000 A 
ATOM     22  C   UNL     1       1.254  10.344  18.493  0.00  0.00    +0.000 A 
ATOM     23  C   UNL     1       0.959   9.822  19.766  0.00  0.00    +0.000 A 
ATOM     24  N   UNL     1       1.424   8.582  19.927  0.00  0.00    +0.000 NA
ENDBRANCH  19  20
ENDBRANCH  18  19
ENDBRANCH   8  18
TORSDOF 6
ENDMDL
MODEL 8
REMARK VINA RESULT:      -6.7      0.942      1.080
REMARK  Name = 
REMARK  7 active torsions:
REMARK  status: ('A' for Active; 'I' for Inactive)
REMARK    1  A    between atoms: C_1  and  C_2
REMARK    2  A    between atoms: C_2  and  N_3
REMARK    3  A    between atoms: C_6  and  C_7
REMARK    4  A    between atoms: C_7  and  C_8
REMARK    5  A    between atoms: C_15  and  C_16
REMARK    6  A    between atoms: C_16  and  C_17
REMARK    7  A    between atoms: C_17  and  N_18
REMARK                            x       y       z     vdW  Elec       q    Type
REMARK                         _______ _______ _______ _____ _____    ______ ____
ROOT
ATOM      1  C   UNL     1       4.749   4.351  19.264  0.00  0.00    +0.000 C 
ATOM      2  O   UNL     1       5.519   3.427  19.524  0.00  0.00    +0.000 OA
ATOM      3  N   UNL     1       3.405   4.323  19.643  0.00  0.00    +0.000 N 
ATOM      4  C   UNL     1       2.934   3.194  20.456  0.00  0.00    +0.000 C 
ATOM      5  C   UNL     1       2.092   2.217  19.638  0.00  0.00    +0.000 C 
ATOM      6  C   UNL     1       0.999   2.926  18.839  0.00  0.00    +0.000 C 
ATOM      7  C   UNL     1       1.576   4.098  18.042  0.00  0.00    +0.000 C 
ATOM      8  C   UNL     1       2.351   5.081  18.940  0.00  0.00    +0.000 C 
ENDROOT
BRANCH   1   9
ATOM      9  C   UNL     1       5.222   5.623  18.568  0.00  0.00    +0.000 C 
BRANCH   9  13
ATOM     10  N   UNL     1       7.477   5.413  15.598  0.00  0.00    +0.000 NA
ATOM     11  C   UNL     1       6.880   6.670  16.076  0.00  0.00    +0.000 C 
ATOM     12  C   UNL     1       7.205   6.937  17.545  0.00  0.00    +0.000 C 
ATOM     13  C   UNL     1       6.751   5.792  18.459  0.00  0.00    +0.000 C 
ATOM     14  C   UNL     1       7.395   4.501  17.927  0.00  0.00    +0.000 C 
ATOM     15  C   UNL     1       7.109   4.265  16.438  0.00  0.00    +0.000 C 
BRANCH  10  17
ATOM     16  C   UNL     1       6.244   3.998  13.912  0.00  0.00    +0.000 C 
ATOM     17  C   UNL     1       7.123   5.214  14.181  0.00  0.00    +0.000 C 
ENDBRANCH  10  17
ENDBRANCH   9  13
ENDBRANCH   1   9
BRANCH   8  18
ATOM     18  C   UNL     1       1.433   5.848  19.903  0.00  0.00    +0.000 C 
BRANCH  18  19
ATOM     19  C   UNL     1       2.069   7.141  20.406  0.00  0.00    +0.000 C 
BRANCH  19  20
ATOM     20  N   UNL     1       1.768   8.247  19.517  0.00  0.00    +0.000 N 
ATOM     21  C   UNL     1       2.208   8.415  18.236  0.00  0.00    +0.000 A 
ATOM     22  C   UNL     1       1.712   9.626  17.822  0.00  0.00    +0.000 A 
ATOM     23  C   UNL     1       0.985  10.111  18.925  0.00  0.00    +0.000 A 
ATOM     24  N   UNL     1       1.018   9.272  19.962  0.00  0.00    +0.000 NA
ENDBRANCH  19  20
ENDBRANCH  18  19
ENDBRANCH   8  18
TORSDOF 6
ENDMDL
MODEL 9
REMARK VINA RESULT:      -6.7      1.492      2.382
REMARK  Name = 
REMARK  7 active torsions:
REMARK  status: ('A' for Active; 'I' for Inactive)
REMARK    1  A    between atoms: C_1  and  C_2
REMARK    2  A    between atoms: C_2  and  N_3
REMARK    3  A    between atoms: C_6  and  C_7
REMARK    4  A    between atoms: C_7  and  C_8
REMARK    5  A    between atoms: C_15  and  C_16
REMARK    6  A    between atoms: C_16  and  C_17
REMARK    7  A    between atoms: C_17  and  N_18
REMARK                            x       y       z     vdW  Elec       q    Type
REMARK                         _______ _______ _______ _____ _____    ______ ____
ROOT
ATOM      1  C   UNL     1       3.892   2.980  17.944  0.00  0.00    +0.000 C 
ATOM      2  O   UNL     1       4.271   1.811  18.020  0.00  0.00    +0.000 OA
ATOM      3  N   UNL     1       3.391   3.670  19.050  0.00  0.00    +0.000 N 
ATOM      4  C   UNL     1       3.410   2.999  20.356  0.00  0.00    +0.000 C 
ATOM      5  C   UNL     1       2.017   2.540  20.780  0.00  0.00    +0.000 C 
ATOM      6  C   UNL     1       0.978   3.654  20.651  0.00  0.00    +0.000 C 
ATOM      7  C   UNL     1       1.045   4.308  19.269  0.00  0.00    +0.000 C 
ATOM      8  C   UNL     1       2.463   4.812  18.937  0.00  0.00    +0.000 C 
ENDROOT
BRANCH   1   9
ATOM      9  C   UNL     1       4.004   3.780  16.650  0.00  0.00    +0.000 C 
BRANCH   9  13
ATOM     10  N   UNL     1       6.570   6.495  16.644  0.00  0.00    +0.000 NA
ATOM     11  C   UNL     1       6.525   5.424  17.651  0.00  0.00    +0.000 C 
ATOM     12  C   UNL     1       6.555   4.035  17.015  0.00  0.00    +0.000 C 
ATOM     13  C   UNL     1       5.410   3.827  16.017  0.00  0.00    +0.000 C 
ATOM     14  C   UNL     1       5.493   4.962  14.984  0.00  0.00    +0.000 C 
ATOM     15  C   UNL     1       5.514   6.354  15.631  0.00  0.00    +0.000 C 
BRANCH  10  17
ATOM     16  C   UNL     1       7.897   8.335  17.747  0.00  0.00    +0.000 C 
ATOM     17  C   UNL     1       6.533   7.803  17.322  0.00  0.00    +0.000 C 
ENDBRANCH  10  17
ENDBRANCH   9  13
ENDBRANCH   1   9
BRANCH   8  18
ATOM     18  C   UNL     1       2.884   6.003  19.811  0.00  0.00    +0.000 C 
BRANCH  18  19
ATOM     19  C   UNL     1       2.629   7.344  19.127  0.00  0.00    +0.000 C 
BRANCH  19  20
ATOM     20  N   UNL     1       1.680   8.140  19.882  0.00  0.00    +0.000 N 
ATOM     21  C   UNL     1       1.145   9.342  19.520  0.00  0.00    +0.000 A 
ATOM     22  C   UNL     1       0.350   9.733  20.570  0.00  0.00    +0.000 A 
ATOM     23  C   UNL     1       0.473   8.698  21.516  0.00  0.00    +0.000 A 
ATOM     24  N   UNL     1       1.285   7.724  21.100  0.00  0.00    +0.000 NA
ENDBRANCH  19  20
ENDBRANCH  18  19
ENDBRANCH   8  18
TORSDOF 6
ENDMDL
