MODEL 1
REMARK VINA RESULT:      -8.2      0.000      0.000
REMARK  Name = 
REMARK  7 active torsions:
REMARK  status: ('A' for Active; 'I' for Inactive)
REMARK    1  A    between atoms: C_1  and  C_2
REMARK    2  A    between atoms: C_2  and  C_3
REMARK    3  A    between atoms: C_3  and  S_4
REMARK    4  A    between atoms: C_3  and  C_18
REMARK    5  A    between atoms: S_4  and  C_5
REMARK    6  A    between atoms: C_8  and  C_9
REMARK    7  A    between atoms: N_20  and  C_21
REMARK                            x       y       z     vdW  Elec       q    Type
REMARK                         _______ _______ _______ _____ _____    ______ ____
ROOT
ATOM      1  C   UNL     1       2.528   4.021  20.420  0.00  0.00    +0.000 C 
ENDROOT
BRANCH   1   2
ATOM      2  C   UNL     1       2.169   5.244  19.564  0.00  0.00    +0.000 C 
ATOM      3  O   UNL     1       1.717   5.103  18.432  0.00  0.00    +0.000 OA
ATOM      4  N   UNL     1       2.363   6.477  20.168  0.00  0.00    +0.000 N 
ATOM      5  H   UNL     1       2.990   6.520  20.966  0.00  0.00    +0.000 HD
BRANCH   4   6
ATOM      6  C   UNL     1       2.000   7.713  19.577  0.00  0.00    +0.000 A 
ATOM      7  C   UNL     1       2.440   8.096  18.305  0.00  0.00    +0.000 A 
ATOM      8  C   UNL     1       2.104   9.339  17.772  0.00  0.00    +0.000 A 
ATOM      9  C   UNL     1       1.307  10.215  18.507  0.00  0.00    +0.000 A 
ATOM     10  C   UNL     1       0.830   9.837  19.758  0.00  0.00    +0.000 A 
ATOM     11  C   UNL     1       1.168   8.588  20.281  0.00  0.00    +0.000 A 
ATOM     12  F   UNL     1       0.714   8.246  21.497  0.00  0.00    +0.000 F 
ENDBRANCH   4   6
ENDBRANCH   1   2
BRANCH   1  14
ATOM     13  C   UNL     1       1.339   2.266  21.955  0.00  0.00    +0.000 C 
ATOM     14  C   UNL     1       1.224   3.451  21.017  0.00  0.00    +0.000 C 
ENDBRANCH   1  14
BRANCH   1  15
ATOM     15  S   UNL     1       3.601   2.870  19.486  0.00  0.00    +0.000 S 
BRANCH  15  16
ATOM     16  C   UNL     1       4.930   3.917  19.070  0.00  0.00    +0.000 A 
ATOM     17  N   UNL     1       5.538   4.589  19.997  0.00  0.00    +0.000 NA
ATOM     18  N   UNL     1       6.584   5.483  19.652  0.00  0.00    +0.000 NA
ATOM     19  C   UNL     1       6.932   5.626  18.409  0.00  0.00    +0.000 A 
ATOM     20  C   UNL     1       8.002   6.586  18.006  0.00  0.00    +0.000 C 
ATOM     21  N   UNL     1       6.311   4.908  17.392  0.00  0.00    +0.000 N 
ATOM     22  C   UNL     1       5.276   4.045  17.681  0.00  0.00    +0.000 A 
ATOM     23  C   UNL     1       4.791   3.495  16.511  0.00  0.00    +0.000 A 
ATOM     24  C   UNL     1       5.616   4.013  15.474  0.00  0.00    +0.000 A 
ATOM     25  S   UNL     1       5.788   3.866  13.757  0.00  0.00    +0.000 S 
ATOM     26  C   UNL     1       7.100   4.970  13.795  0.00  0.00    +0.000 A 
ATOM     27  C   UNL     1       7.401   5.449  15.053  0.00  0.00    +0.000 A 
ATOM     28  C   UNL     1       6.527   4.871  16.024  0.00  0.00    +0.000 A 
ENDBRANCH  15  16
ENDBRANCH   1  15
TORSDOF 5
ENDMDL
MODEL 2
REMARK VINA RESULT:      -8.1      1.115      1.449
REMARK  Name = 
REMARK  7 active torsions:
REMARK  status: ('A' for Active; 'I' for Inactive)
REMARK    1  A    between atoms: C_1  and  C_2
REMARK    2  A    between atoms: C_2  and  C_3
REMARK    3  A    between atoms: C_3  and  S_4
REMARK    4  A    between atoms: C_3  and  C_18
REMARK    5  A    between atoms: S_4  and  C_5
REMARK    6  A    between atoms: C_8  and  C_9
REMARK    7  A    between atoms: N_20  and  C_21
REMARK                            x       y       z     vdW  Elec       q    Type
REMARK                         _______ _______ _______ _____ _____    ______ ____
ROOT
ATOM      1  C   UNL     1       2.870   3.615  20.122  0.00  0.00    +0.000 C 
ENDROOT
BRANCH   1   2
ATOM      2  C   UNL     1       2.387   4.867  19.375  0.00  0.00    +0.000 C 
ATOM      3  O   UNL     1       1.699   4.765  18.364  0.00  0.00    +0.000 OA
ATOM      4  N   UNL     1       2.756   6.081  19.935  0.00  0.00    +0.000 N 
ATOM      5  H   UNL     1       3.540   6.085  20.582  0.00  0.00    +0.000 HD
BRANCH   4   6
ATOM      6  C   UNL     1       2.327   7.340  19.448  0.00  0.00    +0.000 A 
ATOM      7  C   UNL     1       1.459   8.168  20.166  0.00  0.00    +0.000 A 
ATOM      8  C   UNL     1       1.018   9.380  19.637  0.00  0.00    +0.000 A 
ATOM      9  C   UNL     1       1.454   9.785  18.377  0.00  0.00    +0.000 A 
ATOM     10  C   UNL     1       2.347   8.992  17.664  0.00  0.00    +0.000 A 
ATOM     11  C   UNL     1       2.787   7.783  18.204  0.00  0.00    +0.000 A 
ATOM     12  F   UNL     1       3.634   7.022  17.494  0.00  0.00    +0.000 F 
ENDBRANCH   4   6
ENDBRANCH   1   2
BRANCH   1  14
ATOM     13  C   UNL     1       1.590   2.520  22.125  0.00  0.00    +0.000 C 
ATOM     14  C   UNL     1       1.630   2.862  20.649  0.00  0.00    +0.000 C 
ENDBRANCH   1  14
BRANCH   1  15
ATOM     15  S   UNL     1       4.060   2.672  19.103  0.00  0.00    +0.000 S 
BRANCH  15  16
ATOM     16  C   UNL     1       5.183   3.925  18.654  0.00  0.00    +0.000 A 
ATOM     17  N   UNL     1       5.625   4.749  19.553  0.00  0.00    +0.000 NA
ATOM     18  N   UNL     1       6.497   5.804  19.179  0.00  0.00    +0.000 NA
ATOM     19  C   UNL     1       6.851   5.943  17.938  0.00  0.00    +0.000 A 
ATOM     20  C   UNL     1       7.736   7.064  17.502  0.00  0.00    +0.000 C 
ATOM     21  N   UNL     1       6.408   5.068  16.951  0.00  0.00    +0.000 N 
ATOM     22  C   UNL     1       5.543   4.042  17.268  0.00  0.00    +0.000 A 
ATOM     23  C   UNL     1       5.206   3.349  16.123  0.00  0.00    +0.000 A 
ATOM     24  C   UNL     1       5.953   3.956  15.074  0.00  0.00    +0.000 A 
ATOM     25  S   UNL     1       6.204   3.753  13.373  0.00  0.00    +0.000 S 
ATOM     26  C   UNL     1       7.285   5.084  13.374  0.00  0.00    +0.000 A 
ATOM     27  C   UNL     1       7.451   5.678  14.608  0.00  0.00    +0.000 A 
ATOM     28  C   UNL     1       6.670   4.999  15.593  0.00  0.00    +0.000 A 
ENDBRANCH  15  16
ENDBRANCH   1  15
TORSDOF 5
ENDMDL
MODEL 3
REMARK VINA RESULT:      -7.8      2.941      7.234
REMARK  Name = 
REMARK  7 active torsions:
REMARK  status: ('A' for Active; 'I' for Inactive)
REMARK    1  A    between atoms: C_1  and  C_2
REMARK    2  A    between atoms: C_2  and  C_3
REMARK    3  A    between atoms: C_3  and  S_4
REMARK    4  A    between atoms: C_3  and  C_18
REMARK    5  A    between atoms: S_4  and  C_5
REMARK    6  A    between atoms: C_8  and  C_9
REMARK    7  A    between atoms: N_20  and  C_21
REMARK                            x       y       z     vdW  Elec       q    Type
REMARK                         _______ _______ _______ _____ _____    ______ ____
ROOT
ATOM      1  C   UNL     1       1.924   4.710  19.345  0.00  0.00    +0.000 C 
ENDROOT
BRANCH   1   2
ATOM      2  C   UNL     1       3.315   4.504  18.728  0.00  0.00    +0.000 C 
ATOM      3  O   UNL     1       4.142   3.785  19.280  0.00  0.00    +0.000 OA
ATOM      4  N   UNL     1       3.539   5.153  17.523  0.00  0.00    +0.000 N 
ATOM      5  H   UNL     1       2.934   5.934  17.286  0.00  0.00    +0.000 HD
BRANCH   4   6
ATOM      6  C   UNL     1       4.721   5.008  16.755  0.00  0.00    +0.000 A 
ATOM      7  C   UNL     1       4.882   3.990  15.809  0.00  0.00    +0.000 A 
ATOM      8  C   UNL     1       6.076   3.845  15.104  0.00  0.00    +0.000 A 
ATOM      9  C   UNL     1       7.126   4.733  15.332  0.00  0.00    +0.000 A 
ATOM     10  C   UNL     1       6.971   5.773  16.242  0.00  0.00    +0.000 A 
ATOM     11  C   UNL     1       5.771   5.912  16.939  0.00  0.00    +0.000 A 
ATOM     12  F   UNL     1       5.644   6.912  17.826  0.00  0.00    +0.000 F 
ENDBRANCH   4   6
ENDBRANCH   1   2
BRANCH   1  14
ATOM     13  C   UNL     1       1.215   2.833  21.025  0.00  0.00    +0.000 C 
ATOM     14  C   UNL     1       1.297   3.322  19.593  0.00  0.00    +0.000 C 
ENDBRANCH   1  14
BRANCH   1  15
ATOM     15  S   UNL     1       2.009   5.863  20.763  0.00  0.00    +0.000 S 
BRANCH  15  16
ATOM     16  C   UNL     1       1.840   7.397  19.956  0.00  0.00    +0.000 A 
ATOM     17  N   UNL     1       2.390   7.582  18.797  0.00  0.00    +0.000 NA
ATOM     18  N   UNL     1       2.300   8.849  18.164  0.00  0.00    +0.000 NA
ATOM     19  C   UNL     1       1.666   9.820  18.747  0.00  0.00    +0.000 A 
ATOM     20  C   UNL     1       1.584  11.177  18.128  0.00  0.00    +0.000 C 
ATOM     21  N   UNL     1       1.051   9.652  19.983  0.00  0.00    +0.000 N 
ATOM     22  C   UNL     1       1.133   8.444  20.642  0.00  0.00    +0.000 A 
ATOM     23  C   UNL     1       0.496   8.537  21.863  0.00  0.00    +0.000 A 
ATOM     24  C   UNL     1      -0.044   9.853  21.913  0.00  0.00    +0.000 A 
ATOM     25  S   UNL     1      -0.995  10.826  22.985  0.00  0.00    +0.000 S 
ATOM     26  C   UNL     1      -0.914  12.129  21.872  0.00  0.00    +0.000 A 
ATOM     27  C   UNL     1      -0.188  11.855  20.731  0.00  0.00    +0.000 A 
ATOM     28  C   UNL     1       0.307  10.516  20.769  0.00  0.00    +0.000 A 
ENDBRANCH  15  16
ENDBRANCH   1  15
TORSDOF 5
ENDMDL
MODEL 4
REMARK VINA RESULT:      -7.7      3.090      7.253
REMARK  Name = 
REMARK  7 active torsions:
REMARK  status: ('A' for Active; 'I' for Inactive)
REMARK    1  A    between atoms: C_1  and  C_2
REMARK    2  A    between atoms: C_2  and  C_3
REMARK    3  A    between atoms: C_3  and  S_4
REMARK    4  A    between atoms: C_3  and  C_18
REMARK    5  A    between atoms: S_4  and  C_5
REMARK    6  A    between atoms: C_8  and  C_9
REMARK    7  A    between atoms: N_20  and  C_21
REMARK                            x       y       z     vdW  Elec       q    Type
REMARK                         _______ _______ _______ _____ _____    ______ ____
ROOT
ATOM      1  C   UNL     1       1.251   4.859  19.683  0.00  0.00    +0.000 C 
ENDROOT
BRANCH   1   2
ATOM      2  C   UNL     1       2.029   4.649  18.376  0.00  0.00    +0.000 C 
ATOM      3  O   UNL     1       1.458   4.250  17.366  0.00  0.00    +0.000 OA
ATOM      4  N   UNL     1       3.380   4.964  18.424  0.00  0.00    +0.000 N 
ATOM      5  H   UNL     1       3.823   5.007  19.337  0.00  0.00    +0.000 HD
BRANCH   4   6
ATOM      6  C   UNL     1       4.240   4.928  17.299  0.00  0.00    +0.000 A 
ATOM      7  C   UNL     1       4.664   6.086  16.639  0.00  0.00    +0.000 A 
ATOM      8  C   UNL     1       5.472   6.014  15.506  0.00  0.00    +0.000 A 
ATOM      9  C   UNL     1       5.878   4.772  15.023  0.00  0.00    +0.000 A 
ATOM     10  C   UNL     1       5.497   3.610  15.687  0.00  0.00    +0.000 A 
ATOM     11  C   UNL     1       4.692   3.693  16.824  0.00  0.00    +0.000 A 
ATOM     12  F   UNL     1       4.318   2.562  17.442  0.00  0.00    +0.000 F 
ENDBRANCH   4   6
ENDBRANCH   1   2
BRANCH   1  14
ATOM     13  C   UNL     1       1.954   2.718  21.013  0.00  0.00    +0.000 C 
ATOM     14  C   UNL     1       0.883   3.472  20.252  0.00  0.00    +0.000 C 
ENDBRANCH   1  14
BRANCH   1  15
ATOM     15  S   UNL     1       2.140   6.015  20.787  0.00  0.00    +0.000 S 
BRANCH  15  16
ATOM     16  C   UNL     1       1.849   7.533  19.985  0.00  0.00    +0.000 A 
ATOM     17  N   UNL     1       2.347   7.749  18.807  0.00  0.00    +0.000 NA
ATOM     18  N   UNL     1       2.157   9.005  18.177  0.00  0.00    +0.000 NA
ATOM     19  C   UNL     1       1.483   9.937  18.779  0.00  0.00    +0.000 A 
ATOM     20  C   UNL     1       1.295  11.284  18.161  0.00  0.00    +0.000 C 
ATOM     21  N   UNL     1       0.921   9.734  20.035  0.00  0.00    +0.000 N 
ATOM     22  C   UNL     1       1.100   8.535  20.692  0.00  0.00    +0.000 A 
ATOM     23  C   UNL     1       0.498   8.593  21.933  0.00  0.00    +0.000 A 
ATOM     24  C   UNL     1      -0.121   9.872  22.000  0.00  0.00    +0.000 A 
ATOM     25  S   UNL     1      -1.096  10.787  23.101  0.00  0.00    +0.000 S 
ATOM     26  C   UNL     1      -1.134  12.088  21.985  0.00  0.00    +0.000 A 
ATOM     27  C   UNL     1      -0.430  11.857  20.821  0.00  0.00    +0.000 A 
ATOM     28  C   UNL     1       0.150  10.552  20.844  0.00  0.00    +0.000 A 
ENDBRANCH  15  16
ENDBRANCH   1  15
TORSDOF 5
ENDMDL
MODEL 5
REMARK VINA RESULT:      -7.5      3.126      7.394
REMARK  Name = 
REMARK  7 active torsions:
REMARK  status: ('A' for Active; 'I' for Inactive)
REMARK    1  A    between atoms: C_1  and  C_2
REMARK    2  A    between atoms: C_2  and  C_3
REMARK    3  A    between atoms: C_3  and  S_4
REMARK    4  A    between atoms: C_3  and  C_18
REMARK    5  A    between atoms: S_4  and  C_5
REMARK    6  A    between atoms: C_8  and  C_9
REMARK    7  A    between atoms: N_20  and  C_21
REMARK                            x       y       z     vdW  Elec       q    Type
REMARK                         _______ _______ _______ _____ _____    ______ ____
ROOT
ATOM      1  C   UNL     1       1.795   4.684  19.738  0.00  0.00    +0.000 C 
ENDROOT
BRANCH   1   2
ATOM      2  C   UNL     1       3.232   4.300  19.356  0.00  0.00    +0.000 C 
ATOM      3  O   UNL     1       3.734   3.263  19.778  0.00  0.00    +0.000 OA
ATOM      4  N   UNL     1       3.882   5.177  18.501  0.00  0.00    +0.000 N 
ATOM      5  H   UNL     1       3.521   6.124  18.430  0.00  0.00    +0.000 HD
BRANCH   4   6
ATOM      6  C   UNL     1       5.171   4.946  17.961  0.00  0.00    +0.000 A 
ATOM      7  C   UNL     1       6.344   5.288  18.643  0.00  0.00    +0.000 A 
ATOM      8  C   UNL     1       7.596   5.092  18.063  0.00  0.00    +0.000 A 
ATOM      9  C   UNL     1       7.690   4.535  16.789  0.00  0.00    +0.000 A 
ATOM     10  C   UNL     1       6.537   4.155  16.111  0.00  0.00    +0.000 A 
ATOM     11  C   UNL     1       5.288   4.351  16.701  0.00  0.00    +0.000 A 
ATOM     12  F   UNL     1       4.184   3.995  16.026  0.00  0.00    +0.000 F 
ENDBRANCH   4   6
ENDBRANCH   1   2
BRANCH   1  14
ATOM     13  C   UNL     1       0.683   2.532  18.746  0.00  0.00    +0.000 C 
ATOM     14  C   UNL     1       0.993   3.385  19.960  0.00  0.00    +0.000 C 
ENDBRANCH   1  14
BRANCH   1  15
ATOM     15  S   UNL     1       1.793   5.919  21.087  0.00  0.00    +0.000 S 
BRANCH  15  16
ATOM     16  C   UNL     1       1.664   7.402  20.182  0.00  0.00    +0.000 A 
ATOM     17  N   UNL     1       2.227   7.501  19.018  0.00  0.00    +0.000 NA
ATOM     18  N   UNL     1       2.169   8.726  18.305  0.00  0.00    +0.000 NA
ATOM     19  C   UNL     1       1.551   9.746  18.818  0.00  0.00    +0.000 A 
ATOM     20  C   UNL     1       1.503  11.061  18.113  0.00  0.00    +0.000 C 
ATOM     21  N   UNL     1       0.922   9.670  20.057  0.00  0.00    +0.000 N 
ATOM     22  C   UNL     1       0.973   8.505  20.792  0.00  0.00    +0.000 A 
ATOM     23  C   UNL     1       0.328   8.690  21.999  0.00  0.00    +0.000 A 
ATOM     24  C   UNL     1      -0.184  10.017  21.960  0.00  0.00    +0.000 A 
ATOM     25  S   UNL     1      -1.124  11.076  22.957  0.00  0.00    +0.000 S 
ATOM     26  C   UNL     1      -1.006  12.302  21.764  0.00  0.00    +0.000 A 
ATOM     27  C   UNL     1      -0.276  11.941  20.650  0.00  0.00    +0.000 A 
ATOM     28  C   UNL     1       0.190  10.598  20.779  0.00  0.00    +0.000 A 
ENDBRANCH  15  16
ENDBRANCH   1  15
TORSDOF 5
ENDMDL
MODEL 6
REMARK VINA RESULT:      -7.4      3.761      6.192
REMARK  Name = 
REMARK  7 active torsions:
REMARK  status: ('A' for Active; 'I' for Inactive)
REMARK    1  A    between atoms: C_1  and  C_2
REMARK    2  A    between atoms: C_2  and  C_3
REMARK    3  A    between atoms: C_3  and  S_4
REMARK    4  A    between atoms: C_3  and  C_18
REMARK    5  A    between atoms: S_4  and  C_5
REMARK    6  A    between atoms: C_8  and  C_9
REMARK    7  A    between atoms: N_20  and  C_21
REMARK                            x       y       z     vdW  Elec       q    Type
REMARK                         _______ _______ _______ _____ _____    ______ ____
ROOT
ATOM      1  C   UNL     1       0.983  10.749  19.839  0.00  0.00    +0.000 C 
ENDROOT
BRANCH   1   2
ATOM      2  C   UNL     1      -0.112  11.196  18.860  0.00  0.00    +0.000 C 
ATOM      3  O   UNL     1      -0.019  12.264  18.264  0.00  0.00    +0.000 OA
ATOM      4  N   UNL     1      -1.165  10.308  18.691  0.00  0.00    +0.000 N 
ATOM      5  H   UNL     1      -1.311   9.606  19.410  0.00  0.00    +0.000 HD
BRANCH   4   6
ATOM      6  C   UNL     1      -2.217  10.498  17.762  0.00  0.00    +0.000 A 
ATOM      7  C   UNL     1      -2.211   9.917  16.489  0.00  0.00    +0.000 A 
ATOM      8  C   UNL     1      -3.239  10.162  15.582  0.00  0.00    +0.000 A 
ATOM      9  C   UNL     1      -4.301  10.990  15.944  0.00  0.00    +0.000 A 
ATOM     10  C   UNL     1      -4.343  11.547  17.218  0.00  0.00    +0.000 A 
ATOM     11  C   UNL     1      -3.311  11.291  18.121  0.00  0.00    +0.000 A 
ATOM     12  F   UNL     1      -3.358  11.851  19.341  0.00  0.00    +0.000 F 
ENDBRANCH   4   6
ENDBRANCH   1   2
BRANCH   1  14
ATOM     13  C   UNL     1      -0.080  12.340  21.624  0.00  0.00    +0.000 C 
ATOM     14  C   UNL     1       1.160  11.856  20.900  0.00  0.00    +0.000 C 
ENDBRANCH   1  14
BRANCH   1  15
ATOM     15  S   UNL     1       0.664   9.050  20.436  0.00  0.00    +0.000 S 
BRANCH  15  16
ATOM     16  C   UNL     1       1.803   8.141  19.482  0.00  0.00    +0.000 A 
ATOM     17  N   UNL     1       2.360   8.688  18.447  0.00  0.00    +0.000 NA
ATOM     18  N   UNL     1       3.246   7.931  17.637  0.00  0.00    +0.000 NA
ATOM     19  C   UNL     1       3.497   6.692  17.934  0.00  0.00    +0.000 A 
ATOM     20  C   UNL     1       4.394   5.855  17.083  0.00  0.00    +0.000 C 
ATOM     21  N   UNL     1       2.929   6.080  19.047  0.00  0.00    +0.000 N 
ATOM     22  C   UNL     1       2.046   6.773  19.848  0.00  0.00    +0.000 A 
ATOM     23  C   UNL     1       1.579   5.945  20.848  0.00  0.00    +0.000 A 
ATOM     24  C   UNL     1       2.260   4.708  20.670  0.00  0.00    +0.000 A 
ATOM     25  S   UNL     1       2.353   3.155  21.432  0.00  0.00    +0.000 S 
ATOM     26  C   UNL     1       3.492   2.647  20.255  0.00  0.00    +0.000 A 
ATOM     27  C   UNL     1       3.794   3.604  19.308  0.00  0.00    +0.000 A 
ATOM     28  C   UNL     1       3.069   4.806  19.571  0.00  0.00    +0.000 A 
ENDBRANCH  15  16
ENDBRANCH   1  15
TORSDOF 5
ENDMDL
MODEL 7
REMARK VINA RESULT:      -7.4      2.876      7.233
REMARK  Name = 
REMARK  7 active torsions:
REMARK  status: ('A' for Active; 'I' for Inactive)
REMARK    1  A    between atoms: C_1  and  C_2
REMARK    2  A    between atoms: C_2  and  C_3
REMARK    3  A    between atoms: C_3  and  S_4
REMARK    4  A    between atoms: C_3  and  C_18
REMARK    5  A    between atoms: S_4  and  C_5
REMARK    6  A    between atoms: C_8  and  C_9
REMARK    7  A    between atoms: N_20  and  C_21
REMARK                            x       y       z     vdW  Elec       q    Type
REMARK                         _______ _______ _______ _____ _____    ______ ____
ROOT
ATOM      1  C   UNL     1       2.590   4.400  18.698  0.00  0.00    +0.000 C 
ENDROOT
BRANCH   1   2
ATOM      2  C   UNL     1       3.709   4.013  17.720  0.00  0.00    +0.000 C 
ATOM      3  O   UNL     1       4.041   2.839  17.584  0.00  0.00    +0.000 OA
ATOM      4  N   UNL     1       4.274   5.060  17.007  0.00  0.00    +0.000 N 
ATOM      5  H   UNL     1       4.153   6.000  17.373  0.00  0.00    +0.000 HD
BRANCH   4   6
ATOM      6  C   UNL     1       5.248   4.892  15.993  0.00  0.00    +0.000 A 
ATOM      7  C   UNL     1       4.946   4.334  14.746  0.00  0.00    +0.000 A 
ATOM      8  C   UNL     1       5.937   4.138  13.786  0.00  0.00    +0.000 A 
ATOM      9  C   UNL     1       7.251   4.512  14.062  0.00  0.00    +0.000 A 
ATOM     10  C   UNL     1       7.564   5.101  15.282  0.00  0.00    +0.000 A 
ATOM     11  C   UNL     1       6.563   5.298  16.234  0.00  0.00    +0.000 A 
ATOM     12  F   UNL     1       6.885   5.852  17.414  0.00  0.00    +0.000 F 
ENDBRANCH   4   6
ENDBRANCH   1   2
BRANCH   1  14
ATOM     13  C   UNL     1       0.595   2.707  18.735  0.00  0.00    +0.000 C 
ATOM     14  C   UNL     1       1.964   3.103  19.251  0.00  0.00    +0.000 C 
ENDBRANCH   1  14
BRANCH   1  15
ATOM     15  S   UNL     1       3.189   5.632  19.911  0.00  0.00    +0.000 S 
BRANCH  15  16
ATOM     16  C   UNL     1       2.480   7.093  19.280  0.00  0.00    +0.000 A 
ATOM     17  N   UNL     1       2.678   7.426  18.043  0.00  0.00    +0.000 NA
ATOM     18  N   UNL     1       2.147   8.643  17.543  0.00  0.00    +0.000 NA
ATOM     19  C   UNL     1       1.463   9.421  18.326  0.00  0.00    +0.000 A 
ATOM     20  C   UNL     1       0.922  10.727  17.845  0.00  0.00    +0.000 C 
ATOM     21  N   UNL     1       1.219   9.087  19.654  0.00  0.00    +0.000 N 
ATOM     22  C   UNL     1       1.735   7.924  20.185  0.00  0.00    +0.000 A 
ATOM     23  C   UNL     1       1.404   7.839  21.523  0.00  0.00    +0.000 A 
ATOM     24  C   UNL     1       0.602   8.983  21.793  0.00  0.00    +0.000 A 
ATOM     25  S   UNL     1      -0.264   9.676  23.122  0.00  0.00    +0.000 S 
ATOM     26  C   UNL     1      -0.757  10.978  22.120  0.00  0.00    +0.000 A 
ATOM     27  C   UNL     1      -0.282  10.909  20.827  0.00  0.00    +0.000 A 
ATOM     28  C   UNL     1       0.505   9.730  20.651  0.00  0.00    +0.000 A 
ENDBRANCH  15  16
ENDBRANCH   1  15
TORSDOF 5
ENDMDL
MODEL 8
REMARK VINA RESULT:      -7.2      4.669      9.094
REMARK  Name = 
REMARK  7 active torsions:
REMARK  status: ('A' for Active; 'I' for Inactive)
REMARK    1  A    between atoms: C_1  and  C_2
REMARK    2  A    between atoms: C_2  and  C_3
REMARK    3  A    between atoms: C_3  and  S_4
REMARK    4  A    between atoms: C_3  and  C_18
REMARK    5  A    between atoms: S_4  and  C_5
REMARK    6  A    between atoms: C_8  and  C_9
REMARK    7  A    between atoms: N_20  and  C_21
REMARK                            x       y       z     vdW  Elec       q    Type
REMARK                         _______ _______ _______ _____ _____    ______ ____
ROOT
ATOM      1  C   UNL     1       1.223   9.032  19.347  0.00  0.00    +0.000 C 
ENDROOT
BRANCH   1   2
ATOM      2  C   UNL     1       2.146   8.021  18.652  0.00  0.00    +0.000 C 
ATOM      3  O   UNL     1       2.797   8.346  17.664  0.00  0.00    +0.000 OA
ATOM      4  N   UNL     1       2.203   6.762  19.233  0.00  0.00    +0.000 N 
ATOM      5  H   UNL     1       1.444   6.491  19.851  0.00  0.00    +0.000 HD
BRANCH   4   6
ATOM      6  C   UNL     1       3.068   5.729  18.796  0.00  0.00    +0.000 A 
ATOM      7  C   UNL     1       4.381   5.600  19.262  0.00  0.00    +0.000 A 
ATOM      8  C   UNL     1       5.222   4.600  18.777  0.00  0.00    +0.000 A 
ATOM      9  C   UNL     1       4.751   3.704  17.819  0.00  0.00    +0.000 A 
ATOM     10  C   UNL     1       3.437   3.794  17.371  0.00  0.00    +0.000 A 
ATOM     11  C   UNL     1       2.601   4.795  17.867  0.00  0.00    +0.000 A 
ATOM     12  F   UNL     1       1.342   4.878  17.410  0.00  0.00    +0.000 F 
ENDBRANCH   4   6
ENDBRANCH   1   2
BRANCH   1  14
ATOM     13  C   UNL     1      -0.071   8.610  21.583  0.00  0.00    +0.000 C 
ATOM     14  C   UNL     1       1.256   8.751  20.864  0.00  0.00    +0.000 C 
ENDBRANCH   1  14
BRANCH   1  15
ATOM     15  S   UNL     1       1.597  10.736  18.795  0.00  0.00    +0.000 S 
BRANCH  15  16
ATOM     16  C   UNL     1       0.604  11.664  19.884  0.00  0.00    +0.000 A 
ATOM     17  N   UNL     1       1.132  12.211  20.934  0.00  0.00    +0.000 NA
ATOM     18  N   UNL     1       0.315  12.921  21.851  0.00  0.00    +0.000 NA
ATOM     19  C   UNL     1      -0.962  13.024  21.635  0.00  0.00    +0.000 A 
ATOM     20  C   UNL     1      -1.858  13.731  22.597  0.00  0.00    +0.000 C 
ATOM     21  N   UNL     1      -1.559  12.464  20.510  0.00  0.00    +0.000 N 
ATOM     22  C   UNL     1      -0.804  11.747  19.606  0.00  0.00    +0.000 A 
ATOM     23  C   UNL     1      -1.621  11.250  18.611  0.00  0.00    +0.000 A 
ATOM     24  C   UNL     1      -2.924  11.741  18.904  0.00  0.00    +0.000 A 
ATOM     25  S   UNL     1      -4.518  11.680  18.228  0.00  0.00    +0.000 S 
ATOM     26  C   UNL     1      -5.101  12.647  19.519  0.00  0.00    +0.000 A 
ATOM     27  C   UNL     1      -4.138  13.002  20.441  0.00  0.00    +0.000 A 
ATOM     28  C   UNL     1      -2.869  12.470  20.061  0.00  0.00    +0.000 A 
ENDBRANCH  15  16
ENDBRANCH   1  15
TORSDOF 5
ENDMDL
MODEL 9
REMARK VINA RESULT:      -7.1      4.871      9.451
REMARK  Name = 
REMARK  7 active torsions:
REMARK  status: ('A' for Active; 'I' for Inactive)
REMARK    1  A    between atoms: C_1  and  C_2
REMARK    2  A    between atoms: C_2  and  C_3
REMARK    3  A    between atoms: C_3  and  S_4
REMARK    4  A    between atoms: C_3  and  C_18
REMARK    5  A    between atoms: S_4  and  C_5
REMARK    6  A    between atoms: C_8  and  C_9
REMARK    7  A    between atoms: N_20  and  C_21
REMARK                            x       y       z     vdW  Elec       q    Type
REMARK                         _______ _______ _______ _____ _____    ______ ____
ROOT
ATOM      1  C   UNL     1       1.035   8.650  19.902  0.00  0.00    +0.000 C 
ENDROOT
BRANCH   1   2
ATOM      2  C   UNL     1       2.041   7.846  19.065  0.00  0.00    +0.000 C 
ATOM      3  O   UNL     1       2.612   8.363  18.110  0.00  0.00    +0.000 OA
ATOM      4  N   UNL     1       2.263   6.542  19.482  0.00  0.00    +0.000 N 
ATOM      5  H   UNL     1       1.563   6.111  20.080  0.00  0.00    +0.000 HD
BRANCH   4   6
ATOM      6  C   UNL     1       3.222   5.678  18.899  0.00  0.00    +0.000 A 
ATOM      7  C   UNL     1       4.552   5.629  19.332  0.00  0.00    +0.000 A 
ATOM      8  C   UNL     1       5.482   4.803  18.705  0.00  0.00    +0.000 A 
ATOM      9  C   UNL     1       5.087   4.001  17.637  0.00  0.00    +0.000 A 
ATOM     10  C   UNL     1       3.761   4.008  17.216  0.00  0.00    +0.000 A 
ATOM     11  C   UNL     1       2.836   4.835  17.853  0.00  0.00    +0.000 A 
ATOM     12  F   UNL     1       1.564   4.844  17.423  0.00  0.00    +0.000 F 
ENDBRANCH   4   6
ENDBRANCH   1   2
BRANCH   1  14
ATOM     13  C   UNL     1       1.057   9.410  22.407  0.00  0.00    +0.000 C 
ATOM     14  C   UNL     1       1.264   8.306  21.390  0.00  0.00    +0.000 C 
ENDBRANCH   1  14
BRANCH   1  15
ATOM     15  S   UNL     1       1.066  10.417  19.430  0.00  0.00    +0.000 S 
BRANCH  15  16
ATOM     16  C   UNL     1      -0.544  10.622  18.801  0.00  0.00    +0.000 A 
ATOM     17  N   UNL     1      -0.875  10.066  17.677  0.00  0.00    +0.000 NA
ATOM     18  N   UNL     1      -2.169  10.278  17.135  0.00  0.00    +0.000 NA
ATOM     19  C   UNL     1      -3.021  11.028  17.767  0.00  0.00    +0.000 A 
ATOM     20  C   UNL     1      -4.378  11.304  17.208  0.00  0.00    +0.000 C 
ATOM     21  N   UNL     1      -2.704  11.627  18.982  0.00  0.00    +0.000 N 
ATOM     22  C   UNL     1      -1.451  11.464  19.532  0.00  0.00    +0.000 A 
ATOM     23  C   UNL     1      -1.360  12.191  20.702  0.00  0.00    +0.000 A 
ATOM     24  C   UNL     1      -2.644  12.775  20.891  0.00  0.00    +0.000 A 
ATOM     25  S   UNL     1      -3.460  13.772  22.048  0.00  0.00    +0.000 S 
ATOM     26  C   UNL     1      -4.885  13.711  21.096  0.00  0.00    +0.000 A 
ATOM     27  C   UNL     1      -4.760  12.974  19.936  0.00  0.00    +0.000 A 
ATOM     28  C   UNL     1      -3.444  12.427  19.837  0.00  0.00    +0.000 A 
ENDBRANCH  15  16
ENDBRANCH   1  15
TORSDOF 5
ENDMDL
