MODEL 1
REMARK VINA RESULT:      -7.3      0.000      0.000
REMARK  Name = 
REMARK  16 active torsions:
REMARK  status: ('A' for Active; 'I' for Inactive)
REMARK    1  A    between atoms: C_1  and  C_2
REMARK    2  A    between atoms: C_4  and  C_5
REMARK    3  A    between atoms: C_5  and  C_6
REMARK    4  A    between atoms: C_6  and  C_7
REMARK    5  A    between atoms: C_6  and  C_8
REMARK    6  A    between atoms: N_11  and  C_12
REMARK    7  A    between atoms: C_12  and  C_13
REMARK    8  A    between atoms: N_15  and  C_16
REMARK    9  A    between atoms: C_16  and  C_17
REMARK   10  A    between atoms: C_17  and  C_18
REMARK   11  A    between atoms: C_26  and  C_27
REMARK   12  A    between atoms: C_27  and  O_29
REMARK   13  A    between atoms: O_29  and  C_30
REMARK   14  A    between atoms: C_30  and  C_31
REMARK   15  A    between atoms: C_30  and  C_32
REMARK   16  A    between atoms: C_30  and  C_33
REMARK                            x       y       z     vdW  Elec       q    Type
REMARK                         _______ _______ _______ _____ _____    ______ ____
ROOT
ATOM      1  C   UNL     1      -0.084  10.605  22.659  0.00  0.00    +0.000 C 
ATOM      2  C   UNL     1      -0.210  10.653  21.147  0.00  0.00    +0.000 C 
ATOM      3  N   UNL     1      -1.055  11.480  20.674  0.00  0.00    +0.000 NA
ATOM      4  C   UNL     1      -1.249  11.645  19.220  0.00  0.00    +0.000 C 
ATOM      5  C   UNL     1       0.025  12.228  18.624  0.00  0.00    +0.000 C 
ATOM      6  O   UNL     1       0.029  13.380  18.141  0.00  0.00    +0.000 OA
ATOM      7  N   UNL     1       1.177  11.466  18.636  0.00  0.00    +0.000 N 
ATOM      8  C   UNL     1       1.225  10.132  19.129  0.00  0.00    +0.000 A 
ATOM      9  C   UNL     1       1.884   9.174  18.352  0.00  0.00    +0.000 A 
ATOM     10  C   UNL     1       2.127   7.877  18.825  0.00  0.00    +0.000 A 
ATOM     11  C   UNL     1       1.615   7.499  20.063  0.00  0.00    +0.000 A 
ATOM     12  C   UNL     1       0.856   8.415  20.805  0.00  0.00    +0.000 A 
ATOM     13  C   UNL     1       0.653   9.729  20.347  0.00  0.00    +0.000 A 
ENDROOT
BRANCH  10  14
ATOM     14  C   UNL     1       3.008   7.031  17.991  0.00  0.00    +0.000 C 
ATOM     15  O   UNL     1       4.033   7.518  17.521  0.00  0.00    +0.000 OA
BRANCH  14  16
ATOM     16  O   UNL     1       2.568   5.754  17.869  0.00  0.00    +0.000 OA
BRANCH  16  17
ATOM     17  C   UNL     1       3.477   4.703  18.322  0.00  0.00    +0.000 C 
ATOM     18  C   UNL     1       4.419   5.234  19.413  0.00  0.00    +0.000 C 
ATOM     19  C   UNL     1       2.665   3.496  18.831  0.00  0.00    +0.000 C 
ATOM     20  C   UNL     1       4.305   4.234  17.122  0.00  0.00    +0.000 C 
ENDBRANCH  16  17
ENDBRANCH  14  16
ENDBRANCH  10  14
BRANCH   4  21
ATOM     21  C   UNL     1      -1.803  10.390  18.529  0.00  0.00    +0.000 C 
BRANCH  21  22
ATOM     22  C   UNL     1      -2.734  10.702  17.345  0.00  0.00    +0.000 C 
ATOM     23  C   UNL     1      -2.420   9.799  16.156  0.00  0.00    +0.000 C 
ATOM     24  C   UNL     1      -4.194  10.537  17.773  0.00  0.00    +0.000 C 
ENDBRANCH  21  22
ENDBRANCH   4  21
BRANCH   7  25
ATOM     25  C   UNL     1       2.409  12.071  18.098  0.00  0.00    +0.000 C 
BRANCH  25  26
ATOM     26  C   UNL     1       2.795  13.455  18.677  0.00  0.00    +0.000 C 
ATOM     27  O   UNL     1       3.009  13.619  19.877  0.00  0.00    +0.000 OA
ATOM     28  N   UNL     1       2.999  14.466  17.761  0.00  0.00    +0.000 N 
ATOM     29  H   UNL     1       2.915  14.277  16.770  0.00  0.00    +0.000 HD
BRANCH  28  30
ATOM     30  C   UNL     1       3.407  15.774  18.236  0.00  0.00    +0.000 C 
BRANCH  30  31
ATOM     31  C   UNL     1       2.464  16.897  17.823  0.00  0.00    +0.000 C 
BRANCH  31  32
ATOM     32  C   UNL     1       1.264  16.919  18.737  0.00  0.00    +0.000 A 
ATOM     33  C   UNL     1       1.430  16.787  20.121  0.00  0.00    +0.000 A 
ATOM     34  C   UNL     1       0.319  16.700  20.961  0.00  0.00    +0.000 A 
ATOM     35  C   UNL     1      -0.967  16.762  20.427  0.00  0.00    +0.000 A 
ATOM     36  C   UNL     1      -1.143  16.911  19.052  0.00  0.00    +0.000 A 
ATOM     37  C   UNL     1      -0.034  16.978  18.209  0.00  0.00    +0.000 A 
ENDBRANCH  31  32
ENDBRANCH  30  31
ENDBRANCH  28  30
ENDBRANCH  25  26
ENDBRANCH   7  25
TORSDOF 10
ENDMDL
MODEL 2
REMARK VINA RESULT:      -7.3      0.872      1.646
REMARK  Name = 
REMARK  16 active torsions:
REMARK  status: ('A' for Active; 'I' for Inactive)
REMARK    1  A    between atoms: C_1  and  C_2
REMARK    2  A    between atoms: C_4  and  C_5
REMARK    3  A    between atoms: C_5  and  C_6
REMARK    4  A    between atoms: C_6  and  C_7
REMARK    5  A    between atoms: C_6  and  C_8
REMARK    6  A    between atoms: N_11  and  C_12
REMARK    7  A    between atoms: C_12  and  C_13
REMARK    8  A    between atoms: N_15  and  C_16
REMARK    9  A    between atoms: C_16  and  C_17
REMARK   10  A    between atoms: C_17  and  C_18
REMARK   11  A    between atoms: C_26  and  C_27
REMARK   12  A    between atoms: C_27  and  O_29
REMARK   13  A    between atoms: O_29  and  C_30
REMARK   14  A    between atoms: C_30  and  C_31
REMARK   15  A    between atoms: C_30  and  C_32
REMARK   16  A    between atoms: C_30  and  C_33
REMARK                            x       y       z     vdW  Elec       q    Type
REMARK                         _______ _______ _______ _____ _____    ______ ____
ROOT
ATOM      1  C   UNL     1      -0.108  10.431  22.611  0.00  0.00    +0.000 C 
ATOM      2  C   UNL     1      -0.245  10.441  21.099  0.00  0.00    +0.000 C 
ATOM      3  N   UNL     1      -1.144  11.202  20.615  0.00  0.00    +0.000 NA
ATOM      4  C   UNL     1      -1.356  11.323  19.160  0.00  0.00    +0.000 C 
ATOM      5  C   UNL     1      -0.127  11.975  18.543  0.00  0.00    +0.000 C 
ATOM      6  O   UNL     1      -0.200  13.115  18.037  0.00  0.00    +0.000 OA
ATOM      7  N   UNL     1       1.072  11.289  18.562  0.00  0.00    +0.000 N 
ATOM      8  C   UNL     1       1.210   9.972  19.081  0.00  0.00    +0.000 A 
ATOM      9  C   UNL     1       1.925   9.042  18.319  0.00  0.00    +0.000 A 
ATOM     10  C   UNL     1       2.253   7.774  18.817  0.00  0.00    +0.000 A 
ATOM     11  C   UNL     1       1.774   7.388  20.065  0.00  0.00    +0.000 A 
ATOM     12  C   UNL     1       0.961   8.269  20.795  0.00  0.00    +0.000 A 
ATOM     13  C   UNL     1       0.672   9.558  20.311  0.00  0.00    +0.000 A 
ENDROOT
BRANCH  10  14
ATOM     14  C   UNL     1       3.183   6.969  17.993  0.00  0.00    +0.000 C 
ATOM     15  O   UNL     1       4.201   7.497  17.555  0.00  0.00    +0.000 OA
BRANCH  14  16
ATOM     16  O   UNL     1       2.790   5.680  17.845  0.00  0.00    +0.000 OA
BRANCH  16  17
ATOM     17  C   UNL     1       3.811   4.657  18.053  0.00  0.00    +0.000 C 
ATOM     18  C   UNL     1       3.165   3.275  18.240  0.00  0.00    +0.000 C 
ATOM     19  C   UNL     1       4.794   4.652  16.865  0.00  0.00    +0.000 C 
ATOM     20  C   UNL     1       4.605   5.018  19.312  0.00  0.00    +0.000 C 
ENDBRANCH  16  17
ENDBRANCH  14  16
ENDBRANCH  10  14
BRANCH   4  21
ATOM     21  C   UNL     1      -1.832  10.021  18.498  0.00  0.00    +0.000 C 
BRANCH  21  22
ATOM     22  C   UNL     1      -2.993  10.225  17.510  0.00  0.00    +0.000 C 
ATOM     23  C   UNL     1      -3.753  11.510  17.824  0.00  0.00    +0.000 C 
ATOM     24  C   UNL     1      -2.457  10.256  16.076  0.00  0.00    +0.000 C 
ENDBRANCH  21  22
ENDBRANCH   4  21
BRANCH   7  25
ATOM     25  C   UNL     1       2.260  11.961  18.004  0.00  0.00    +0.000 C 
BRANCH  25  26
ATOM     26  C   UNL     1       2.578  13.365  18.577  0.00  0.00    +0.000 C 
ATOM     27  O   UNL     1       3.140  14.228  17.905  0.00  0.00    +0.000 OA
ATOM     28  N   UNL     1       2.095  13.633  19.841  0.00  0.00    +0.000 N 
ATOM     29  H   UNL     1       1.547  12.939  20.333  0.00  0.00    +0.000 HD
BRANCH  28  30
ATOM     30  C   UNL     1       2.320  14.945  20.416  0.00  0.00    +0.000 C 
BRANCH  30  31
ATOM     31  C   UNL     1       1.038  15.717  20.700  0.00  0.00    +0.000 C 
BRANCH  31  32
ATOM     32  C   UNL     1       0.640  16.513  19.482  0.00  0.00    +0.000 A 
ATOM     33  C   UNL     1       1.621  17.103  18.674  0.00  0.00    +0.000 A 
ATOM     34  C   UNL     1       1.257  17.926  17.608  0.00  0.00    +0.000 A 
ATOM     35  C   UNL     1      -0.089  18.154  17.329  0.00  0.00    +0.000 A 
ATOM     36  C   UNL     1      -1.073  17.557  18.115  0.00  0.00    +0.000 A 
ATOM     37  C   UNL     1      -0.712  16.750  19.194  0.00  0.00    +0.000 A 
ENDBRANCH  31  32
ENDBRANCH  30  31
ENDBRANCH  28  30
ENDBRANCH  25  26
ENDBRANCH   7  25
TORSDOF 10
ENDMDL
MODEL 3
REMARK VINA RESULT:      -7.2      3.253      6.860
REMARK  Name = 
REMARK  16 active torsions:
REMARK  status: ('A' for Active; 'I' for Inactive)
REMARK    1  A    between atoms: C_1  and  C_2
REMARK    2  A    between atoms: C_4  and  C_5
REMARK    3  A    between atoms: C_5  and  C_6
REMARK    4  A    between atoms: C_6  and  C_7
REMARK    5  A    between atoms: C_6  and  C_8
REMARK    6  A    between atoms: N_11  and  C_12
REMARK    7  A    between atoms: C_12  and  C_13
REMARK    8  A    between atoms: N_15  and  C_16
REMARK    9  A    between atoms: C_16  and  C_17
REMARK   10  A    between atoms: C_17  and  C_18
REMARK   11  A    between atoms: C_26  and  C_27
REMARK   12  A    between atoms: C_27  and  O_29
REMARK   13  A    between atoms: O_29  and  C_30
REMARK   14  A    between atoms: C_30  and  C_31
REMARK   15  A    between atoms: C_30  and  C_32
REMARK   16  A    between atoms: C_30  and  C_33
REMARK                            x       y       z     vdW  Elec       q    Type
REMARK                         _______ _______ _______ _____ _____    ______ ____
ROOT
ATOM      1  C   UNL     1       1.553   9.225  17.592  0.00  0.00    +0.000 C 
ATOM      2  C   UNL     1       0.892  10.123  18.622  0.00  0.00    +0.000 C 
ATOM      3  N   UNL     1       1.592  10.428  19.641  0.00  0.00    +0.000 NA
ATOM      4  C   UNL     1       1.075  11.318  20.699  0.00  0.00    +0.000 C 
ATOM      5  C   UNL     1       0.881  12.708  20.110  0.00  0.00    +0.000 C 
ATOM      6  O   UNL     1       1.590  13.664  20.494  0.00  0.00    +0.000 OA
ATOM      7  N   UNL     1      -0.082  12.893  19.138  0.00  0.00    +0.000 N 
ATOM      8  C   UNL     1      -0.950  11.857  18.692  0.00  0.00    +0.000 A 
ATOM      9  C   UNL     1      -2.312  12.153  18.576  0.00  0.00    +0.000 A 
ATOM     10  C   UNL     1      -3.216  11.256  17.992  0.00  0.00    +0.000 A 
ATOM     11  C   UNL     1      -2.769   9.995  17.605  0.00  0.00    +0.000 A 
ATOM     12  C   UNL     1      -1.429   9.643  17.818  0.00  0.00    +0.000 A 
ATOM     13  C   UNL     1      -0.514  10.563  18.362  0.00  0.00    +0.000 A 
ENDROOT
BRANCH  10  14
ATOM     14  C   UNL     1      -4.581  11.771  17.745  0.00  0.00    +0.000 C 
ATOM     15  O   UNL     1      -5.114  11.552  16.660  0.00  0.00    +0.000 OA
BRANCH  14  16
ATOM     16  O   UNL     1      -5.110  12.423  18.810  0.00  0.00    +0.000 OA
BRANCH  16  17
ATOM     17  C   UNL     1      -6.348  11.879  19.362  0.00  0.00    +0.000 C 
ATOM     18  C   UNL     1      -6.507  10.399  18.981  0.00  0.00    +0.000 C 
ATOM     19  C   UNL     1      -6.360  12.062  20.892  0.00  0.00    +0.000 C 
ATOM     20  C   UNL     1      -7.522  12.678  18.789  0.00  0.00    +0.000 C 
ENDBRANCH  16  17
ENDBRANCH  14  16
ENDBRANCH  10  14
BRANCH   4  21
ATOM     21  C   UNL     1      -0.126  10.735  21.459  0.00  0.00    +0.000 C 
BRANCH  21  22
ATOM     22  C   UNL     1       0.193   9.422  22.194  0.00  0.00    +0.000 C 
ATOM     23  C   UNL     1      -0.175   9.524  23.671  0.00  0.00    +0.000 C 
ATOM     24  C   UNL     1      -0.557   8.262  21.534  0.00  0.00    +0.000 C 
ENDBRANCH  21  22
ENDBRANCH   4  21
BRANCH   7  25
ATOM     25  C   UNL     1      -0.217  14.237  18.547  0.00  0.00    +0.000 C 
BRANCH  25  26
ATOM     26  C   UNL     1      -0.702  15.355  19.505  0.00  0.00    +0.000 C 
ATOM     27  O   UNL     1      -0.115  16.432  19.595  0.00  0.00    +0.000 OA
ATOM     28  N   UNL     1      -1.891  15.121  20.164  0.00  0.00    +0.000 N 
ATOM     29  H   UNL     1      -2.407  14.267  19.994  0.00  0.00    +0.000 HD
BRANCH  28  30
ATOM     30  C   UNL     1      -2.422  16.147  21.041  0.00  0.00    +0.000 C 
BRANCH  30  31
ATOM     31  C   UNL     1      -2.034  15.965  22.503  0.00  0.00    +0.000 C 
BRANCH  31  32
ATOM     32  C   UNL     1      -2.719  14.744  23.065  0.00  0.00    +0.000 A 
ATOM     33  C   UNL     1      -2.053  13.512  23.093  0.00  0.00    +0.000 A 
ATOM     34  C   UNL     1      -2.717  12.360  23.514  0.00  0.00    +0.000 A 
ATOM     35  C   UNL     1      -4.046  12.430  23.926  0.00  0.00    +0.000 A 
ATOM     36  C   UNL     1      -4.713  13.654  23.919  0.00  0.00    +0.000 A 
ATOM     37  C   UNL     1      -4.058  14.805  23.480  0.00  0.00    +0.000 A 
ENDBRANCH  31  32
ENDBRANCH  30  31
ENDBRANCH  28  30
ENDBRANCH  25  26
ENDBRANCH   7  25
TORSDOF 10
ENDMDL
MODEL 4
REMARK VINA RESULT:      -7.2      1.073      1.710
REMARK  Name = 
REMARK  16 active torsions:
REMARK  status: ('A' for Active; 'I' for Inactive)
REMARK    1  A    between atoms: C_1  and  C_2
REMARK    2  A    between atoms: C_4  and  C_5
REMARK    3  A    between atoms: C_5  and  C_6
REMARK    4  A    between atoms: C_6  and  C_7
REMARK    5  A    between atoms: C_6  and  C_8
REMARK    6  A    between atoms: N_11  and  C_12
REMARK    7  A    between atoms: C_12  and  C_13
REMARK    8  A    between atoms: N_15  and  C_16
REMARK    9  A    between atoms: C_16  and  C_17
REMARK   10  A    between atoms: C_17  and  C_18
REMARK   11  A    between atoms: C_26  and  C_27
REMARK   12  A    between atoms: C_27  and  O_29
REMARK   13  A    between atoms: O_29  and  C_30
REMARK   14  A    between atoms: C_30  and  C_31
REMARK   15  A    between atoms: C_30  and  C_32
REMARK   16  A    between atoms: C_30  and  C_33
REMARK                            x       y       z     vdW  Elec       q    Type
REMARK                         _______ _______ _______ _____ _____    ______ ____
ROOT
ATOM      1  C   UNL     1      -0.991  11.325  22.658  0.00  0.00    +0.000 C 
ATOM      2  C   UNL     1      -0.884  11.243  21.146  0.00  0.00    +0.000 C 
ATOM      3  N   UNL     1      -1.640  12.022  20.481  0.00  0.00    +0.000 NA
ATOM      4  C   UNL     1      -1.609  12.060  19.006  0.00  0.00    +0.000 C 
ATOM      5  C   UNL     1      -0.255  12.595  18.562  0.00  0.00    +0.000 C 
ATOM      6  O   UNL     1      -0.167  13.701  17.989  0.00  0.00    +0.000 OA
ATOM      7  N   UNL     1       0.875  11.841  18.815  0.00  0.00    +0.000 N 
ATOM      8  C   UNL     1       0.836  10.555  19.422  0.00  0.00    +0.000 A 
ATOM      9  C   UNL     1       1.597   9.537  18.839  0.00  0.00    +0.000 A 
ATOM     10  C   UNL     1       1.754   8.287  19.454  0.00  0.00    +0.000 A 
ATOM     11  C   UNL     1       1.056   8.014  20.627  0.00  0.00    +0.000 A 
ATOM     12  C   UNL     1       0.201   8.988  21.164  0.00  0.00    +0.000 A 
ATOM     13  C   UNL     1       0.082  10.257  20.569  0.00  0.00    +0.000 A 
ENDROOT
BRANCH  10  14
ATOM     14  C   UNL     1       2.744   7.375  18.839  0.00  0.00    +0.000 C 
ATOM     15  O   UNL     1       3.183   7.637  17.722  0.00  0.00    +0.000 OA
BRANCH  14  16
ATOM     16  O   UNL     1       3.081   6.332  19.637  0.00  0.00    +0.000 OA
BRANCH  16  17
ATOM     17  C   UNL     1       2.902   4.995  19.076  0.00  0.00    +0.000 C 
ATOM     18  C   UNL     1       1.867   5.018  17.941  0.00  0.00    +0.000 C 
ATOM     19  C   UNL     1       4.256   4.452  18.580  0.00  0.00    +0.000 C 
ATOM     20  C   UNL     1       2.409   4.069  20.192  0.00  0.00    +0.000 C 
ENDBRANCH  16  17
ENDBRANCH  14  16
ENDBRANCH  10  14
BRANCH   4  21
ATOM     21  C   UNL     1      -2.063  10.747  18.349  0.00  0.00    +0.000 C 
BRANCH  21  22
ATOM     22  C   UNL     1      -3.570  10.704  18.042  0.00  0.00    +0.000 C 
ATOM     23  C   UNL     1      -3.885  11.481  16.767  0.00  0.00    +0.000 C 
ATOM     24  C   UNL     1      -4.034   9.251  17.913  0.00  0.00    +0.000 C 
ENDBRANCH  21  22
ENDBRANCH   4  21
BRANCH   7  25
ATOM     25  C   UNL     1       2.180  12.403  18.421  0.00  0.00    +0.000 C 
BRANCH  25  26
ATOM     26  C   UNL     1       2.673  13.619  19.245  0.00  0.00    +0.000 C 
ATOM     27  O   UNL     1       3.005  13.511  20.424  0.00  0.00    +0.000 OA
ATOM     28  N   UNL     1       2.830  14.802  18.554  0.00  0.00    +0.000 N 
ATOM     29  H   UNL     1       2.646  14.838  17.559  0.00  0.00    +0.000 HD
BRANCH  28  30
ATOM     30  C   UNL     1       3.332  15.967  19.258  0.00  0.00    +0.000 C 
BRANCH  30  31
ATOM     31  C   UNL     1       2.236  16.871  19.806  0.00  0.00    +0.000 C 
BRANCH  31  32
ATOM     32  C   UNL     1       1.324  17.305  18.685  0.00  0.00    +0.000 A 
ATOM     33  C   UNL     1       1.858  17.893  17.530  0.00  0.00    +0.000 A 
ATOM     34  C   UNL     1       1.014  18.391  16.537  0.00  0.00    +0.000 A 
ATOM     35  C   UNL     1      -0.369  18.292  16.680  0.00  0.00    +0.000 A 
ATOM     36  C   UNL     1      -0.910  17.692  17.817  0.00  0.00    +0.000 A 
ATOM     37  C   UNL     1      -0.069  17.211  18.820  0.00  0.00    +0.000 A 
ENDBRANCH  31  32
ENDBRANCH  30  31
ENDBRANCH  28  30
ENDBRANCH  25  26
ENDBRANCH   7  25
TORSDOF 10
ENDMDL
MODEL 5
REMARK VINA RESULT:      -7.1      2.028      3.338
REMARK  Name = 
REMARK  16 active torsions:
REMARK  status: ('A' for Active; 'I' for Inactive)
REMARK    1  A    between atoms: C_1  and  C_2
REMARK    2  A    between atoms: C_4  and  C_5
REMARK    3  A    between atoms: C_5  and  C_6
REMARK    4  A    between atoms: C_6  and  C_7
REMARK    5  A    between atoms: C_6  and  C_8
REMARK    6  A    between atoms: N_11  and  C_12
REMARK    7  A    between atoms: C_12  and  C_13
REMARK    8  A    between atoms: N_15  and  C_16
REMARK    9  A    between atoms: C_16  and  C_17
REMARK   10  A    between atoms: C_17  and  C_18
REMARK   11  A    between atoms: C_26  and  C_27
REMARK   12  A    between atoms: C_27  and  O_29
REMARK   13  A    between atoms: O_29  and  C_30
REMARK   14  A    between atoms: C_30  and  C_31
REMARK   15  A    between atoms: C_30  and  C_32
REMARK   16  A    between atoms: C_30  and  C_33
REMARK                            x       y       z     vdW  Elec       q    Type
REMARK                         _______ _______ _______ _____ _____    ______ ____
ROOT
ATOM      1  C   UNL     1      -0.405  10.570  22.688  0.00  0.00    +0.000 C 
ATOM      2  C   UNL     1      -0.455  10.545  21.171  0.00  0.00    +0.000 C 
ATOM      3  N   UNL     1      -1.341  11.275  20.620  0.00  0.00    +0.000 NA
ATOM      4  C   UNL     1      -1.472  11.361  19.153  0.00  0.00    +0.000 C 
ATOM      5  C   UNL     1      -0.224  12.028  18.593  0.00  0.00    +0.000 C 
ATOM      6  O   UNL     1      -0.292  13.155  18.058  0.00  0.00    +0.000 OA
ATOM      7  N   UNL     1       0.987  11.370  18.695  0.00  0.00    +0.000 N 
ATOM      8  C   UNL     1       1.123  10.068  19.250  0.00  0.00    +0.000 A 
ATOM      9  C   UNL     1       1.901   9.139  18.551  0.00  0.00    +0.000 A 
ATOM     10  C   UNL     1       2.228   7.890  19.095  0.00  0.00    +0.000 A 
ATOM     11  C   UNL     1       1.686   7.519  20.322  0.00  0.00    +0.000 A 
ATOM     12  C   UNL     1       0.814   8.396  20.984  0.00  0.00    +0.000 A 
ATOM     13  C   UNL     1       0.525   9.667  20.457  0.00  0.00    +0.000 A 
ENDROOT
BRANCH  10  14
ATOM     14  C   UNL     1       3.221   7.089  18.344  0.00  0.00    +0.000 C 
ATOM     15  O   UNL     1       3.619   7.501  17.257  0.00  0.00    +0.000 OA
BRANCH  14  16
ATOM     16  O   UNL     1       3.607   5.965  18.995  0.00  0.00    +0.000 OA
BRANCH  16  17
ATOM     17  C   UNL     1       3.248   4.692  18.373  0.00  0.00    +0.000 C 
ATOM     18  C   UNL     1       1.799   4.729  17.861  0.00  0.00    +0.000 C 
ATOM     19  C   UNL     1       4.231   4.376  17.228  0.00  0.00    +0.000 C 
ATOM     20  C   UNL     1       3.386   3.588  19.424  0.00  0.00    +0.000 C 
ENDBRANCH  16  17
ENDBRANCH  14  16
ENDBRANCH  10  14
BRANCH   4  21
ATOM     21  C   UNL     1      -1.881  10.035  18.494  0.00  0.00    +0.000 C 
BRANCH  21  22
ATOM     22  C   UNL     1      -3.107  10.160  17.573  0.00  0.00    +0.000 C 
ATOM     23  C   UNL     1      -3.833  11.479  17.816  0.00  0.00    +0.000 C 
ATOM     24  C   UNL     1      -2.672  10.048  16.109  0.00  0.00    +0.000 C 
ENDBRANCH  21  22
ENDBRANCH   4  21
BRANCH   7  25
ATOM     25  C   UNL     1       2.190  12.058  18.191  0.00  0.00    +0.000 C 
BRANCH  25  26
ATOM     26  C   UNL     1       2.566  13.381  18.904  0.00  0.00    +0.000 C 
ATOM     27  O   UNL     1       2.705  14.434  18.286  0.00  0.00    +0.000 OA
ATOM     28  N   UNL     1       2.623  13.338  20.282  0.00  0.00    +0.000 N 
ATOM     29  H   UNL     1       2.403  12.479  20.772  0.00  0.00    +0.000 HD
BRANCH  28  30
ATOM     30  C   UNL     1       2.924  14.554  21.012  0.00  0.00    +0.000 C 
BRANCH  30  31
ATOM     31  C   UNL     1       4.089  14.412  21.984  0.00  0.00    +0.000 C 
BRANCH  31  32
ATOM     32  C   UNL     1       5.373  14.819  21.304  0.00  0.00    +0.000 A 
ATOM     33  C   UNL     1       5.347  15.713  20.226  0.00  0.00    +0.000 A 
ATOM     34  C   UNL     1       6.518  16.011  19.528  0.00  0.00    +0.000 A 
ATOM     35  C   UNL     1       7.726  15.432  19.910  0.00  0.00    +0.000 A 
ATOM     36  C   UNL     1       7.766  14.555  20.993  0.00  0.00    +0.000 A 
ATOM     37  C   UNL     1       6.594  14.240  21.681  0.00  0.00    +0.000 A 
ENDBRANCH  31  32
ENDBRANCH  30  31
ENDBRANCH  28  30
ENDBRANCH  25  26
ENDBRANCH   7  25
TORSDOF 10
ENDMDL
MODEL 6
REMARK VINA RESULT:      -7.1      1.743      2.930
REMARK  Name = 
REMARK  16 active torsions:
REMARK  status: ('A' for Active; 'I' for Inactive)
REMARK    1  A    between atoms: C_1  and  C_2
REMARK    2  A    between atoms: C_4  and  C_5
REMARK    3  A    between atoms: C_5  and  C_6
REMARK    4  A    between atoms: C_6  and  C_7
REMARK    5  A    between atoms: C_6  and  C_8
REMARK    6  A    between atoms: N_11  and  C_12
REMARK    7  A    between atoms: C_12  and  C_13
REMARK    8  A    between atoms: N_15  and  C_16
REMARK    9  A    between atoms: C_16  and  C_17
REMARK   10  A    between atoms: C_17  and  C_18
REMARK   11  A    between atoms: C_26  and  C_27
REMARK   12  A    between atoms: C_27  and  O_29
REMARK   13  A    between atoms: O_29  and  C_30
REMARK   14  A    between atoms: C_30  and  C_31
REMARK   15  A    between atoms: C_30  and  C_32
REMARK   16  A    between atoms: C_30  and  C_33
REMARK                            x       y       z     vdW  Elec       q    Type
REMARK                         _______ _______ _______ _____ _____    ______ ____
ROOT
ATOM      1  C   UNL     1      -0.821  11.046  22.723  0.00  0.00    +0.000 C 
ATOM      2  C   UNL     1      -0.768  10.860  21.217  0.00  0.00    +0.000 C 
ATOM      3  N   UNL     1      -1.570  11.570  20.529  0.00  0.00    +0.000 NA
ATOM      4  C   UNL     1      -1.594  11.504  19.055  0.00  0.00    +0.000 C 
ATOM      5  C   UNL     1      -0.273  12.041  18.523  0.00  0.00    +0.000 C 
ATOM      6  O   UNL     1      -0.238  13.106  17.871  0.00  0.00    +0.000 OA
ATOM      7  N   UNL     1       0.886  11.337  18.784  0.00  0.00    +0.000 N 
ATOM      8  C   UNL     1       0.907  10.096  19.480  0.00  0.00    +0.000 A 
ATOM      9  C   UNL     1       1.674   9.059  18.941  0.00  0.00    +0.000 A 
ATOM     10  C   UNL     1       1.889   7.860  19.635  0.00  0.00    +0.000 A 
ATOM     11  C   UNL     1       1.242   7.653  20.850  0.00  0.00    +0.000 A 
ATOM     12  C   UNL     1       0.381   8.640  21.351  0.00  0.00    +0.000 A 
ATOM     13  C   UNL     1       0.204   9.860  20.674  0.00  0.00    +0.000 A 
ENDROOT
BRANCH  10  14
ATOM     14  C   UNL     1       2.881   6.933  19.047  0.00  0.00    +0.000 C 
ATOM     15  O   UNL     1       3.440   7.244  17.999  0.00  0.00    +0.000 OA
BRANCH  14  16
ATOM     16  O   UNL     1       3.081   5.818  19.792  0.00  0.00    +0.000 OA
BRANCH  16  17
ATOM     17  C   UNL     1       2.561   4.566  19.248  0.00  0.00    +0.000 C 
ATOM     18  C   UNL     1       1.678   3.851  20.283  0.00  0.00    +0.000 C 
ATOM     19  C   UNL     1       1.776   4.848  17.952  0.00  0.00    +0.000 C 
ATOM     20  C   UNL     1       3.748   3.668  18.888  0.00  0.00    +0.000 C 
ENDBRANCH  16  17
ENDBRANCH  14  16
ENDBRANCH  10  14
BRANCH   4  21
ATOM     21  C   UNL     1      -2.035  10.137  18.509  0.00  0.00    +0.000 C 
BRANCH  21  22
ATOM     22  C   UNL     1      -3.197  10.223  17.505  0.00  0.00    +0.000 C 
ATOM     23  C   UNL     1      -3.963  11.531  17.675  0.00  0.00    +0.000 C 
ATOM     24  C   UNL     1      -2.660  10.099  16.076  0.00  0.00    +0.000 C 
ENDBRANCH  21  22
ENDBRANCH   4  21
BRANCH   7  25
ATOM     25  C   UNL     1       2.160  11.903  18.301  0.00  0.00    +0.000 C 
BRANCH  25  26
ATOM     26  C   UNL     1       2.553  13.284  18.882  0.00  0.00    +0.000 C 
ATOM     27  O   UNL     1       2.791  13.441  20.078  0.00  0.00    +0.000 OA
ATOM     28  N   UNL     1       2.733  14.302  17.969  0.00  0.00    +0.000 N 
ATOM     29  H   UNL     1       2.630  14.120  16.978  0.00  0.00    +0.000 HD
BRANCH  28  30
ATOM     30  C   UNL     1       3.146  15.609  18.444  0.00  0.00    +0.000 C 
BRANCH  30  31
ATOM     31  C   UNL     1       4.472  16.081  17.863  0.00  0.00    +0.000 C 
BRANCH  31  32
ATOM     32  C   UNL     1       5.503  16.186  18.960  0.00  0.00    +0.000 A 
ATOM     33  C   UNL     1       6.179  15.042  19.402  0.00  0.00    +0.000 A 
ATOM     34  C   UNL     1       7.055  15.114  20.486  0.00  0.00    +0.000 A 
ATOM     35  C   UNL     1       7.275  16.332  21.127  0.00  0.00    +0.000 A 
ATOM     36  C   UNL     1       6.621  17.480  20.683  0.00  0.00    +0.000 A 
ATOM     37  C   UNL     1       5.730  17.407  19.612  0.00  0.00    +0.000 A 
ENDBRANCH  31  32
ENDBRANCH  30  31
ENDBRANCH  28  30
ENDBRANCH  25  26
ENDBRANCH   7  25
TORSDOF 10
ENDMDL
MODEL 7
REMARK VINA RESULT:      -7.1      2.202      3.562
REMARK  Name = 
REMARK  16 active torsions:
REMARK  status: ('A' for Active; 'I' for Inactive)
REMARK    1  A    between atoms: C_1  and  C_2
REMARK    2  A    between atoms: C_4  and  C_5
REMARK    3  A    between atoms: C_5  and  C_6
REMARK    4  A    between atoms: C_6  and  C_7
REMARK    5  A    between atoms: C_6  and  C_8
REMARK    6  A    between atoms: N_11  and  C_12
REMARK    7  A    between atoms: C_12  and  C_13
REMARK    8  A    between atoms: N_15  and  C_16
REMARK    9  A    between atoms: C_16  and  C_17
REMARK   10  A    between atoms: C_17  and  C_18
REMARK   11  A    between atoms: C_26  and  C_27
REMARK   12  A    between atoms: C_27  and  O_29
REMARK   13  A    between atoms: O_29  and  C_30
REMARK   14  A    between atoms: C_30  and  C_31
REMARK   15  A    between atoms: C_30  and  C_32
REMARK   16  A    between atoms: C_30  and  C_33
REMARK                            x       y       z     vdW  Elec       q    Type
REMARK                         _______ _______ _______ _____ _____    ______ ____
ROOT
ATOM      1  C   UNL     1      -1.182  11.377  22.888  0.00  0.00    +0.000 C 
ATOM      2  C   UNL     1      -1.074  11.316  21.375  0.00  0.00    +0.000 C 
ATOM      3  N   UNL     1      -1.823  12.111  20.720  0.00  0.00    +0.000 NA
ATOM      4  C   UNL     1      -1.790  12.171  19.246  0.00  0.00    +0.000 C 
ATOM      5  C   UNL     1      -0.431  12.702  18.813  0.00  0.00    +0.000 C 
ATOM      6  O   UNL     1      -0.335  13.816  18.255  0.00  0.00    +0.000 OA
ATOM      7  N   UNL     1       0.693  11.937  19.055  0.00  0.00    +0.000 N 
ATOM      8  C   UNL     1       0.644  10.642  19.643  0.00  0.00    +0.000 A 
ATOM      9  C   UNL     1       1.398   9.627  19.046  0.00  0.00    +0.000 A 
ATOM     10  C   UNL     1       1.545   8.367  19.643  0.00  0.00    +0.000 A 
ATOM     11  C   UNL     1       0.843   8.082  20.811  0.00  0.00    +0.000 A 
ATOM     12  C   UNL     1      -0.005   9.054  21.361  0.00  0.00    +0.000 A 
ATOM     13  C   UNL     1      -0.114  10.332  20.785  0.00  0.00    +0.000 A 
ENDROOT
BRANCH  10  14
ATOM     14  C   UNL     1       2.529   7.457  19.016  0.00  0.00    +0.000 C 
ATOM     15  O   UNL     1       2.940   7.711  17.886  0.00  0.00    +0.000 OA
BRANCH  14  16
ATOM     16  O   UNL     1       2.895   6.427  19.817  0.00  0.00    +0.000 OA
BRANCH  16  17
ATOM     17  C   UNL     1       2.469   5.092  19.401  0.00  0.00    +0.000 C 
ATOM     18  C   UNL     1       1.453   4.512  20.397  0.00  0.00    +0.000 C 
ATOM     19  C   UNL     1       1.877   5.154  17.980  0.00  0.00    +0.000 C 
ATOM     20  C   UNL     1       3.704   4.188  19.353  0.00  0.00    +0.000 C 
ENDBRANCH  16  17
ENDBRANCH  14  16
ENDBRANCH  10  14
BRANCH   4  21
ATOM     21  C   UNL     1      -2.253  10.871  18.569  0.00  0.00    +0.000 C 
BRANCH  21  22
ATOM     22  C   UNL     1      -2.792  11.081  17.144  0.00  0.00    +0.000 C 
ATOM     23  C   UNL     1      -2.552   9.842  16.286  0.00  0.00    +0.000 C 
ATOM     24  C   UNL     1      -4.286  11.414  17.197  0.00  0.00    +0.000 C 
ENDBRANCH  21  22
ENDBRANCH   4  21
BRANCH   7  25
ATOM     25  C   UNL     1       2.003  12.495  18.671  0.00  0.00    +0.000 C 
BRANCH  25  26
ATOM     26  C   UNL     1       2.689  13.402  19.723  0.00  0.00    +0.000 C 
ATOM     27  O   UNL     1       2.513  13.244  20.930  0.00  0.00    +0.000 OA
ATOM     28  N   UNL     1       3.597  14.320  19.239  0.00  0.00    +0.000 N 
ATOM     29  H   UNL     1       3.799  14.360  18.247  0.00  0.00    +0.000 HD
BRANCH  28  30
ATOM     30  C   UNL     1       4.308  15.169  20.176  0.00  0.00    +0.000 C 
BRANCH  30  31
ATOM     31  C   UNL     1       4.921  16.408  19.537  0.00  0.00    +0.000 C 
BRANCH  31  32
ATOM     32  C   UNL     1       6.403  16.202  19.341  0.00  0.00    +0.000 A 
ATOM     33  C   UNL     1       7.172  17.180  18.697  0.00  0.00    +0.000 A 
ATOM     34  C   UNL     1       8.519  16.949  18.420  0.00  0.00    +0.000 A 
ATOM     35  C   UNL     1       9.115  15.747  18.798  0.00  0.00    +0.000 A 
ATOM     36  C   UNL     1       8.363  14.775  19.456  0.00  0.00    +0.000 A 
ATOM     37  C   UNL     1       7.011  14.995  19.717  0.00  0.00    +0.000 A 
ENDBRANCH  31  32
ENDBRANCH  30  31
ENDBRANCH  28  30
ENDBRANCH  25  26
ENDBRANCH   7  25
TORSDOF 10
ENDMDL
MODEL 8
REMARK VINA RESULT:      -7.0      1.054      1.437
REMARK  Name = 
REMARK  16 active torsions:
REMARK  status: ('A' for Active; 'I' for Inactive)
REMARK    1  A    between atoms: C_1  and  C_2
REMARK    2  A    between atoms: C_4  and  C_5
REMARK    3  A    between atoms: C_5  and  C_6
REMARK    4  A    between atoms: C_6  and  C_7
REMARK    5  A    between atoms: C_6  and  C_8
REMARK    6  A    between atoms: N_11  and  C_12
REMARK    7  A    between atoms: C_12  and  C_13
REMARK    8  A    between atoms: N_15  and  C_16
REMARK    9  A    between atoms: C_16  and  C_17
REMARK   10  A    between atoms: C_17  and  C_18
REMARK   11  A    between atoms: C_26  and  C_27
REMARK   12  A    between atoms: C_27  and  O_29
REMARK   13  A    between atoms: O_29  and  C_30
REMARK   14  A    between atoms: C_30  and  C_31
REMARK   15  A    between atoms: C_30  and  C_32
REMARK   16  A    between atoms: C_30  and  C_33
REMARK                            x       y       z     vdW  Elec       q    Type
REMARK                         _______ _______ _______ _____ _____    ______ ____
ROOT
ATOM      1  C   UNL     1      -0.897  11.194  22.707  0.00  0.00    +0.000 C 
ATOM      2  C   UNL     1      -0.869  11.054  21.196  0.00  0.00    +0.000 C 
ATOM      3  N   UNL     1      -1.707  11.759  20.546  0.00  0.00    +0.000 NA
ATOM      4  C   UNL     1      -1.760  11.736  19.071  0.00  0.00    +0.000 C 
ATOM      5  C   UNL     1      -0.468  12.331  18.530  0.00  0.00    +0.000 C 
ATOM      6  O   UNL     1      -0.481  13.416  17.910  0.00  0.00    +0.000 OA
ATOM      7  N   UNL     1       0.718  11.658  18.746  0.00  0.00    +0.000 N 
ATOM      8  C   UNL     1       0.793  10.399  19.403  0.00  0.00    +0.000 A 
ATOM      9  C   UNL     1       1.582   9.404  18.817  0.00  0.00    +0.000 A 
ATOM     10  C   UNL     1       1.849   8.192  19.470  0.00  0.00    +0.000 A 
ATOM     11  C   UNL     1       1.235   7.928  20.691  0.00  0.00    +0.000 A 
ATOM     12  C   UNL     1       0.353   8.871  21.238  0.00  0.00    +0.000 A 
ATOM     13  C   UNL     1       0.123  10.104  20.602  0.00  0.00    +0.000 A 
ENDROOT
BRANCH  10  14
ATOM     14  C   UNL     1       2.858   7.316  18.834  0.00  0.00    +0.000 C 
ATOM     15  O   UNL     1       3.287   7.610  17.722  0.00  0.00    +0.000 OA
BRANCH  14  16
ATOM     16  O   UNL     1       3.223   6.266  19.611  0.00  0.00    +0.000 OA
BRANCH  16  17
ATOM     17  C   UNL     1       3.006   4.934  19.053  0.00  0.00    +0.000 C 
ATOM     18  C   UNL     1       2.778   3.908  20.174  0.00  0.00    +0.000 C 
ATOM     19  C   UNL     1       1.811   4.965  18.079  0.00  0.00    +0.000 C 
ATOM     20  C   UNL     1       4.250   4.540  18.251  0.00  0.00    +0.000 C 
ENDBRANCH  16  17
ENDBRANCH  14  16
ENDBRANCH  10  14
BRANCH   4  21
ATOM     21  C   UNL     1      -2.168  10.372  18.492  0.00  0.00    +0.000 C 
BRANCH  21  22
ATOM     22  C   UNL     1      -3.260  10.466  17.412  0.00  0.00    +0.000 C 
ATOM     23  C   UNL     1      -4.229  11.603  17.720  0.00  0.00    +0.000 C 
ATOM     24  C   UNL     1      -2.616  10.667  16.038  0.00  0.00    +0.000 C 
ENDBRANCH  21  22
ENDBRANCH   4  21
BRANCH   7  25
ATOM     25  C   UNL     1       1.963  12.280  18.255  0.00  0.00    +0.000 C 
BRANCH  25  26
ATOM     26  C   UNL     1       2.564  13.393  19.150  0.00  0.00    +0.000 C 
ATOM     27  O   UNL     1       3.721  13.784  19.009  0.00  0.00    +0.000 OA
ATOM     28  N   UNL     1       1.697  14.002  20.033  0.00  0.00    +0.000 N 
ATOM     29  H   UNL     1       0.722  13.730  20.057  0.00  0.00    +0.000 HD
BRANCH  28  30
ATOM     30  C   UNL     1       2.187  15.083  20.866  0.00  0.00    +0.000 C 
BRANCH  30  31
ATOM     31  C   UNL     1       2.338  16.406  20.127  0.00  0.00    +0.000 C 
BRANCH  31  32
ATOM     32  C   UNL     1       0.987  16.885  19.656  0.00  0.00    +0.000 A 
ATOM     33  C   UNL     1      -0.055  17.070  20.575  0.00  0.00    +0.000 A 
ATOM     34  C   UNL     1      -1.333  17.411  20.134  0.00  0.00    +0.000 A 
ATOM     35  C   UNL     1      -1.579  17.586  18.773  0.00  0.00    +0.000 A 
ATOM     36  C   UNL     1      -0.546  17.422  17.852  0.00  0.00    +0.000 A 
ATOM     37  C   UNL     1       0.729  17.063  18.289  0.00  0.00    +0.000 A 
ENDBRANCH  31  32
ENDBRANCH  30  31
ENDBRANCH  28  30
ENDBRANCH  25  26
ENDBRANCH   7  25
TORSDOF 10
ENDMDL
MODEL 9
REMARK VINA RESULT:      -7.0      0.959      1.427
REMARK  Name = 
REMARK  16 active torsions:
REMARK  status: ('A' for Active; 'I' for Inactive)
REMARK    1  A    between atoms: C_1  and  C_2
REMARK    2  A    between atoms: C_4  and  C_5
REMARK    3  A    between atoms: C_5  and  C_6
REMARK    4  A    between atoms: C_6  and  C_7
REMARK    5  A    between atoms: C_6  and  C_8
REMARK    6  A    between atoms: N_11  and  C_12
REMARK    7  A    between atoms: C_12  and  C_13
REMARK    8  A    between atoms: N_15  and  C_16
REMARK    9  A    between atoms: C_16  and  C_17
REMARK   10  A    between atoms: C_17  and  C_18
REMARK   11  A    between atoms: C_26  and  C_27
REMARK   12  A    between atoms: C_27  and  O_29
REMARK   13  A    between atoms: O_29  and  C_30
REMARK   14  A    between atoms: C_30  and  C_31
REMARK   15  A    between atoms: C_30  and  C_32
REMARK   16  A    between atoms: C_30  and  C_33
REMARK                            x       y       z     vdW  Elec       q    Type
REMARK                         _______ _______ _______ _____ _____    ______ ____
ROOT
ATOM      1  C   UNL     1      -0.691  11.060  22.705  0.00  0.00    +0.000 C 
ATOM      2  C   UNL     1      -0.700  11.035  21.187  0.00  0.00    +0.000 C 
ATOM      3  N   UNL     1      -1.533  11.807  20.612  0.00  0.00    +0.000 NA
ATOM      4  C   UNL     1      -1.619  11.898  19.141  0.00  0.00    +0.000 C 
ATOM      5  C   UNL     1      -0.323  12.499  18.616  0.00  0.00    +0.000 C 
ATOM      6  O   UNL     1      -0.320  13.628  18.079  0.00  0.00    +0.000 OA
ATOM      7  N   UNL     1       0.849  11.782  18.752  0.00  0.00    +0.000 N 
ATOM      8  C   UNL     1       0.904  10.475  19.311  0.00  0.00    +0.000 A 
ATOM      9  C   UNL     1       1.653   9.507  18.634  0.00  0.00    +0.000 A 
ATOM     10  C   UNL     1       1.901   8.244  19.187  0.00  0.00    +0.000 A 
ATOM     11  C   UNL     1       1.307   7.903  20.399  0.00  0.00    +0.000 A 
ATOM     12  C   UNL     1       0.463   8.824  21.036  0.00  0.00    +0.000 A 
ATOM     13  C   UNL     1       0.253  10.107  20.501  0.00  0.00    +0.000 A 
ENDROOT
BRANCH  10  14
ATOM     14  C   UNL     1       2.873   7.393  18.464  0.00  0.00    +0.000 C 
ATOM     15  O   UNL     1       3.264   7.746  17.355  0.00  0.00    +0.000 OA
BRANCH  14  16
ATOM     16  O   UNL     1       3.249   6.294  19.163  0.00  0.00    +0.000 OA
BRANCH  16  17
ATOM     17  C   UNL     1       3.130   5.009  18.478  0.00  0.00    +0.000 C 
ATOM     18  C   UNL     1       4.132   4.919  17.316  0.00  0.00    +0.000 C 
ATOM     19  C   UNL     1       3.343   3.861  19.483  0.00  0.00    +0.000 C 
ATOM     20  C   UNL     1       1.705   4.888  17.928  0.00  0.00    +0.000 C 
ENDBRANCH  16  17
ENDBRANCH  14  16
ENDBRANCH  10  14
BRANCH   4  21
ATOM     21  C   UNL     1      -2.075  10.592  18.472  0.00  0.00    +0.000 C 
BRANCH  21  22
ATOM     22  C   UNL     1      -2.946  10.816  17.223  0.00  0.00    +0.000 C 
ATOM     23  C   UNL     1      -2.693   9.727  16.185  0.00  0.00    +0.000 C 
ATOM     24  C   UNL     1      -4.424  10.847  17.618  0.00  0.00    +0.000 C 
ENDBRANCH  21  22
ENDBRANCH   4  21
BRANCH   7  25
ATOM     25  C   UNL     1       2.099  12.407  18.281  0.00  0.00    +0.000 C 
BRANCH  25  26
ATOM     26  C   UNL     1       2.690  13.514  19.189  0.00  0.00    +0.000 C 
ATOM     27  O   UNL     1       3.763  14.058  18.935  0.00  0.00    +0.000 OA
ATOM     28  N   UNL     1       1.894  13.937  20.233  0.00  0.00    +0.000 N 
ATOM     29  H   UNL     1       0.970  13.542  20.360  0.00  0.00    +0.000 HD
BRANCH  28  30
ATOM     30  C   UNL     1       2.370  15.003  21.094  0.00  0.00    +0.000 C 
BRANCH  30  31
ATOM     31  C   UNL     1       2.373  16.373  20.427  0.00  0.00    +0.000 C 
BRANCH  31  32
ATOM     32  C   UNL     1       1.007  16.666  19.857  0.00  0.00    +0.000 A 
ATOM     33  C   UNL     1       0.856  16.926  18.489  0.00  0.00    +0.000 A 
ATOM     34  C   UNL     1      -0.385  17.300  17.974  0.00  0.00    +0.000 A 
ATOM     35  C   UNL     1      -1.489  17.403  18.818  0.00  0.00    +0.000 A 
ATOM     36  C   UNL     1      -1.354  17.129  20.178  0.00  0.00    +0.000 A 
ATOM     37  C   UNL     1      -0.109  16.773  20.698  0.00  0.00    +0.000 A 
ENDBRANCH  31  32
ENDBRANCH  30  31
ENDBRANCH  28  30
ENDBRANCH  25  26
ENDBRANCH   7  25
TORSDOF 10
ENDMDL
