MODEL 1
REMARK VINA RESULT:      -7.8      0.000      0.000
REMARK  Name = 
REMARK  9 active torsions:
REMARK  status: ('A' for Active; 'I' for Inactive)
REMARK    1  A    between atoms: C_1  and  C_2
REMARK    2  A    between atoms: C_2  and  N_3
REMARK    3  A    between atoms: C_2  and  C_20
REMARK    4  A    between atoms: C_9  and  N_10
REMARK    5  A    between atoms: C_15  and  C_16
REMARK    6  A    between atoms: C_16  and  C_17
REMARK    7  A    between atoms: C_16  and  O_18
REMARK    8  A    between atoms: C_23  and  O_24
REMARK    9  A    between atoms: O_24  and  C_25
REMARK                            x       y       z     vdW  Elec       q    Type
REMARK                         _______ _______ _______ _____ _____    ______ ____
ROOT
ATOM      1  N   UNL     1       1.237   9.834  18.079  0.00  0.00    +0.000 N 
ATOM      2  C   UNL     1       1.628   8.679  18.726  0.00  0.00    +0.000 A 
ATOM      3  N   UNL     1       1.479   8.577  20.057  0.00  0.00    +0.000 NA
ATOM      4  C   UNL     1       1.841   7.414  20.632  0.00  0.00    +0.000 A 
ATOM      5  C   UNL     1       2.330   6.349  19.928  0.00  0.00    +0.000 A 
ATOM      6  F   UNL     1       2.759   5.246  20.550  0.00  0.00    +0.000 F 
ATOM      7  C   UNL     1       2.484   6.547  18.571  0.00  0.00    +0.000 A 
ATOM      8  N   UNL     1       2.168   7.714  17.956  0.00  0.00    +0.000 NA
ATOM      9  H   UNL     1       0.986   9.620  17.125  0.00  0.00    +0.000 HD
ENDROOT
BRANCH   7  10
ATOM     10  N   UNL     1       3.074   5.517  17.828  0.00  0.00    +0.000 N 
ATOM     11  C   UNL     1       2.421   4.349  17.509  0.00  0.00    +0.000 C 
ATOM     12  O   UNL     1       1.291   4.019  17.827  0.00  0.00    +0.000 OA
ATOM     13  O   UNL     1       3.218   3.591  16.701  0.00  0.00    +0.000 OA
ATOM     14  C   UNL     1       4.527   4.173  16.695  0.00  0.00    +0.000 C 
ATOM     15  C   UNL     1       4.348   5.609  17.175  0.00  0.00    +0.000 C 
BRANCH  15  16
ATOM     16  C   UNL     1       5.501   6.034  18.119  0.00  0.00    +0.000 C 
ATOM     17  C   UNL     1       5.823   5.005  19.194  0.00  0.00    +0.000 C 
BRANCH  16  18
ATOM     18  O   UNL     1       6.716   6.286  17.411  0.00  0.00    +0.000 OA
ATOM     19  H   UNL     1       6.892   5.549  16.796  0.00  0.00    +0.000 HD
ENDBRANCH  16  18
ENDBRANCH  15  16
ENDBRANCH   7  10
BRANCH   1  21
ATOM     20  C   UNL     1       1.049  12.199  18.583  0.00  0.00    +0.000 C 
ATOM     21  C   UNL     1       0.420  10.815  18.785  0.00  0.00    +0.000 C 
BRANCH  21  22
ATOM     22  C   UNL     1      -1.030  10.820  18.321  0.00  0.00    +0.000 A 
ATOM     23  C   UNL     1      -1.933  11.739  18.882  0.00  0.00    +0.000 A 
ATOM     24  C   UNL     1      -3.266  11.782  18.463  0.00  0.00    +0.000 A 
ATOM     25  C   UNL     1      -3.725  10.921  17.468  0.00  0.00    +0.000 A 
ATOM     26  C   UNL     1      -2.843   9.997  16.906  0.00  0.00    +0.000 A 
ATOM     27  C   UNL     1      -1.505   9.956  17.322  0.00  0.00    +0.000 A 
BRANCH  25  28
ATOM     28  O   UNL     1      -5.049  11.053  17.154  0.00  0.00    +0.000 OA
BRANCH  28  29
ATOM     29  C   UNL     1      -5.940  11.103  18.254  0.00  0.00    +0.000 C 
ATOM     30  F   UNL     1      -7.192  11.358  17.801  0.00  0.00    +0.000 F 
ATOM     31  F   UNL     1      -5.971   9.861  18.804  0.00  0.00    +0.000 F 
ENDBRANCH  28  29
ENDBRANCH  25  28
ENDBRANCH  21  22
ENDBRANCH   1  21
TORSDOF 7
ENDMDL
MODEL 2
REMARK VINA RESULT:      -7.5      3.521      9.028
REMARK  Name = 
REMARK  9 active torsions:
REMARK  status: ('A' for Active; 'I' for Inactive)
REMARK    1  A    between atoms: C_1  and  C_2
REMARK    2  A    between atoms: C_2  and  N_3
REMARK    3  A    between atoms: C_2  and  C_20
REMARK    4  A    between atoms: C_9  and  N_10
REMARK    5  A    between atoms: C_15  and  C_16
REMARK    6  A    between atoms: C_16  and  C_17
REMARK    7  A    between atoms: C_16  and  O_18
REMARK    8  A    between atoms: C_23  and  O_24
REMARK    9  A    between atoms: O_24  and  C_25
REMARK                            x       y       z     vdW  Elec       q    Type
REMARK                         _______ _______ _______ _____ _____    ______ ____
ROOT
ATOM      1  N   UNL     1       2.567   7.328  18.610  0.00  0.00    +0.000 N 
ATOM      2  C   UNL     1       1.859   8.135  19.479  0.00  0.00    +0.000 A 
ATOM      3  N   UNL     1       1.693   7.755  20.756  0.00  0.00    +0.000 NA
ATOM      4  C   UNL     1       1.028   8.597  21.570  0.00  0.00    +0.000 A 
ATOM      5  C   UNL     1       0.538   9.805  21.160  0.00  0.00    +0.000 A 
ATOM      6  F   UNL     1      -0.193  10.570  21.979  0.00  0.00    +0.000 F 
ATOM      7  C   UNL     1       0.720  10.106  19.825  0.00  0.00    +0.000 A 
ATOM      8  N   UNL     1       1.350   9.270  18.962  0.00  0.00    +0.000 NA
ATOM      9  H   UNL     1       2.982   7.894  17.884  0.00  0.00    +0.000 HD
ENDROOT
BRANCH   7  10
ATOM     10  N   UNL     1       0.146  11.288  19.342  0.00  0.00    +0.000 N 
ATOM     11  C   UNL     1      -1.028  11.318  18.627  0.00  0.00    +0.000 C 
ATOM     12  O   UNL     1      -1.715  10.370  18.288  0.00  0.00    +0.000 OA
ATOM     13  O   UNL     1      -1.377  12.615  18.383  0.00  0.00    +0.000 OA
ATOM     14  C   UNL     1      -0.266  13.448  18.736  0.00  0.00    +0.000 C 
ATOM     15  C   UNL     1       0.609  12.609  19.661  0.00  0.00    +0.000 C 
BRANCH  15  16
ATOM     16  C   UNL     1       2.114  12.829  19.365  0.00  0.00    +0.000 C 
ATOM     17  C   UNL     1       2.378  13.599  18.078  0.00  0.00    +0.000 C 
BRANCH  16  18
ATOM     18  O   UNL     1       2.774  13.540  20.414  0.00  0.00    +0.000 OA
ATOM     19  H   UNL     1       2.214  13.533  21.213  0.00  0.00    +0.000 HD
ENDBRANCH  16  18
ENDBRANCH  15  16
ENDBRANCH   7  10
BRANCH   1  21
ATOM     20  C   UNL     1       2.417   5.041  19.402  0.00  0.00    +0.000 C 
ATOM     21  C   UNL     1       3.358   6.222  19.136  0.00  0.00    +0.000 C 
BRANCH  21  22
ATOM     22  C   UNL     1       4.483   5.802  18.199  0.00  0.00    +0.000 A 
ATOM     23  C   UNL     1       4.469   6.237  16.863  0.00  0.00    +0.000 A 
ATOM     24  C   UNL     1       5.498   5.884  15.984  0.00  0.00    +0.000 A 
ATOM     25  C   UNL     1       6.567   5.103  16.418  0.00  0.00    +0.000 A 
ATOM     26  C   UNL     1       6.591   4.657  17.741  0.00  0.00    +0.000 A 
ATOM     27  C   UNL     1       5.563   5.013  18.625  0.00  0.00    +0.000 A 
BRANCH  25  28
ATOM     28  O   UNL     1       7.502   4.817  15.463  0.00  0.00    +0.000 OA
BRANCH  28  29
ATOM     29  C   UNL     1       7.061   4.923  14.120  0.00  0.00    +0.000 C 
ATOM     30  F   UNL     1       8.095   5.331  13.344  0.00  0.00    +0.000 F 
ATOM     31  F   UNL     1       6.731   3.673  13.704  0.00  0.00    +0.000 F 
ENDBRANCH  28  29
ENDBRANCH  25  28
ENDBRANCH  21  22
ENDBRANCH   1  21
TORSDOF 7
ENDMDL
MODEL 3
REMARK VINA RESULT:      -7.4      3.507      8.842
REMARK  Name = 
REMARK  9 active torsions:
REMARK  status: ('A' for Active; 'I' for Inactive)
REMARK    1  A    between atoms: C_1  and  C_2
REMARK    2  A    between atoms: C_2  and  N_3
REMARK    3  A    between atoms: C_2  and  C_20
REMARK    4  A    between atoms: C_9  and  N_10
REMARK    5  A    between atoms: C_15  and  C_16
REMARK    6  A    between atoms: C_16  and  C_17
REMARK    7  A    between atoms: C_16  and  O_18
REMARK    8  A    between atoms: C_23  and  O_24
REMARK    9  A    between atoms: O_24  and  C_25
REMARK                            x       y       z     vdW  Elec       q    Type
REMARK                         _______ _______ _______ _____ _____    ______ ____
ROOT
ATOM      1  N   UNL     1       2.379   7.326  18.206  0.00  0.00    +0.000 N 
ATOM      2  C   UNL     1       1.810   8.148  19.158  0.00  0.00    +0.000 A 
ATOM      3  N   UNL     1       1.786   7.762  20.445  0.00  0.00    +0.000 NA
ATOM      4  C   UNL     1       1.254   8.619  21.337  0.00  0.00    +0.000 A 
ATOM      5  C   UNL     1       0.761   9.847  20.996  0.00  0.00    +0.000 A 
ATOM      6  F   UNL     1       0.161  10.629  21.901  0.00  0.00    +0.000 F 
ATOM      7  C   UNL     1       0.791  10.154  19.651  0.00  0.00    +0.000 A 
ATOM      8  N   UNL     1       1.283   9.306  18.713  0.00  0.00    +0.000 NA
ATOM      9  H   UNL     1       2.724   7.884  17.438  0.00  0.00    +0.000 HD
ENDROOT
BRANCH   7  10
ATOM     10  N   UNL     1       0.206  11.360  19.246  0.00  0.00    +0.000 N 
ATOM     11  C   UNL     1      -0.996  11.429  18.582  0.00  0.00    +0.000 C 
ATOM     12  O   UNL     1      -1.702  10.500  18.227  0.00  0.00    +0.000 OA
ATOM     13  O   UNL     1      -1.346  12.737  18.413  0.00  0.00    +0.000 OA
ATOM     14  C   UNL     1      -0.217  13.548  18.759  0.00  0.00    +0.000 C 
ATOM     15  C   UNL     1       0.689  12.662  19.607  0.00  0.00    +0.000 C 
BRANCH  15  16
ATOM     16  C   UNL     1       2.183  12.890  19.262  0.00  0.00    +0.000 C 
ATOM     17  C   UNL     1       2.402  13.833  18.086  0.00  0.00    +0.000 C 
BRANCH  16  18
ATOM     18  O   UNL     1       2.918  13.425  20.363  0.00  0.00    +0.000 OA
ATOM     19  H   UNL     1       3.870  13.256  20.232  0.00  0.00    +0.000 HD
ENDBRANCH  16  18
ENDBRANCH  15  16
ENDBRANCH   7  10
BRANCH   1  21
ATOM     20  C   UNL     1       2.245   5.070  19.087  0.00  0.00    +0.000 C 
ATOM     21  C   UNL     1       3.188   6.188  18.627  0.00  0.00    +0.000 C 
BRANCH  21  22
ATOM     22  C   UNL     1       4.112   5.681  17.528  0.00  0.00    +0.000 A 
ATOM     23  C   UNL     1       4.709   6.599  16.647  0.00  0.00    +0.000 A 
ATOM     24  C   UNL     1       5.577   6.166  15.641  0.00  0.00    +0.000 A 
ATOM     25  C   UNL     1       5.880   4.814  15.497  0.00  0.00    +0.000 A 
ATOM     26  C   UNL     1       5.290   3.888  16.359  0.00  0.00    +0.000 A 
ATOM     27  C   UNL     1       4.422   4.321  17.372  0.00  0.00    +0.000 A 
BRANCH  25  28
ATOM     28  O   UNL     1       6.732   4.517  14.470  0.00  0.00    +0.000 OA
BRANCH  28  29
ATOM     29  C   UNL     1       6.193   3.712  13.436  0.00  0.00    +0.000 C 
ATOM     30  F   UNL     1       4.902   4.067  13.224  0.00  0.00    +0.000 F 
ATOM     31  F   UNL     1       6.870   4.011  12.298  0.00  0.00    +0.000 F 
ENDBRANCH  28  29
ENDBRANCH  25  28
ENDBRANCH  21  22
ENDBRANCH   1  21
TORSDOF 7
ENDMDL
MODEL 4
REMARK VINA RESULT:      -7.4      3.601      9.075
REMARK  Name = 
REMARK  9 active torsions:
REMARK  status: ('A' for Active; 'I' for Inactive)
REMARK    1  A    between atoms: C_1  and  C_2
REMARK    2  A    between atoms: C_2  and  N_3
REMARK    3  A    between atoms: C_2  and  C_20
REMARK    4  A    between atoms: C_9  and  N_10
REMARK    5  A    between atoms: C_15  and  C_16
REMARK    6  A    between atoms: C_16  and  C_17
REMARK    7  A    between atoms: C_16  and  O_18
REMARK    8  A    between atoms: C_23  and  O_24
REMARK    9  A    between atoms: O_24  and  C_25
REMARK                            x       y       z     vdW  Elec       q    Type
REMARK                         _______ _______ _______ _____ _____    ______ ____
ROOT
ATOM      1  N   UNL     1       2.503   7.419  18.166  0.00  0.00    +0.000 N 
ATOM      2  C   UNL     1       1.900   8.144  19.174  0.00  0.00    +0.000 A 
ATOM      3  N   UNL     1       1.729   7.588  20.385  0.00  0.00    +0.000 NA
ATOM      4  C   UNL     1       1.171   8.352  21.343  0.00  0.00    +0.000 A 
ATOM      5  C   UNL     1       0.793   9.650  21.142  0.00  0.00    +0.000 A 
ATOM      6  F   UNL     1       0.163  10.344  22.096  0.00  0.00    +0.000 F 
ATOM      7  C   UNL     1       0.972  10.136  19.862  0.00  0.00    +0.000 A 
ATOM      8  N   UNL     1       1.494   9.389  18.858  0.00  0.00    +0.000 NA
ATOM      9  H   UNL     1       2.954   8.049  17.518  0.00  0.00    +0.000 HD
ENDROOT
BRANCH   7  10
ATOM     10  N   UNL     1       0.507  11.428  19.588  0.00  0.00    +0.000 N 
ATOM     11  C   UNL     1       1.059  12.560  20.139  0.00  0.00    +0.000 C 
ATOM     12  O   UNL     1       1.978  12.624  20.939  0.00  0.00    +0.000 OA
ATOM     13  O   UNL     1       0.458  13.663  19.607  0.00  0.00    +0.000 OA
ATOM     14  C   UNL     1      -0.692  13.230  18.870  0.00  0.00    +0.000 C 
ATOM     15  C   UNL     1      -0.476  11.746  18.593  0.00  0.00    +0.000 C 
BRANCH  15  16
ATOM     16  C   UNL     1      -1.796  10.948  18.743  0.00  0.00    +0.000 C 
ATOM     17  C   UNL     1      -3.029  11.828  18.902  0.00  0.00    +0.000 C 
BRANCH  16  18
ATOM     18  O   UNL     1      -2.041  10.092  17.626  0.00  0.00    +0.000 OA
ATOM     19  H   UNL     1      -1.355   9.400  17.589  0.00  0.00    +0.000 HD
ENDBRANCH  16  18
ENDBRANCH  15  16
ENDBRANCH   7  10
BRANCH   1  21
ATOM     20  C   UNL     1       2.139   5.107  18.803  0.00  0.00    +0.000 C 
ATOM     21  C   UNL     1       3.193   6.175  18.485  0.00  0.00    +0.000 C 
BRANCH  21  22
ATOM     22  C   UNL     1       4.105   5.700  17.362  0.00  0.00    +0.000 A 
ATOM     23  C   UNL     1       4.648   6.637  16.468  0.00  0.00    +0.000 A 
ATOM     24  C   UNL     1       5.504   6.234  15.438  0.00  0.00    +0.000 A 
ATOM     25  C   UNL     1       5.849   4.893  15.286  0.00  0.00    +0.000 A 
ATOM     26  C   UNL     1       5.313   3.948  16.162  0.00  0.00    +0.000 A 
ATOM     27  C   UNL     1       4.457   4.351  17.197  0.00  0.00    +0.000 A 
BRANCH  25  28
ATOM     28  O   UNL     1       6.684   4.625  14.237  0.00  0.00    +0.000 OA
BRANCH  28  29
ATOM     29  C   UNL     1       6.199   3.691  13.288  0.00  0.00    +0.000 C 
ATOM     30  F   UNL     1       4.895   3.954  13.031  0.00  0.00    +0.000 F 
ATOM     31  F   UNL     1       6.875   3.906  12.130  0.00  0.00    +0.000 F 
ENDBRANCH  28  29
ENDBRANCH  25  28
ENDBRANCH  21  22
ENDBRANCH   1  21
TORSDOF 7
ENDMDL
MODEL 5
REMARK VINA RESULT:      -7.3      3.626      9.269
REMARK  Name = 
REMARK  9 active torsions:
REMARK  status: ('A' for Active; 'I' for Inactive)
REMARK    1  A    between atoms: C_1  and  C_2
REMARK    2  A    between atoms: C_2  and  N_3
REMARK    3  A    between atoms: C_2  and  C_20
REMARK    4  A    between atoms: C_9  and  N_10
REMARK    5  A    between atoms: C_15  and  C_16
REMARK    6  A    between atoms: C_16  and  C_17
REMARK    7  A    between atoms: C_16  and  O_18
REMARK    8  A    between atoms: C_23  and  O_24
REMARK    9  A    between atoms: O_24  and  C_25
REMARK                            x       y       z     vdW  Elec       q    Type
REMARK                         _______ _______ _______ _____ _____    ______ ____
ROOT
ATOM      1  N   UNL     1       2.382   7.311  18.214  0.00  0.00    +0.000 N 
ATOM      2  C   UNL     1       1.826   8.071  19.224  0.00  0.00    +0.000 A 
ATOM      3  N   UNL     1       1.678   7.546  20.451  0.00  0.00    +0.000 NA
ATOM      4  C   UNL     1       1.166   8.344  21.407  0.00  0.00    +0.000 A 
ATOM      5  C   UNL     1       0.811   9.645  21.188  0.00  0.00    +0.000 A 
ATOM      6  F   UNL     1       0.224  10.374  22.144  0.00  0.00    +0.000 F 
ATOM      7  C   UNL     1       0.962  10.098  19.893  0.00  0.00    +0.000 A 
ATOM      8  N   UNL     1       1.437   9.318  18.891  0.00  0.00    +0.000 NA
ATOM      9  H   UNL     1       2.827   7.916  17.540  0.00  0.00    +0.000 HD
ENDROOT
BRANCH   7  10
ATOM     10  N   UNL     1       0.518  11.394  19.603  0.00  0.00    +0.000 N 
ATOM     11  C   UNL     1       1.096  12.524  20.131  0.00  0.00    +0.000 C 
ATOM     12  O   UNL     1       2.023  12.584  20.921  0.00  0.00    +0.000 OA
ATOM     13  O   UNL     1       0.509  13.630  19.588  0.00  0.00    +0.000 OA
ATOM     14  C   UNL     1      -0.655  13.207  18.868  0.00  0.00    +0.000 C 
ATOM     15  C   UNL     1      -0.470  11.715  18.612  0.00  0.00    +0.000 C 
BRANCH  15  16
ATOM     16  C   UNL     1      -1.801  10.943  18.788  0.00  0.00    +0.000 C 
ATOM     17  C   UNL     1      -3.031  11.842  18.813  0.00  0.00    +0.000 C 
BRANCH  16  18
ATOM     18  O   UNL     1      -2.013   9.985  17.750  0.00  0.00    +0.000 OA
ATOM     19  H   UNL     1      -2.148  10.448  16.902  0.00  0.00    +0.000 HD
ENDBRANCH  16  18
ENDBRANCH  15  16
ENDBRANCH   7  10
BRANCH   1  21
ATOM     20  C   UNL     1       2.029   4.922  18.442  0.00  0.00    +0.000 C 
ATOM     21  C   UNL     1       3.054   6.059  18.542  0.00  0.00    +0.000 C 
BRANCH  21  22
ATOM     22  C   UNL     1       4.248   5.775  17.640  0.00  0.00    +0.000 A 
ATOM     23  C   UNL     1       4.341   4.536  16.985  0.00  0.00    +0.000 A 
ATOM     24  C   UNL     1       5.415   4.254  16.135  0.00  0.00    +0.000 A 
ATOM     25  C   UNL     1       6.410   5.202  15.909  0.00  0.00    +0.000 A 
ATOM     26  C   UNL     1       6.335   6.436  16.557  0.00  0.00    +0.000 A 
ATOM     27  C   UNL     1       5.257   6.722  17.406  0.00  0.00    +0.000 A 
BRANCH  25  28
ATOM     28  O   UNL     1       7.411   4.803  15.067  0.00  0.00    +0.000 OA
BRANCH  28  29
ATOM     29  C   UNL     1       7.173   5.011  13.686  0.00  0.00    +0.000 C 
ATOM     30  F   UNL     1       8.324   5.406  13.091  0.00  0.00    +0.000 F 
ATOM     31  F   UNL     1       6.849   3.807  13.147  0.00  0.00    +0.000 F 
ENDBRANCH  28  29
ENDBRANCH  25  28
ENDBRANCH  21  22
ENDBRANCH   1  21
TORSDOF 7
ENDMDL
MODEL 6
REMARK VINA RESULT:      -7.3      3.562      9.299
REMARK  Name = 
REMARK  9 active torsions:
REMARK  status: ('A' for Active; 'I' for Inactive)
REMARK    1  A    between atoms: C_1  and  C_2
REMARK    2  A    between atoms: C_2  and  N_3
REMARK    3  A    between atoms: C_2  and  C_20
REMARK    4  A    between atoms: C_9  and  N_10
REMARK    5  A    between atoms: C_15  and  C_16
REMARK    6  A    between atoms: C_16  and  C_17
REMARK    7  A    between atoms: C_16  and  O_18
REMARK    8  A    between atoms: C_23  and  O_24
REMARK    9  A    between atoms: O_24  and  C_25
REMARK                            x       y       z     vdW  Elec       q    Type
REMARK                         _______ _______ _______ _____ _____    ______ ____
ROOT
ATOM      1  N   UNL     1       2.396   7.424  18.321  0.00  0.00    +0.000 N 
ATOM      2  C   UNL     1       1.854   8.321  19.220  0.00  0.00    +0.000 A 
ATOM      3  N   UNL     1       1.707   7.969  20.507  0.00  0.00    +0.000 NA
ATOM      4  C   UNL     1       1.209   8.896  21.348  0.00  0.00    +0.000 A 
ATOM      5  C   UNL     1       0.869  10.160  20.956  0.00  0.00    +0.000 A 
ATOM      6  F   UNL     1       0.297  11.019  21.806  0.00  0.00    +0.000 F 
ATOM      7  C   UNL     1       1.019  10.431  19.611  0.00  0.00    +0.000 A 
ATOM      8  N   UNL     1       1.480   9.516  18.722  0.00  0.00    +0.000 NA
ATOM      9  H   UNL     1       2.845   7.925  17.569  0.00  0.00    +0.000 HD
ENDROOT
BRANCH   7  10
ATOM     10  N   UNL     1       0.589  11.681  19.149  0.00  0.00    +0.000 N 
ATOM     11  C   UNL     1       1.375  12.809  19.187  0.00  0.00    +0.000 C 
ATOM     12  O   UNL     1       2.506  12.911  19.631  0.00  0.00    +0.000 OA
ATOM     13  O   UNL     1       0.719  13.840  18.580  0.00  0.00    +0.000 OA
ATOM     14  C   UNL     1      -0.638  13.434  18.360  0.00  0.00    +0.000 C 
ATOM     15  C   UNL     1      -0.638  11.912  18.441  0.00  0.00    +0.000 C 
BRANCH  15  16
ATOM     16  C   UNL     1      -1.892  11.387  19.184  0.00  0.00    +0.000 C 
ATOM     17  C   UNL     1      -2.485  12.389  20.167  0.00  0.00    +0.000 C 
BRANCH  16  18
ATOM     18  O   UNL     1      -2.941  11.022  18.285  0.00  0.00    +0.000 OA
ATOM     19  H   UNL     1      -3.707  10.698  18.794  0.00  0.00    +0.000 HD
ENDBRANCH  16  18
ENDBRANCH  15  16
ENDBRANCH   7  10
BRANCH   1  21
ATOM     20  C   UNL     1       2.008   5.101  18.901  0.00  0.00    +0.000 C 
ATOM     21  C   UNL     1       3.054   6.219  18.813  0.00  0.00    +0.000 C 
BRANCH  21  22
ATOM     22  C   UNL     1       4.221   5.783  17.937  0.00  0.00    +0.000 A 
ATOM     23  C   UNL     1       4.439   6.424  16.706  0.00  0.00    +0.000 A 
ATOM     24  C   UNL     1       5.514   6.059  15.889  0.00  0.00    +0.000 A 
ATOM     25  C   UNL     1       6.400   5.060  16.286  0.00  0.00    +0.000 A 
ATOM     26  C   UNL     1       6.193   4.409  17.502  0.00  0.00    +0.000 A 
ATOM     27  C   UNL     1       5.119   4.776  18.325  0.00  0.00    +0.000 A 
BRANCH  25  28
ATOM     28  O   UNL     1       7.402   4.789  15.396  0.00  0.00    +0.000 OA
BRANCH  28  29
ATOM     29  C   UNL     1       7.057   4.902  14.027  0.00  0.00    +0.000 C 
ATOM     30  F   UNL     1       8.139   5.322  13.328  0.00  0.00    +0.000 F 
ATOM     31  F   UNL     1       6.766   3.653  13.579  0.00  0.00    +0.000 F 
ENDBRANCH  28  29
ENDBRANCH  25  28
ENDBRANCH  21  22
ENDBRANCH   1  21
TORSDOF 7
ENDMDL
MODEL 7
REMARK VINA RESULT:      -7.3      3.562      8.901
REMARK  Name = 
REMARK  9 active torsions:
REMARK  status: ('A' for Active; 'I' for Inactive)
REMARK    1  A    between atoms: C_1  and  C_2
REMARK    2  A    between atoms: C_2  and  N_3
REMARK    3  A    between atoms: C_2  and  C_20
REMARK    4  A    between atoms: C_9  and  N_10
REMARK    5  A    between atoms: C_15  and  C_16
REMARK    6  A    between atoms: C_16  and  C_17
REMARK    7  A    between atoms: C_16  and  O_18
REMARK    8  A    between atoms: C_23  and  O_24
REMARK    9  A    between atoms: O_24  and  C_25
REMARK                            x       y       z     vdW  Elec       q    Type
REMARK                         _______ _______ _______ _____ _____    ______ ____
ROOT
ATOM      1  N   UNL     1       2.650   7.347  18.019  0.00  0.00    +0.000 N 
ATOM      2  C   UNL     1       1.982   8.115  18.952  0.00  0.00    +0.000 A 
ATOM      3  N   UNL     1       1.879   7.684  20.220  0.00  0.00    +0.000 NA
ATOM      4  C   UNL     1       1.250   8.489  21.097  0.00  0.00    +0.000 A 
ATOM      5  C   UNL     1       0.737   9.710  20.760  0.00  0.00    +0.000 A 
ATOM      6  F   UNL     1       0.044  10.438  21.642  0.00  0.00    +0.000 F 
ATOM      7  C   UNL     1       0.855  10.064  19.431  0.00  0.00    +0.000 A 
ATOM      8  N   UNL     1       1.446   9.268  18.506  0.00  0.00    +0.000 NA
ATOM      9  H   UNL     1       3.029   7.943  17.297  0.00  0.00    +0.000 HD
ENDROOT
BRANCH   7  10
ATOM     10  N   UNL     1       0.256  11.263  19.023  0.00  0.00    +0.000 N 
ATOM     11  C   UNL     1      -0.892  11.311  18.267  0.00  0.00    +0.000 C 
ATOM     12  O   UNL     1      -1.529  10.371  17.824  0.00  0.00    +0.000 OA
ATOM     13  O   UNL     1      -1.280  12.611  18.116  0.00  0.00    +0.000 OA
ATOM     14  C   UNL     1      -0.216  13.450  18.580  0.00  0.00    +0.000 C 
ATOM     15  C   UNL     1       0.656  12.567  19.467  0.00  0.00    +0.000 C 
BRANCH  15  16
ATOM     16  C   UNL     1       2.161  12.863  19.251  0.00  0.00    +0.000 C 
ATOM     17  C   UNL     1       2.440  13.796  18.079  0.00  0.00    +0.000 C 
BRANCH  16  18
ATOM     18  O   UNL     1       2.768  13.455  20.401  0.00  0.00    +0.000 OA
ATOM     19  H   UNL     1       3.596  12.983  20.611  0.00  0.00    +0.000 HD
ENDBRANCH  16  18
ENDBRANCH  15  16
ENDBRANCH   7  10
BRANCH   1  21
ATOM     20  C   UNL     1       2.544   5.163  19.069  0.00  0.00    +0.000 C 
ATOM     21  C   UNL     1       3.469   6.225  18.462  0.00  0.00    +0.000 C 
BRANCH  21  22
ATOM     22  C   UNL     1       4.301   5.620  17.338  0.00  0.00    +0.000 A 
ATOM     23  C   UNL     1       4.421   4.224  17.241  0.00  0.00    +0.000 A 
ATOM     24  C   UNL     1       5.162   3.639  16.209  0.00  0.00    +0.000 A 
ATOM     25  C   UNL     1       5.786   4.429  15.247  0.00  0.00    +0.000 A 
ATOM     26  C   UNL     1       5.682   5.818  15.333  0.00  0.00    +0.000 A 
ATOM     27  C   UNL     1       4.936   6.406  16.364  0.00  0.00    +0.000 A 
BRANCH  25  28
ATOM     28  O   UNL     1       6.488   3.739  14.297  0.00  0.00    +0.000 OA
BRANCH  28  29
ATOM     29  C   UNL     1       6.052   3.917  12.961  0.00  0.00    +0.000 C 
ATOM     30  F   UNL     1       6.484   2.874  12.210  0.00  0.00    +0.000 F 
ATOM     31  F   UNL     1       4.696   3.857  12.967  0.00  0.00    +0.000 F 
ENDBRANCH  28  29
ENDBRANCH  25  28
ENDBRANCH  21  22
ENDBRANCH   1  21
TORSDOF 7
ENDMDL
MODEL 8
REMARK VINA RESULT:      -7.2      1.073      1.450
REMARK  Name = 
REMARK  9 active torsions:
REMARK  status: ('A' for Active; 'I' for Inactive)
REMARK    1  A    between atoms: C_1  and  C_2
REMARK    2  A    between atoms: C_2  and  N_3
REMARK    3  A    between atoms: C_2  and  C_20
REMARK    4  A    between atoms: C_9  and  N_10
REMARK    5  A    between atoms: C_15  and  C_16
REMARK    6  A    between atoms: C_16  and  C_17
REMARK    7  A    between atoms: C_16  and  O_18
REMARK    8  A    between atoms: C_23  and  O_24
REMARK    9  A    between atoms: O_24  and  C_25
REMARK                            x       y       z     vdW  Elec       q    Type
REMARK                         _______ _______ _______ _____ _____    ______ ____
ROOT
ATOM      1  N   UNL     1       1.383   9.428  18.639  0.00  0.00    +0.000 N 
ATOM      2  C   UNL     1       1.975   8.235  19.004  0.00  0.00    +0.000 A 
ATOM      3  N   UNL     1       1.854   7.789  20.265  0.00  0.00    +0.000 NA
ATOM      4  C   UNL     1       2.417   6.602  20.557  0.00  0.00    +0.000 A 
ATOM      5  C   UNL     1       3.081   5.839  19.637  0.00  0.00    +0.000 A 
ATOM      6  F   UNL     1       3.701   4.709  19.991  0.00  0.00    +0.000 F 
ATOM      7  C   UNL     1       3.190   6.384  18.373  0.00  0.00    +0.000 A 
ATOM      8  N   UNL     1       2.672   7.593  18.046  0.00  0.00    +0.000 NA
ATOM      9  H   UNL     1       1.169   9.413  17.652  0.00  0.00    +0.000 HD
ENDROOT
BRANCH   7  10
ATOM     10  N   UNL     1       3.948   5.682  17.427  0.00  0.00    +0.000 N 
ATOM     11  C   UNL     1       3.604   4.434  16.963  0.00  0.00    +0.000 C 
ATOM     12  O   UNL     1       2.650   3.754  17.300  0.00  0.00    +0.000 OA
ATOM     13  O   UNL     1       4.478   4.058  15.985  0.00  0.00    +0.000 OA
ATOM     14  C   UNL     1       5.570   4.984  15.985  0.00  0.00    +0.000 C 
ATOM     15  C   UNL     1       5.066   6.226  16.712  0.00  0.00    +0.000 C 
BRANCH  15  16
ATOM     16  C   UNL     1       6.161   6.825  17.630  0.00  0.00    +0.000 C 
ATOM     17  C   UNL     1       6.985   5.774  18.365  0.00  0.00    +0.000 C 
BRANCH  16  18
ATOM     18  O   UNL     1       7.084   7.643  16.910  0.00  0.00    +0.000 OA
ATOM     19  H   UNL     1       7.624   7.083  16.322  0.00  0.00    +0.000 HD
ENDBRANCH  16  18
ENDBRANCH  15  16
ENDBRANCH   7  10
BRANCH   1  21
ATOM     20  C   UNL     1       1.083  11.252  20.208  0.00  0.00    +0.000 C 
ATOM     21  C   UNL     1       0.412  10.053  19.528  0.00  0.00    +0.000 C 
BRANCH  21  22
ATOM     22  C   UNL     1      -0.853  10.496  18.804  0.00  0.00    +0.000 A 
ATOM     23  C   UNL     1      -1.168   9.935  17.555  0.00  0.00    +0.000 A 
ATOM     24  C   UNL     1      -2.332  10.307  16.876  0.00  0.00    +0.000 A 
ATOM     25  C   UNL     1      -3.213  11.233  17.430  0.00  0.00    +0.000 A 
ATOM     26  C   UNL     1      -2.911  11.804  18.667  0.00  0.00    +0.000 A 
ATOM     27  C   UNL     1      -1.747  11.430  19.352  0.00  0.00    +0.000 A 
BRANCH  25  28
ATOM     28  O   UNL     1      -4.309  11.520  16.664  0.00  0.00    +0.000 OA
BRANCH  28  29
ATOM     29  C   UNL     1      -5.460  11.945  17.373  0.00  0.00    +0.000 C 
ATOM     30  F   UNL     1      -6.253  12.664  16.541  0.00  0.00    +0.000 F 
ATOM     31  F   UNL     1      -6.159  10.831  17.711  0.00  0.00    +0.000 F 
ENDBRANCH  28  29
ENDBRANCH  25  28
ENDBRANCH  21  22
ENDBRANCH   1  21
TORSDOF 7
ENDMDL
MODEL 9
REMARK VINA RESULT:      -7.2      1.248      1.338
REMARK  Name = 
REMARK  9 active torsions:
REMARK  status: ('A' for Active; 'I' for Inactive)
REMARK    1  A    between atoms: C_1  and  C_2
REMARK    2  A    between atoms: C_2  and  N_3
REMARK    3  A    between atoms: C_2  and  C_20
REMARK    4  A    between atoms: C_9  and  N_10
REMARK    5  A    between atoms: C_15  and  C_16
REMARK    6  A    between atoms: C_16  and  C_17
REMARK    7  A    between atoms: C_16  and  O_18
REMARK    8  A    between atoms: C_23  and  O_24
REMARK    9  A    between atoms: O_24  and  C_25
REMARK                            x       y       z     vdW  Elec       q    Type
REMARK                         _______ _______ _______ _____ _____    ______ ____
ROOT
ATOM      1  N   UNL     1       2.000   9.263  18.087  0.00  0.00    +0.000 N 
ATOM      2  C   UNL     1       2.055   8.083  18.802  0.00  0.00    +0.000 A 
ATOM      3  N   UNL     1       1.808   8.091  20.122  0.00  0.00    +0.000 NA
ATOM      4  C   UNL     1       1.836   6.907  20.763  0.00  0.00    +0.000 A 
ATOM      5  C   UNL     1       2.086   5.719  20.134  0.00  0.00    +0.000 A 
ATOM      6  F   UNL     1       2.192   4.578  20.824  0.00  0.00    +0.000 F 
ATOM      7  C   UNL     1       2.363   5.802  18.784  0.00  0.00    +0.000 A 
ATOM      8  N   UNL     1       2.383   6.976  18.107  0.00  0.00    +0.000 NA
ATOM      9  H   UNL     1       1.761   9.068  17.126  0.00  0.00    +0.000 HD
ENDROOT
BRANCH   7  10
ATOM     10  N   UNL     1       2.722   4.621  18.122  0.00  0.00    +0.000 N 
ATOM     11  C   UNL     1       1.810   3.797  17.504  0.00  0.00    +0.000 C 
ATOM     12  O   UNL     1       0.599   3.934  17.456  0.00  0.00    +0.000 OA
ATOM     13  O   UNL     1       2.470   2.786  16.869  0.00  0.00    +0.000 OA
ATOM     14  C   UNL     1       3.839   2.814  17.292  0.00  0.00    +0.000 C 
ATOM     15  C   UNL     1       4.071   4.208  17.865  0.00  0.00    +0.000 C 
BRANCH  15  16
ATOM     16  C   UNL     1       4.959   4.155  19.133  0.00  0.00    +0.000 C 
ATOM     17  C   UNL     1       4.753   2.901  19.973  0.00  0.00    +0.000 C 
BRANCH  16  18
ATOM     18  O   UNL     1       6.352   4.219  18.823  0.00  0.00    +0.000 OA
ATOM     19  H   UNL     1       6.833   3.552  19.348  0.00  0.00    +0.000 HD
ENDBRANCH  16  18
ENDBRANCH  15  16
ENDBRANCH   7  10
BRANCH   1  21
ATOM     20  C   UNL     1       2.141  11.684  18.152  0.00  0.00    +0.000 C 
ATOM     21  C   UNL     1       1.413  10.450  18.699  0.00  0.00    +0.000 C 
BRANCH  21  22
ATOM     22  C   UNL     1      -0.085  10.565  18.446  0.00  0.00    +0.000 A 
ATOM     23  C   UNL     1      -0.840  11.498  19.175  0.00  0.00    +0.000 A 
ATOM     24  C   UNL     1      -2.213  11.641  18.952  0.00  0.00    +0.000 A 
ATOM     25  C   UNL     1      -2.859  10.869  17.989  0.00  0.00    +0.000 A 
ATOM     26  C   UNL     1      -2.125   9.933  17.260  0.00  0.00    +0.000 A 
ATOM     27  C   UNL     1      -0.747   9.791  17.480  0.00  0.00    +0.000 A 
BRANCH  25  28
ATOM     28  O   UNL     1      -4.203  11.095  17.872  0.00  0.00    +0.000 OA
BRANCH  28  29
ATOM     29  C   UNL     1      -4.745  12.056  18.761  0.00  0.00    +0.000 C 
ATOM     30  F   UNL     1      -5.513  12.926  18.061  0.00  0.00    +0.000 F 
ATOM     31  F   UNL     1      -5.576  11.398  19.609  0.00  0.00    +0.000 F 
ENDBRANCH  28  29
ENDBRANCH  25  28
ENDBRANCH  21  22
ENDBRANCH   1  21
TORSDOF 7
ENDMDL
