MODEL 1
REMARK VINA RESULT:      -7.8      0.000      0.000
REMARK  Name = 
REMARK  3 active torsions:
REMARK  status: ('A' for Active; 'I' for Inactive)
REMARK    1  A    between atoms: C_2  and  C_21
REMARK    2  A    between atoms: N_3  and  C_4
REMARK    3  A    between atoms: C_8  and  C_9
REMARK                            x       y       z     vdW  Elec       q    Type
REMARK                         _______ _______ _______ _____ _____    ______ ____
ROOT
ATOM      1  C   UNL     1       3.343   6.596  18.274  0.00  0.00    +0.000 A 
ATOM      2  S   UNL     1       4.771   7.377  17.768  0.00  0.00    +0.000 S 
ATOM      3  C   UNL     1       5.206   6.071  16.780  0.00  0.00    +0.000 A 
ATOM      4  C   UNL     1       4.315   5.017  16.868  0.00  0.00    +0.000 A 
ATOM      5  C   UNL     1       3.204   5.316  17.761  0.00  0.00    +0.000 A 
ATOM      6  C   UNL     1       4.540   3.743  16.095  0.00  0.00    +0.000 C 
ATOM      7  C   UNL     1       5.988   3.629  15.584  0.00  0.00    +0.000 C 
ATOM      8  C   UNL     1       6.476   4.938  14.952  0.00  0.00    +0.000 C 
ATOM      9  C   UNL     1       6.459   6.096  15.958  0.00  0.00    +0.000 C 
ENDROOT
BRANCH   5  10
ATOM     10  C   UNL     1       2.091   4.398  18.042  0.00  0.00    +0.000 C 
ATOM     11  O   UNL     1       1.151   4.304  17.258  0.00  0.00    +0.000 OA
ATOM     12  N   UNL     1       2.136   3.651  19.220  0.00  0.00    +0.000 N 
ATOM     13  C   UNL     1       1.025   2.755  19.554  0.00  0.00    +0.000 C 
ATOM     14  C   UNL     1       0.802   2.695  21.078  0.00  0.00    +0.000 C 
ATOM     15  O   UNL     1       2.019   2.406  21.787  0.00  0.00    +0.000 OA
ATOM     16  C   UNL     1       3.023   3.383  21.475  0.00  0.00    +0.000 C 
ATOM     17  C   UNL     1       3.354   3.346  19.983  0.00  0.00    +0.000 C 
ENDBRANCH   5  10
BRANCH   1  20
ATOM     18  O   UNL     1       2.063   8.950  17.408  0.00  0.00    +0.000 OA
ATOM     19  C   UNL     1       1.838   8.472  18.517  0.00  0.00    +0.000 C 
ATOM     20  N   UNL     1       2.463   7.345  19.040  0.00  0.00    +0.000 N 
ATOM     21  H   UNL     1       2.562   7.287  20.045  0.00  0.00    +0.000 HD
BRANCH  19  22
ATOM     22  C   UNL     1       0.976   9.260  19.449  0.00  0.00    +0.000 A 
ATOM     23  C   UNL     1       1.388   9.309  20.798  0.00  0.00    +0.000 A 
ATOM     24  C   UNL     1       0.659  10.028  21.748  0.00  0.00    +0.000 A 
ATOM     25  C   UNL     1      -0.476  10.727  21.358  0.00  0.00    +0.000 A 
ATOM     26  C   UNL     1      -0.896  10.684  20.028  0.00  0.00    +0.000 A 
ATOM     27  C   UNL     1      -0.182   9.947  19.072  0.00  0.00    +0.000 A 
ATOM     28 CL   UNL     1      -0.800   9.970  17.461  0.00  0.00    +0.000 Cl
ENDBRANCH  19  22
ENDBRANCH   1  20
TORSDOF 3
ENDMDL
MODEL 2
REMARK VINA RESULT:      -7.7      1.056      1.315
REMARK  Name = 
REMARK  3 active torsions:
REMARK  status: ('A' for Active; 'I' for Inactive)
REMARK    1  A    between atoms: C_2  and  C_21
REMARK    2  A    between atoms: N_3  and  C_4
REMARK    3  A    between atoms: C_8  and  C_9
REMARK                            x       y       z     vdW  Elec       q    Type
REMARK                         _______ _______ _______ _____ _____    ______ ____
ROOT
ATOM      1  C   UNL     1       3.472   6.608  18.162  0.00  0.00    +0.000 A 
ATOM      2  S   UNL     1       4.931   7.318  17.640  0.00  0.00    +0.000 S 
ATOM      3  C   UNL     1       5.323   5.963  16.700  0.00  0.00    +0.000 A 
ATOM      4  C   UNL     1       4.392   4.946  16.819  0.00  0.00    +0.000 A 
ATOM      5  C   UNL     1       3.288   5.317  17.692  0.00  0.00    +0.000 A 
ATOM      6  C   UNL     1       4.573   3.639  16.092  0.00  0.00    +0.000 C 
ATOM      7  C   UNL     1       6.019   3.452  15.596  0.00  0.00    +0.000 C 
ATOM      8  C   UNL     1       6.559   4.720  14.922  0.00  0.00    +0.000 C 
ATOM      9  C   UNL     1       6.581   5.912  15.888  0.00  0.00    +0.000 C 
ENDROOT
BRANCH   5  10
ATOM     10  C   UNL     1       2.140   4.452  17.998  0.00  0.00    +0.000 C 
ATOM     11  O   UNL     1       1.175   4.410  17.238  0.00  0.00    +0.000 OA
ATOM     12  N   UNL     1       2.180   3.694  19.168  0.00  0.00    +0.000 N 
ATOM     13  C   UNL     1       1.035   2.850  19.526  0.00  0.00    +0.000 C 
ATOM     14  C   UNL     1       0.852   2.787  21.055  0.00  0.00    +0.000 C 
ATOM     15  O   UNL     1       2.071   2.434  21.729  0.00  0.00    +0.000 OA
ATOM     16  C   UNL     1       3.113   3.364  21.396  0.00  0.00    +0.000 C 
ATOM     17  C   UNL     1       3.402   3.323  19.895  0.00  0.00    +0.000 C 
ENDBRANCH   5  10
BRANCH   1  20
ATOM     18  O   UNL     1       2.194   8.913  17.169  0.00  0.00    +0.000 OA
ATOM     19  C   UNL     1       1.990   8.512  18.312  0.00  0.00    +0.000 C 
ATOM     20  N   UNL     1       2.616   7.416  18.895  0.00  0.00    +0.000 N 
ATOM     21  H   UNL     1       2.738   7.424  19.900  0.00  0.00    +0.000 HD
BRANCH  19  22
ATOM     22  C   UNL     1       1.156   9.369  19.208  0.00  0.00    +0.000 A 
ATOM     23  C   UNL     1       0.751  10.618  18.687  0.00  0.00    +0.000 A 
ATOM     24  C   UNL     1      -0.040  11.489  19.439  0.00  0.00    +0.000 A 
ATOM     25  C   UNL     1      -0.456  11.116  20.711  0.00  0.00    +0.000 A 
ATOM     26  C   UNL     1      -0.060   9.886  21.238  0.00  0.00    +0.000 A 
ATOM     27  C   UNL     1       0.753   9.015  20.498  0.00  0.00    +0.000 A 
ATOM     28 CL   UNL     1       1.178   7.524  21.258  0.00  0.00    +0.000 Cl
ENDBRANCH  19  22
ENDBRANCH   1  20
TORSDOF 3
ENDMDL
MODEL 3
REMARK VINA RESULT:      -7.2      1.114      1.143
REMARK  Name = 
REMARK  3 active torsions:
REMARK  status: ('A' for Active; 'I' for Inactive)
REMARK    1  A    between atoms: C_2  and  C_21
REMARK    2  A    between atoms: N_3  and  C_4
REMARK    3  A    between atoms: C_8  and  C_9
REMARK                            x       y       z     vdW  Elec       q    Type
REMARK                         _______ _______ _______ _____ _____    ______ ____
ROOT
ATOM      1  C   UNL     1       3.405   6.682  17.832  0.00  0.00    +0.000 A 
ATOM      2  S   UNL     1       4.891   7.312  17.283  0.00  0.00    +0.000 S 
ATOM      3  C   UNL     1       5.302   5.849  16.532  0.00  0.00    +0.000 A 
ATOM      4  C   UNL     1       4.355   4.861  16.739  0.00  0.00    +0.000 A 
ATOM      5  C   UNL     1       3.224   5.345  17.517  0.00  0.00    +0.000 A 
ATOM      6  C   UNL     1       4.548   3.473  16.186  0.00  0.00    +0.000 C 
ATOM      7  C   UNL     1       6.009   3.216  15.772  0.00  0.00    +0.000 C 
ATOM      8  C   UNL     1       6.589   4.387  14.969  0.00  0.00    +0.000 C 
ATOM      9  C   UNL     1       6.589   5.689  15.781  0.00  0.00    +0.000 C 
ENDROOT
BRANCH   5  10
ATOM     10  C   UNL     1       2.055   4.532  17.882  0.00  0.00    +0.000 C 
ATOM     11  O   UNL     1       1.035   4.572  17.200  0.00  0.00    +0.000 OA
ATOM     12  N   UNL     1       2.142   3.728  19.019  0.00  0.00    +0.000 N 
ATOM     13  C   UNL     1       0.982   2.934  19.437  0.00  0.00    +0.000 C 
ATOM     14  C   UNL     1       0.912   2.823  20.972  0.00  0.00    +0.000 C 
ATOM     15  O   UNL     1       2.158   2.378  21.536  0.00  0.00    +0.000 OA
ATOM     16  C   UNL     1       3.222   3.263  21.155  0.00  0.00    +0.000 C 
ATOM     17  C   UNL     1       3.393   3.264  19.635  0.00  0.00    +0.000 C 
ENDBRANCH   5  10
BRANCH   1  20
ATOM     18  O   UNL     1       2.659   6.641  20.547  0.00  0.00    +0.000 OA
ATOM     19  C   UNL     1       2.254   7.517  19.787  0.00  0.00    +0.000 C 
ATOM     20  N   UNL     1       2.533   7.581  18.426  0.00  0.00    +0.000 N 
ATOM     21  H   UNL     1       1.848   8.023  17.826  0.00  0.00    +0.000 HD
BRANCH  19  22
ATOM     22  C   UNL     1       1.235   8.474  20.314  0.00  0.00    +0.000 A 
ATOM     23  C   UNL     1       0.645   8.146  21.554  0.00  0.00    +0.000 A 
ATOM     24  C   UNL     1      -0.311   8.979  22.139  0.00  0.00    +0.000 A 
ATOM     25  C   UNL     1      -0.671  10.163  21.506  0.00  0.00    +0.000 A 
ATOM     26  C   UNL     1      -0.097  10.497  20.279  0.00  0.00    +0.000 A 
ATOM     27  C   UNL     1       0.847   9.654  19.674  0.00  0.00    +0.000 A 
ATOM     28 CL   UNL     1       1.484  10.174  18.156  0.00  0.00    +0.000 Cl
ENDBRANCH  19  22
ENDBRANCH   1  20
TORSDOF 3
ENDMDL
MODEL 4
REMARK VINA RESULT:      -6.9      6.831      9.808
REMARK  Name = 
REMARK  3 active torsions:
REMARK  status: ('A' for Active; 'I' for Inactive)
REMARK    1  A    between atoms: C_2  and  C_21
REMARK    2  A    between atoms: N_3  and  C_4
REMARK    3  A    between atoms: C_8  and  C_9
REMARK                            x       y       z     vdW  Elec       q    Type
REMARK                         _______ _______ _______ _____ _____    ______ ____
ROOT
ATOM      1  C   UNL     1       0.098  13.046  20.085  0.00  0.00    +0.000 A 
ATOM      2  S   UNL     1       0.737  11.626  19.389  0.00  0.00    +0.000 S 
ATOM      3  C   UNL     1       0.264  10.689  20.720  0.00  0.00    +0.000 A 
ATOM      4  C   UNL     1      -0.323  11.444  21.720  0.00  0.00    +0.000 A 
ATOM      5  C   UNL     1      -0.420  12.850  21.356  0.00  0.00    +0.000 A 
ATOM      6  C   UNL     1      -0.781  10.807  23.006  0.00  0.00    +0.000 C 
ATOM      7  C   UNL     1      -0.168   9.408  23.206  0.00  0.00    +0.000 C 
ATOM      8  C   UNL     1      -0.244   8.563  21.928  0.00  0.00    +0.000 C 
ATOM      9  C   UNL     1       0.523   9.214  20.770  0.00  0.00    +0.000 C 
ENDROOT
BRANCH   5  10
ATOM     10  C   UNL     1      -1.012  13.893  22.207  0.00  0.00    +0.000 C 
ATOM     11  O   UNL     1      -0.294  14.610  22.899  0.00  0.00    +0.000 OA
ATOM     12  N   UNL     1      -2.400  14.034  22.205  0.00  0.00    +0.000 N 
ATOM     13  C   UNL     1      -3.028  15.036  23.071  0.00  0.00    +0.000 C 
ATOM     14  C   UNL     1      -4.397  14.545  23.581  0.00  0.00    +0.000 C 
ATOM     15  O   UNL     1      -5.239  14.090  22.508  0.00  0.00    +0.000 OA
ATOM     16  C   UNL     1      -4.586  13.046  21.769  0.00  0.00    +0.000 C 
ATOM     17  C   UNL     1      -3.297  13.571  21.136  0.00  0.00    +0.000 C 
ENDBRANCH   5  10
BRANCH   1  20
ATOM     18  O   UNL     1       1.832  15.245  20.379  0.00  0.00    +0.000 OA
ATOM     19  C   UNL     1       1.008  15.199  19.470  0.00  0.00    +0.000 C 
ATOM     20  N   UNL     1       0.084  14.177  19.284  0.00  0.00    +0.000 N 
ATOM     21  H   UNL     1      -0.792  14.411  18.834  0.00  0.00    +0.000 HD
BRANCH  19  22
ATOM     22  C   UNL     1       0.854  16.413  18.614  0.00  0.00    +0.000 A 
ATOM     23  C   UNL     1       1.946  16.740  17.780  0.00  0.00    +0.000 A 
ATOM     24  C   UNL     1       1.899  17.848  16.933  0.00  0.00    +0.000 A 
ATOM     25  C   UNL     1       0.752  18.631  16.887  0.00  0.00    +0.000 A 
ATOM     26  C   UNL     1      -0.334  18.320  17.708  0.00  0.00    +0.000 A 
ATOM     27  C   UNL     1      -0.286  17.222  18.578  0.00  0.00    +0.000 A 
ATOM     28 CL   UNL     1      -1.689  16.941  19.543  0.00  0.00    +0.000 Cl
ENDBRANCH  19  22
ENDBRANCH   1  20
TORSDOF 3
ENDMDL
MODEL 5
REMARK VINA RESULT:      -6.8      1.999      2.604
REMARK  Name = 
REMARK  3 active torsions:
REMARK  status: ('A' for Active; 'I' for Inactive)
REMARK    1  A    between atoms: C_2  and  C_21
REMARK    2  A    between atoms: N_3  and  C_4
REMARK    3  A    between atoms: C_8  and  C_9
REMARK                            x       y       z     vdW  Elec       q    Type
REMARK                         _______ _______ _______ _____ _____    ______ ____
ROOT
ATOM      1  C   UNL     1       2.566   7.599  18.122  0.00  0.00    +0.000 A 
ATOM      2  S   UNL     1       3.729   8.174  17.016  0.00  0.00    +0.000 S 
ATOM      3  C   UNL     1       4.806   6.925  17.410  0.00  0.00    +0.000 A 
ATOM      4  C   UNL     1       4.325   6.105  18.414  0.00  0.00    +0.000 A 
ATOM      5  C   UNL     1       2.994   6.501  18.851  0.00  0.00    +0.000 A 
ATOM      6  C   UNL     1       5.146   4.955  18.937  0.00  0.00    +0.000 C 
ATOM      7  C   UNL     1       6.629   5.078  18.538  0.00  0.00    +0.000 C 
ATOM      8  C   UNL     1       6.792   5.452  17.059  0.00  0.00    +0.000 C 
ATOM      9  C   UNL     1       6.142   6.805  16.740  0.00  0.00    +0.000 C 
ENDROOT
BRANCH   5  10
ATOM     10  C   UNL     1       2.218   5.810  19.891  0.00  0.00    +0.000 C 
ATOM     11  O   UNL     1       1.926   6.388  20.934  0.00  0.00    +0.000 OA
ATOM     12  N   UNL     1       1.835   4.489  19.657  0.00  0.00    +0.000 N 
ATOM     13  C   UNL     1       1.094   3.755  20.688  0.00  0.00    +0.000 C 
ATOM     14  C   UNL     1       1.473   2.261  20.681  0.00  0.00    +0.000 C 
ATOM     15  O   UNL     1       1.370   1.686  19.367  0.00  0.00    +0.000 OA
ATOM     16  C   UNL     1       2.197   2.407  18.441  0.00  0.00    +0.000 C 
ATOM     17  C   UNL     1       1.731   3.859  18.333  0.00  0.00    +0.000 C 
ENDBRANCH   5  10
BRANCH   1  20
ATOM     18  O   UNL     1       2.151  10.376  18.343  0.00  0.00    +0.000 OA
ATOM     19  C   UNL     1       1.213   9.603  18.165  0.00  0.00    +0.000 C 
ATOM     20  N   UNL     1       1.326   8.218  18.096  0.00  0.00    +0.000 N 
ATOM     21  H   UNL     1       0.529   7.666  18.389  0.00  0.00    +0.000 HD
BRANCH  19  22
ATOM     22  C   UNL     1      -0.169  10.166  18.217  0.00  0.00    +0.000 A 
ATOM     23  C   UNL     1      -1.081   9.688  17.250  0.00  0.00    +0.000 A 
ATOM     24  C   UNL     1      -2.401  10.143  17.219  0.00  0.00    +0.000 A 
ATOM     25  C   UNL     1      -2.834  11.061  18.167  0.00  0.00    +0.000 A 
ATOM     26  C   UNL     1      -1.942  11.543  19.126  0.00  0.00    +0.000 A 
ATOM     27  C   UNL     1      -0.609  11.109  19.151  0.00  0.00    +0.000 A 
ATOM     28 CL   UNL     1       0.398  11.778  20.382  0.00  0.00    +0.000 Cl
ENDBRANCH  19  22
ENDBRANCH   1  20
TORSDOF 3
ENDMDL
MODEL 6
REMARK VINA RESULT:      -6.8      2.633      4.490
REMARK  Name = 
REMARK  3 active torsions:
REMARK  status: ('A' for Active; 'I' for Inactive)
REMARK    1  A    between atoms: C_2  and  C_21
REMARK    2  A    between atoms: N_3  and  C_4
REMARK    3  A    between atoms: C_8  and  C_9
REMARK                            x       y       z     vdW  Elec       q    Type
REMARK                         _______ _______ _______ _____ _____    ______ ____
ROOT
ATOM      1  C   UNL     1       2.086   7.011  19.407  0.00  0.00    +0.000 A 
ATOM      2  S   UNL     1       1.059   6.110  20.427  0.00  0.00    +0.000 S 
ATOM      3  C   UNL     1       1.626   4.641  19.799  0.00  0.00    +0.000 A 
ATOM      4  C   UNL     1       2.545   4.818  18.780  0.00  0.00    +0.000 A 
ATOM      5  C   UNL     1       2.822   6.225  18.534  0.00  0.00    +0.000 A 
ATOM      6  C   UNL     1       3.144   3.636  18.062  0.00  0.00    +0.000 C 
ATOM      7  C   UNL     1       2.338   2.346  18.305  0.00  0.00    +0.000 C 
ATOM      8  C   UNL     1       1.977   2.169  19.785  0.00  0.00    +0.000 C 
ATOM      9  C   UNL     1       1.113   3.326  20.302  0.00  0.00    +0.000 C 
ENDROOT
BRANCH   5  10
ATOM     10  C   UNL     1       3.767   6.725  17.525  0.00  0.00    +0.000 C 
ATOM     11  O   UNL     1       3.391   7.505  16.655  0.00  0.00    +0.000 OA
ATOM     12  N   UNL     1       5.089   6.283  17.587  0.00  0.00    +0.000 N 
ATOM     13  C   UNL     1       6.051   6.728  16.574  0.00  0.00    +0.000 C 
ATOM     14  C   UNL     1       7.080   5.623  16.266  0.00  0.00    +0.000 C 
ATOM     15  O   UNL     1       7.689   5.107  17.462  0.00  0.00    +0.000 OA
ATOM     16  C   UNL     1       6.684   4.607  18.358  0.00  0.00    +0.000 C 
ATOM     17  C   UNL     1       5.744   5.736  18.784  0.00  0.00    +0.000 C 
ENDBRANCH   5  10
BRANCH   1  20
ATOM     18  O   UNL     1       0.682   8.938  17.909  0.00  0.00    +0.000 OA
ATOM     19  C   UNL     1       1.375   9.258  18.871  0.00  0.00    +0.000 C 
ATOM     20  N   UNL     1       2.138   8.378  19.630  0.00  0.00    +0.000 N 
ATOM     21  H   UNL     1       2.973   8.741  20.073  0.00  0.00    +0.000 HD
BRANCH  19  22
ATOM     22  C   UNL     1       1.567  10.717  19.131  0.00  0.00    +0.000 A 
ATOM     23  C   UNL     1       2.276  11.443  18.149  0.00  0.00    +0.000 A 
ATOM     24  C   UNL     1       2.501  12.814  18.290  0.00  0.00    +0.000 A 
ATOM     25  C   UNL     1       2.000  13.482  19.401  0.00  0.00    +0.000 A 
ATOM     26  C   UNL     1       1.300  12.775  20.380  0.00  0.00    +0.000 A 
ATOM     27  C   UNL     1       1.089  11.394  20.257  0.00  0.00    +0.000 A 
ATOM     28 CL   UNL     1       0.212  10.630  21.532  0.00  0.00    +0.000 Cl
ENDBRANCH  19  22
ENDBRANCH   1  20
TORSDOF 3
ENDMDL
MODEL 7
REMARK VINA RESULT:      -6.8      6.498      9.479
REMARK  Name = 
REMARK  3 active torsions:
REMARK  status: ('A' for Active; 'I' for Inactive)
REMARK    1  A    between atoms: C_2  and  C_21
REMARK    2  A    between atoms: N_3  and  C_4
REMARK    3  A    between atoms: C_8  and  C_9
REMARK                            x       y       z     vdW  Elec       q    Type
REMARK                         _______ _______ _______ _____ _____    ______ ____
ROOT
ATOM      1  C   UNL     1       0.159  12.813  19.727  0.00  0.00    +0.000 A 
ATOM      2  S   UNL     1       0.944  11.471  19.027  0.00  0.00    +0.000 S 
ATOM      3  C   UNL     1       0.494  10.463  20.313  0.00  0.00    +0.000 A 
ATOM      4  C   UNL     1      -0.196  11.139  21.303  0.00  0.00    +0.000 A 
ATOM      5  C   UNL     1      -0.396  12.542  20.967  0.00  0.00    +0.000 A 
ATOM      6  C   UNL     1      -0.654  10.432  22.552  0.00  0.00    +0.000 C 
ATOM      7  C   UNL     1       0.066   9.084  22.747  0.00  0.00    +0.000 C 
ATOM      8  C   UNL     1       0.115   8.270  21.448  0.00  0.00    +0.000 C 
ATOM      9  C   UNL     1       0.875   9.013  20.341  0.00  0.00    +0.000 C 
ENDROOT
BRANCH   5  10
ATOM     10  C   UNL     1      -1.109  13.508  21.814  0.00  0.00    +0.000 C 
ATOM     11  O   UNL     1      -0.493  14.202  22.619  0.00  0.00    +0.000 OA
ATOM     12  N   UNL     1      -2.494  13.605  21.678  0.00  0.00    +0.000 N 
ATOM     13  C   UNL     1      -3.244  14.530  22.535  0.00  0.00    +0.000 C 
ATOM     14  C   UNL     1      -4.638  13.964  22.871  0.00  0.00    +0.000 C 
ATOM     15  O   UNL     1      -5.350  13.552  21.691  0.00  0.00    +0.000 OA
ATOM     16  C   UNL     1      -4.587  12.579  20.962  0.00  0.00    +0.000 C 
ATOM     17  C   UNL     1      -3.261  13.183  20.498  0.00  0.00    +0.000 C 
ENDBRANCH   5  10
BRANCH   1  20
ATOM     18  O   UNL     1       1.696  15.136  20.142  0.00  0.00    +0.000 OA
ATOM     19  C   UNL     1       0.914  15.048  19.199  0.00  0.00    +0.000 C 
ATOM     20  N   UNL     1       0.084  13.961  18.952  0.00  0.00    +0.000 N 
ATOM     21  H   UNL     1      -0.790  14.135  18.472  0.00  0.00    +0.000 HD
BRANCH  19  22
ATOM     22  C   UNL     1       0.695  16.268  18.365  0.00  0.00    +0.000 A 
ATOM     23  C   UNL     1      -0.612  16.802  18.361  0.00  0.00    +0.000 A 
ATOM     24  C   UNL     1      -0.920  17.947  17.623  0.00  0.00    +0.000 A 
ATOM     25  C   UNL     1       0.078  18.588  16.900  0.00  0.00    +0.000 A 
ATOM     26  C   UNL     1       1.374  18.069  16.894  0.00  0.00    +0.000 A 
ATOM     27  C   UNL     1       1.686  16.907  17.614  0.00  0.00    +0.000 A 
ATOM     28 CL   UNL     1       3.322  16.362  17.527  0.00  0.00    +0.000 Cl
ENDBRANCH  19  22
ENDBRANCH   1  20
TORSDOF 3
ENDMDL
MODEL 8
REMARK VINA RESULT:      -6.7      2.529      6.573
REMARK  Name = 
REMARK  3 active torsions:
REMARK  status: ('A' for Active; 'I' for Inactive)
REMARK    1  A    between atoms: C_2  and  C_21
REMARK    2  A    between atoms: N_3  and  C_4
REMARK    3  A    between atoms: C_8  and  C_9
REMARK                            x       y       z     vdW  Elec       q    Type
REMARK                         _______ _______ _______ _____ _____    ______ ____
ROOT
ATOM      1  C   UNL     1       2.691   7.013  18.382  0.00  0.00    +0.000 A 
ATOM      2  S   UNL     1       2.331   8.605  17.891  0.00  0.00    +0.000 S 
ATOM      3  C   UNL     1       1.526   8.935  19.346  0.00  0.00    +0.000 A 
ATOM      4  C   UNL     1       1.469   7.835  20.183  0.00  0.00    +0.000 A 
ATOM      5  C   UNL     1       2.155   6.682  19.617  0.00  0.00    +0.000 A 
ATOM      6  C   UNL     1       0.763   7.907  21.512  0.00  0.00    +0.000 C 
ATOM      7  C   UNL     1      -0.170   9.128  21.603  0.00  0.00    +0.000 C 
ATOM      8  C   UNL     1       0.509  10.405  21.090  0.00  0.00    +0.000 C 
ATOM      9  C   UNL     1       0.918  10.278  19.617  0.00  0.00    +0.000 C 
ENDROOT
BRANCH   5  10
ATOM     10  C   UNL     1       2.278   5.377  20.280  0.00  0.00    +0.000 C 
ATOM     11  O   UNL     1       2.491   5.313  21.488  0.00  0.00    +0.000 OA
ATOM     12  N   UNL     1       2.153   4.228  19.499  0.00  0.00    +0.000 N 
ATOM     13  C   UNL     1       2.310   2.908  20.120  0.00  0.00    +0.000 C 
ATOM     14  C   UNL     1       2.959   1.911  19.140  0.00  0.00    +0.000 C 
ATOM     15  O   UNL     1       2.280   1.884  17.873  0.00  0.00    +0.000 OA
ATOM     16  C   UNL     1       2.254   3.196  17.292  0.00  0.00    +0.000 C 
ATOM     17  C   UNL     1       1.481   4.160  18.194  0.00  0.00    +0.000 C 
ENDBRANCH   5  10
BRANCH   1  20
ATOM     18  O   UNL     1       5.389   7.648  17.884  0.00  0.00    +0.000 OA
ATOM     19  C   UNL     1       4.871   6.644  17.404  0.00  0.00    +0.000 C 
ATOM     20  N   UNL     1       3.536   6.286  17.558  0.00  0.00    +0.000 N 
ATOM     21  H   UNL     1       3.105   5.746  16.817  0.00  0.00    +0.000 HD
BRANCH  19  22
ATOM     22  C   UNL     1       5.675   5.850  16.427  0.00  0.00    +0.000 A 
ATOM     23  C   UNL     1       5.152   5.744  15.119  0.00  0.00    +0.000 A 
ATOM     24  C   UNL     1       5.832   5.033  14.128  0.00  0.00    +0.000 A 
ATOM     25  C   UNL     1       7.053   4.440  14.422  0.00  0.00    +0.000 A 
ATOM     26  C   UNL     1       7.579   4.534  15.711  0.00  0.00    +0.000 A 
ATOM     27  C   UNL     1       6.892   5.227  16.719  0.00  0.00    +0.000 A 
ATOM     28 CL   UNL     1       7.643   5.273  18.273  0.00  0.00    +0.000 Cl
ENDBRANCH  19  22
ENDBRANCH   1  20
TORSDOF 3
ENDMDL
MODEL 9
REMARK VINA RESULT:      -6.7      6.727      9.756
REMARK  Name = 
REMARK  3 active torsions:
REMARK  status: ('A' for Active; 'I' for Inactive)
REMARK    1  A    between atoms: C_2  and  C_21
REMARK    2  A    between atoms: N_3  and  C_4
REMARK    3  A    between atoms: C_8  and  C_9
REMARK                            x       y       z     vdW  Elec       q    Type
REMARK                         _______ _______ _______ _____ _____    ______ ____
ROOT
ATOM      1  C   UNL     1       0.346  13.224  20.914  0.00  0.00    +0.000 A 
ATOM      2  S   UNL     1       1.187  11.934  20.183  0.00  0.00    +0.000 S 
ATOM      3  C   UNL     1       0.458  10.799  21.210  0.00  0.00    +0.000 A 
ATOM      4  C   UNL     1      -0.375  11.387  22.146  0.00  0.00    +0.000 A 
ATOM      5  C   UNL     1      -0.444  12.832  21.983  0.00  0.00    +0.000 A 
ATOM      6  C   UNL     1      -1.091  10.556  23.178  0.00  0.00    +0.000 C 
ATOM      7  C   UNL     1      -0.482   9.147  23.306  0.00  0.00    +0.000 C 
ATOM      8  C   UNL     1      -0.226   8.509  21.934  0.00  0.00    +0.000 C 
ATOM      9  C   UNL     1       0.761   9.336  21.099  0.00  0.00    +0.000 C 
ENDROOT
BRANCH   5  10
ATOM     10  C   UNL     1      -1.260  13.727  22.816  0.00  0.00    +0.000 C 
ATOM     11  O   UNL     1      -0.744  14.365  23.729  0.00  0.00    +0.000 OA
ATOM     12  N   UNL     1      -2.624  13.820  22.541  0.00  0.00    +0.000 N 
ATOM     13  C   UNL     1      -3.476  14.671  23.376  0.00  0.00    +0.000 C 
ATOM     14  C   UNL     1      -4.888  14.069  23.520  0.00  0.00    +0.000 C 
ATOM     15  O   UNL     1      -5.464  13.738  22.246  0.00  0.00    +0.000 OA
ATOM     16  C   UNL     1      -4.611  12.828  21.534  0.00  0.00    +0.000 C 
ATOM     17  C   UNL     1      -3.254  13.478  21.258  0.00  0.00    +0.000 C 
ENDBRANCH   5  10
BRANCH   1  20
ATOM     18  O   UNL     1      -0.432  13.811  18.271  0.00  0.00    +0.000 OA
ATOM     19  C   UNL     1       0.017  14.681  19.012  0.00  0.00    +0.000 C 
ATOM     20  N   UNL     1       0.470  14.466  20.309  0.00  0.00    +0.000 N 
ATOM     21  H   UNL     1       1.192  15.080  20.663  0.00  0.00    +0.000 HD
BRANCH  19  22
ATOM     22  C   UNL     1       0.275  16.028  18.422  0.00  0.00    +0.000 A 
ATOM     23  C   UNL     1      -0.819  16.921  18.385  0.00  0.00    +0.000 A 
ATOM     24  C   UNL     1      -0.681  18.209  17.864  0.00  0.00    +0.000 A 
ATOM     25  C   UNL     1       0.556  18.631  17.394  0.00  0.00    +0.000 A 
ATOM     26  C   UNL     1       1.645  17.758  17.422  0.00  0.00    +0.000 A 
ATOM     27  C   UNL     1       1.509  16.456  17.924  0.00  0.00    +0.000 A 
ATOM     28 CL   UNL     1       2.926  15.469  17.904  0.00  0.00    +0.000 Cl
ENDBRANCH  19  22
ENDBRANCH   1  20
TORSDOF 3
ENDMDL
