MODEL 1
REMARK VINA RESULT:      -8.1      0.000      0.000
REMARK  Name = 
REMARK  10 active torsions:
REMARK  status: ('A' for Active; 'I' for Inactive)
REMARK    1  A    between atoms: C_1  and  O_2
REMARK    2  A    between atoms: O_2  and  C_3
REMARK    3  A    between atoms: C_3  and  C_5
REMARK    4  A    between atoms: C_5  and  O_6
REMARK    5  A    between atoms: O_6  and  C_7
REMARK    6  A    between atoms: C_10  and  C_11
REMARK    7  A    between atoms: N_18  and  C_19
REMARK    8  A    between atoms: C_22  and  C_23
REMARK    9  A    between atoms: C_29  and  O_30
REMARK   10  A    between atoms: O_30  and  C_31
REMARK                            x       y       z     vdW  Elec       q    Type
REMARK                         _______ _______ _______ _____ _____    ______ ____
ROOT
ATOM      1  C   UNL     1       2.057   7.725  19.903  0.00  0.00    +0.000 C 
ATOM      2  C   UNL     1       1.461   8.880  19.522  0.00  0.00    +0.000 C 
ATOM      3  C   UNL     1       1.377   9.305  18.114  0.00  0.00    +0.000 C 
ATOM      4  O   UNL     1       1.938   8.766  17.175  0.00  0.00    +0.000 OA
ATOM      5  N   UNL     1       0.613  10.420  17.905  0.00  0.00    +0.000 N 
ATOM      6  C   UNL     1       0.049  11.256  18.834  0.00  0.00    +0.000 C 
ATOM      7  S   UNL     1      -0.677  12.634  18.186  0.00  0.00    +0.000 S 
ATOM      8  N   UNL     1       0.199  10.896  20.175  0.00  0.00    +0.000 N 
ATOM      9  C   UNL     1       0.870   9.735  20.598  0.00  0.00    +0.000 C 
ATOM     10  O   UNL     1       0.971   9.390  21.776  0.00  0.00    +0.000 OA
ATOM     11  H   UNL     1       0.559  10.716  16.940  0.00  0.00    +0.000 HD
ENDROOT
BRANCH   8  12
ATOM     12  C   UNL     1      -0.319  11.743  21.220  0.00  0.00    +0.000 A 
ATOM     13  C   UNL     1       0.275  12.985  21.479  0.00  0.00    +0.000 A 
ATOM     14  C   UNL     1      -0.243  13.831  22.466  0.00  0.00    +0.000 A 
ATOM     15  C   UNL     1      -1.356  13.443  23.220  0.00  0.00    +0.000 A 
ATOM     16  C   UNL     1      -1.933  14.345  24.271  0.00  0.00    +0.000 C 
ATOM     17  C   UNL     1      -1.934  12.192  22.981  0.00  0.00    +0.000 A 
ATOM     18  C   UNL     1      -1.420  11.347  21.991  0.00  0.00    +0.000 A 
ENDBRANCH   8  12
BRANCH   1  22
ATOM     19  C   UNL     1       4.019   4.668  17.564  0.00  0.00    +0.000 A 
ATOM     20  C   UNL     1       4.705   5.828  18.008  0.00  0.00    +0.000 A 
ATOM     21  C   UNL     1       4.079   6.839  18.752  0.00  0.00    +0.000 A 
ATOM     22  C   UNL     1       2.731   6.731  19.062  0.00  0.00    +0.000 A 
ATOM     23  C   UNL     1       2.040   5.607  18.609  0.00  0.00    +0.000 A 
ATOM     24  C   UNL     1       2.659   4.560  17.872  0.00  0.00    +0.000 A 
BRANCH  24  25
ATOM     25  O   UNL     1       1.700   3.611  17.659  0.00  0.00    +0.000 OA
ATOM     26  C   UNL     1       1.673   2.358  18.285  0.00  0.00    +0.000 C 
ENDBRANCH  24  25
BRANCH  19  27
ATOM     27  O   UNL     1       4.906   3.821  16.938  0.00  0.00    +0.000 OA
BRANCH  27  28
ATOM     28  C   UNL     1       5.616   4.252  15.796  0.00  0.00    +0.000 C 
BRANCH  28  29
ATOM     29  C   UNL     1       7.076   4.643  15.946  0.00  0.00    +0.000 C 
ATOM     30  O   UNL     1       7.835   4.329  16.841  0.00  0.00    +0.000 OA
BRANCH  29  32
ATOM     31  C   UNL     1       7.118   4.747  13.587  0.00  0.00    +0.000 C 
ATOM     32  O   UNL     1       7.424   5.371  14.826  0.00  0.00    +0.000 OA
ENDBRANCH  29  32
ENDBRANCH  28  29
ENDBRANCH  27  28
ENDBRANCH  19  27
ENDBRANCH   1  22
TORSDOF 7
ENDMDL
MODEL 2
REMARK VINA RESULT:      -8.0      2.620      4.257
REMARK  Name = 
REMARK  10 active torsions:
REMARK  status: ('A' for Active; 'I' for Inactive)
REMARK    1  A    between atoms: C_1  and  O_2
REMARK    2  A    between atoms: O_2  and  C_3
REMARK    3  A    between atoms: C_3  and  C_5
REMARK    4  A    between atoms: C_5  and  O_6
REMARK    5  A    between atoms: O_6  and  C_7
REMARK    6  A    between atoms: C_10  and  C_11
REMARK    7  A    between atoms: N_18  and  C_19
REMARK    8  A    between atoms: C_22  and  C_23
REMARK    9  A    between atoms: C_29  and  O_30
REMARK   10  A    between atoms: O_30  and  C_31
REMARK                            x       y       z     vdW  Elec       q    Type
REMARK                         _______ _______ _______ _____ _____    ______ ____
ROOT
ATOM      1  C   UNL     1       2.706   7.707  18.048  0.00  0.00    +0.000 C 
ATOM      2  C   UNL     1       2.027   8.415  18.981  0.00  0.00    +0.000 C 
ATOM      3  C   UNL     1       1.562   7.822  20.247  0.00  0.00    +0.000 C 
ATOM      4  O   UNL     1       1.603   6.638  20.535  0.00  0.00    +0.000 OA
ATOM      5  N   UNL     1       1.026   8.721  21.129  0.00  0.00    +0.000 N 
ATOM      6  C   UNL     1       0.738  10.047  20.929  0.00  0.00    +0.000 C 
ATOM      7  S   UNL     1      -0.086  10.784  22.202  0.00  0.00    +0.000 S 
ATOM      8  N   UNL     1       1.105  10.590  19.695  0.00  0.00    +0.000 N 
ATOM      9  C   UNL     1       1.754   9.856  18.686  0.00  0.00    +0.000 C 
ATOM     10  O   UNL     1       2.117  10.337  17.611  0.00  0.00    +0.000 OA
ATOM     11  H   UNL     1       0.702   8.315  21.996  0.00  0.00    +0.000 HD
ENDROOT
BRANCH   8  12
ATOM     12  C   UNL     1       0.798  11.961  19.381  0.00  0.00    +0.000 A 
ATOM     13  C   UNL     1      -0.406  12.284  18.739  0.00  0.00    +0.000 A 
ATOM     14  C   UNL     1      -0.731  13.616  18.463  0.00  0.00    +0.000 A 
ATOM     15  C   UNL     1       0.148  14.648  18.811  0.00  0.00    +0.000 A 
ATOM     16  C   UNL     1      -0.194  16.083  18.537  0.00  0.00    +0.000 C 
ATOM     17  C   UNL     1       1.361  14.326  19.428  0.00  0.00    +0.000 A 
ATOM     18  C   UNL     1       1.686  12.994  19.709  0.00  0.00    +0.000 A 
ENDBRANCH   8  12
BRANCH   1  22
ATOM     19  C   UNL     1       3.914   3.559  17.989  0.00  0.00    +0.000 A 
ATOM     20  C   UNL     1       2.592   3.959  17.666  0.00  0.00    +0.000 A 
ATOM     21  C   UNL     1       2.178   5.299  17.697  0.00  0.00    +0.000 A 
ATOM     22  C   UNL     1       3.074   6.288  18.077  0.00  0.00    +0.000 A 
ATOM     23  C   UNL     1       4.370   5.904  18.421  0.00  0.00    +0.000 A 
ATOM     24  C   UNL     1       4.818   4.554  18.375  0.00  0.00    +0.000 A 
BRANCH  24  25
ATOM     25  O   UNL     1       6.141   4.569  18.715  0.00  0.00    +0.000 OA
ATOM     26  C   UNL     1       7.190   4.756  17.805  0.00  0.00    +0.000 C 
ENDBRANCH  24  25
BRANCH  19  27
ATOM     27  O   UNL     1       4.046   2.204  17.785  0.00  0.00    +0.000 OA
BRANCH  27  28
ATOM     28  C   UNL     1       3.791   1.298  18.838  0.00  0.00    +0.000 C 
BRANCH  28  29
ATOM     29  C   UNL     1       3.904   1.791  20.271  0.00  0.00    +0.000 C 
ATOM     30  O   UNL     1       4.921   1.971  20.911  0.00  0.00    +0.000 OA
BRANCH  29  32
ATOM     31  C   UNL     1       2.497   3.311  21.407  0.00  0.00    +0.000 C 
ATOM     32  O   UNL     1       2.627   2.081  20.708  0.00  0.00    +0.000 OA
ENDBRANCH  29  32
ENDBRANCH  28  29
ENDBRANCH  27  28
ENDBRANCH  19  27
ENDBRANCH   1  22
TORSDOF 7
ENDMDL
MODEL 3
REMARK VINA RESULT:      -7.9      0.570      1.104
REMARK  Name = 
REMARK  10 active torsions:
REMARK  status: ('A' for Active; 'I' for Inactive)
REMARK    1  A    between atoms: C_1  and  O_2
REMARK    2  A    between atoms: O_2  and  C_3
REMARK    3  A    between atoms: C_3  and  C_5
REMARK    4  A    between atoms: C_5  and  O_6
REMARK    5  A    between atoms: O_6  and  C_7
REMARK    6  A    between atoms: C_10  and  C_11
REMARK    7  A    between atoms: N_18  and  C_19
REMARK    8  A    between atoms: C_22  and  C_23
REMARK    9  A    between atoms: C_29  and  O_30
REMARK   10  A    between atoms: O_30  and  C_31
REMARK                            x       y       z     vdW  Elec       q    Type
REMARK                         _______ _______ _______ _____ _____    ______ ____
ROOT
ATOM      1  C   UNL     1       1.971   7.906  19.808  0.00  0.00    +0.000 C 
ATOM      2  C   UNL     1       1.333   9.041  19.440  0.00  0.00    +0.000 C 
ATOM      3  C   UNL     1       1.146   9.428  18.031  0.00  0.00    +0.000 C 
ATOM      4  O   UNL     1       1.648   8.872  17.069  0.00  0.00    +0.000 OA
ATOM      5  N   UNL     1       0.352  10.527  17.847  0.00  0.00    +0.000 N 
ATOM      6  C   UNL     1      -0.158  11.380  18.791  0.00  0.00    +0.000 C 
ATOM      7  S   UNL     1      -0.948  12.731  18.161  0.00  0.00    +0.000 S 
ATOM      8  N   UNL     1       0.089  11.058  20.128  0.00  0.00    +0.000 N 
ATOM      9  C   UNL     1       0.805   9.917  20.532  0.00  0.00    +0.000 C 
ATOM     10  O   UNL     1       0.993   9.605  21.709  0.00  0.00    +0.000 OA
ATOM     11  H   UNL     1       0.227  10.797  16.881  0.00  0.00    +0.000 HD
ENDROOT
BRANCH   8  12
ATOM     12  C   UNL     1      -0.368  11.925  21.184  0.00  0.00    +0.000 A 
ATOM     13  C   UNL     1      -1.465  11.554  21.974  0.00  0.00    +0.000 A 
ATOM     14  C   UNL     1      -1.894  12.371  23.025  0.00  0.00    +0.000 A 
ATOM     15  C   UNL     1      -1.242  13.579  23.297  0.00  0.00    +0.000 A 
ATOM     16  C   UNL     1      -1.680  14.458  24.431  0.00  0.00    +0.000 C 
ATOM     17  C   UNL     1      -0.164  13.963  22.493  0.00  0.00    +0.000 A 
ATOM     18  C   UNL     1       0.269  13.145  21.444  0.00  0.00    +0.000 A 
ENDBRANCH   8  12
BRANCH   1  22
ATOM     19  C   UNL     1       3.821   4.816  17.419  0.00  0.00    +0.000 A 
ATOM     20  C   UNL     1       4.495   6.022  17.738  0.00  0.00    +0.000 A 
ATOM     21  C   UNL     1       3.904   7.043  18.496  0.00  0.00    +0.000 A 
ATOM     22  C   UNL     1       2.600   6.898  18.947  0.00  0.00    +0.000 A 
ATOM     23  C   UNL     1       1.917   5.727  18.620  0.00  0.00    +0.000 A 
ATOM     24  C   UNL     1       2.504   4.670  17.871  0.00  0.00    +0.000 A 
BRANCH  24  25
ATOM     25  O   UNL     1       1.571   3.675  17.800  0.00  0.00    +0.000 OA
ATOM     26  C   UNL     1       1.773   2.366  18.257  0.00  0.00    +0.000 C 
ENDBRANCH  24  25
BRANCH  19  27
ATOM     27  O   UNL     1       4.676   3.975  16.745  0.00  0.00    +0.000 OA
BRANCH  27  28
ATOM     28  C   UNL     1       6.039   4.314  16.599  0.00  0.00    +0.000 C 
BRANCH  28  29
ATOM     29  C   UNL     1       6.537   4.776  15.240  0.00  0.00    +0.000 C 
ATOM     30  O   UNL     1       7.584   5.340  14.990  0.00  0.00    +0.000 OA
BRANCH  29  32
ATOM     31  C   UNL     1       6.155   3.698  13.173  0.00  0.00    +0.000 C 
ATOM     32  O   UNL     1       5.610   4.366  14.302  0.00  0.00    +0.000 OA
ENDBRANCH  29  32
ENDBRANCH  28  29
ENDBRANCH  27  28
ENDBRANCH  19  27
ENDBRANCH   1  22
TORSDOF 7
ENDMDL
MODEL 4
REMARK VINA RESULT:      -7.7      2.251      3.893
REMARK  Name = 
REMARK  10 active torsions:
REMARK  status: ('A' for Active; 'I' for Inactive)
REMARK    1  A    between atoms: C_1  and  O_2
REMARK    2  A    between atoms: O_2  and  C_3
REMARK    3  A    between atoms: C_3  and  C_5
REMARK    4  A    between atoms: C_5  and  O_6
REMARK    5  A    between atoms: O_6  and  C_7
REMARK    6  A    between atoms: C_10  and  C_11
REMARK    7  A    between atoms: N_18  and  C_19
REMARK    8  A    between atoms: C_22  and  C_23
REMARK    9  A    between atoms: C_29  and  O_30
REMARK   10  A    between atoms: O_30  and  C_31
REMARK                            x       y       z     vdW  Elec       q    Type
REMARK                         _______ _______ _______ _____ _____    ______ ____
ROOT
ATOM      1  C   UNL     1       2.242   8.122  18.393  0.00  0.00    +0.000 C 
ATOM      2  C   UNL     1       1.571   8.603  19.466  0.00  0.00    +0.000 C 
ATOM      3  C   UNL     1       1.310   7.795  20.669  0.00  0.00    +0.000 C 
ATOM      4  O   UNL     1       1.529   6.601  20.785  0.00  0.00    +0.000 OA
ATOM      5  N   UNL     1       0.751   8.491  21.707  0.00  0.00    +0.000 N 
ATOM      6  C   UNL     1       0.279   9.777  21.717  0.00  0.00    +0.000 C 
ATOM      7  S   UNL     1      -0.507  10.224  23.141  0.00  0.00    +0.000 S 
ATOM      8  N   UNL     1       0.453  10.519  20.545  0.00  0.00    +0.000 N 
ATOM      9  C   UNL     1       1.090  10.018  19.397  0.00  0.00    +0.000 C 
ATOM     10  O   UNL     1       1.283  10.678  18.374  0.00  0.00    +0.000 OA
ATOM     11  H   UNL     1       0.567   7.936  22.532  0.00  0.00    +0.000 HD
ENDROOT
BRANCH   8  12
ATOM     12  C   UNL     1      -0.056  11.863  20.451  0.00  0.00    +0.000 A 
ATOM     13  C   UNL     1      -1.383  12.088  20.060  0.00  0.00    +0.000 A 
ATOM     14  C   UNL     1      -1.898  13.387  20.001  0.00  0.00    +0.000 A 
ATOM     15  C   UNL     1      -1.092  14.486  20.318  0.00  0.00    +0.000 A 
ATOM     16  C   UNL     1      -1.634  15.884  20.275  0.00  0.00    +0.000 C 
ATOM     17  C   UNL     1       0.241  14.265  20.682  0.00  0.00    +0.000 A 
ATOM     18  C   UNL     1       0.756  12.966  20.746  0.00  0.00    +0.000 A 
ENDBRANCH   8  12
BRANCH   1  22
ATOM     19  C   UNL     1       3.940   4.218  17.649  0.00  0.00    +0.000 A 
ATOM     20  C   UNL     1       2.540   4.441  17.635  0.00  0.00    +0.000 A 
ATOM     21  C   UNL     1       1.970   5.698  17.893  0.00  0.00    +0.000 A 
ATOM     22  C   UNL     1       2.789   6.775  18.194  0.00  0.00    +0.000 A 
ATOM     23  C   UNL     1       4.168   6.563  18.235  0.00  0.00    +0.000 A 
ATOM     24  C   UNL     1       4.768   5.304  17.956  0.00  0.00    +0.000 A 
BRANCH  24  25
ATOM     25  O   UNL     1       6.119   5.489  18.030  0.00  0.00    +0.000 OA
ATOM     26  C   UNL     1       7.058   4.780  17.270  0.00  0.00    +0.000 C 
ENDBRANCH  24  25
BRANCH  19  27
ATOM     27  O   UNL     1       4.202   2.919  17.277  0.00  0.00    +0.000 OA
BRANCH  27  28
ATOM     28  C   UNL     1       3.745   1.846  18.073  0.00  0.00    +0.000 C 
BRANCH  28  29
ATOM     29  C   UNL     1       3.885   1.943  19.582  0.00  0.00    +0.000 C 
ATOM     30  O   UNL     1       4.915   1.971  20.227  0.00  0.00    +0.000 OA
BRANCH  29  32
ATOM     31  C   UNL     1       2.499   3.010  21.171  0.00  0.00    +0.000 C 
ATOM     32  O   UNL     1       2.615   2.076  20.105  0.00  0.00    +0.000 OA
ENDBRANCH  29  32
ENDBRANCH  28  29
ENDBRANCH  27  28
ENDBRANCH  19  27
ENDBRANCH   1  22
TORSDOF 7
ENDMDL
MODEL 5
REMARK VINA RESULT:      -7.7      1.079      1.690
REMARK  Name = 
REMARK  10 active torsions:
REMARK  status: ('A' for Active; 'I' for Inactive)
REMARK    1  A    between atoms: C_1  and  O_2
REMARK    2  A    between atoms: O_2  and  C_3
REMARK    3  A    between atoms: C_3  and  C_5
REMARK    4  A    between atoms: C_5  and  O_6
REMARK    5  A    between atoms: O_6  and  C_7
REMARK    6  A    between atoms: C_10  and  C_11
REMARK    7  A    between atoms: N_18  and  C_19
REMARK    8  A    between atoms: C_22  and  C_23
REMARK    9  A    between atoms: C_29  and  O_30
REMARK   10  A    between atoms: O_30  and  C_31
REMARK                            x       y       z     vdW  Elec       q    Type
REMARK                         _______ _______ _______ _____ _____    ______ ____
ROOT
ATOM      1  C   UNL     1       1.862   7.985  20.350  0.00  0.00    +0.000 C 
ATOM      2  C   UNL     1       1.199   9.074  19.895  0.00  0.00    +0.000 C 
ATOM      3  C   UNL     1       0.960   9.319  18.463  0.00  0.00    +0.000 C 
ATOM      4  O   UNL     1       1.435   8.676  17.542  0.00  0.00    +0.000 OA
ATOM      5  N   UNL     1       0.147  10.389  18.201  0.00  0.00    +0.000 N 
ATOM      6  C   UNL     1      -0.340  11.326  19.074  0.00  0.00    +0.000 C 
ATOM      7  S   UNL     1      -1.166  12.602  18.344  0.00  0.00    +0.000 S 
ATOM      8  N   UNL     1      -0.043  11.138  20.427  0.00  0.00    +0.000 N 
ATOM      9  C   UNL     1       0.699  10.048  20.915  0.00  0.00    +0.000 C 
ATOM     10  O   UNL     1       0.931   9.853  22.109  0.00  0.00    +0.000 OA
ATOM     11  H   UNL     1      -0.013  10.561  17.217  0.00  0.00    +0.000 HD
ENDROOT
BRANCH   8  12
ATOM     12  C   UNL     1      -0.474  12.100  21.408  0.00  0.00    +0.000 A 
ATOM     13  C   UNL     1      -1.585  11.829  22.220  0.00  0.00    +0.000 A 
ATOM     14  C   UNL     1      -1.989  12.741  23.201  0.00  0.00    +0.000 A 
ATOM     15  C   UNL     1      -1.298  13.944  23.380  0.00  0.00    +0.000 A 
ATOM     16  C   UNL     1      -1.709  14.924  24.439  0.00  0.00    +0.000 C 
ATOM     17  C   UNL     1      -0.206  14.228  22.553  0.00  0.00    +0.000 A 
ATOM     18  C   UNL     1       0.202  13.315  21.575  0.00  0.00    +0.000 A 
ENDBRANCH   8  12
BRANCH   1  22
ATOM     19  C   UNL     1       3.739   4.732  18.213  0.00  0.00    +0.000 A 
ATOM     20  C   UNL     1       4.086   6.085  17.972  0.00  0.00    +0.000 A 
ATOM     21  C   UNL     1       3.474   7.155  18.643  0.00  0.00    +0.000 A 
ATOM     22  C   UNL     1       2.473   6.903  19.570  0.00  0.00    +0.000 A 
ATOM     23  C   UNL     1       2.106   5.576  19.797  0.00  0.00    +0.000 A 
ATOM     24  C   UNL     1       2.727   4.476  19.145  0.00  0.00    +0.000 A 
BRANCH  24  25
ATOM     25  O   UNL     1       2.158   3.345  19.657  0.00  0.00    +0.000 OA
ATOM     26  C   UNL     1       2.406   2.847  20.943  0.00  0.00    +0.000 C 
ENDBRANCH  24  25
BRANCH  19  27
ATOM     27  O   UNL     1       4.562   3.908  17.478  0.00  0.00    +0.000 OA
BRANCH  27  28
ATOM     28  C   UNL     1       5.466   4.458  16.543  0.00  0.00    +0.000 C 
BRANCH  28  29
ATOM     29  C   UNL     1       6.951   4.444  16.866  0.00  0.00    +0.000 C 
ATOM     30  O   UNL     1       7.877   4.538  16.084  0.00  0.00    +0.000 OA
BRANCH  29  32
ATOM     31  C   UNL     1       7.647   5.534  18.842  0.00  0.00    +0.000 C 
ATOM     32  O   UNL     1       7.072   4.383  18.239  0.00  0.00    +0.000 OA
ENDBRANCH  29  32
ENDBRANCH  28  29
ENDBRANCH  27  28
ENDBRANCH  19  27
ENDBRANCH   1  22
TORSDOF 7
ENDMDL
MODEL 6
REMARK VINA RESULT:      -7.6      2.784      3.863
REMARK  Name = 
REMARK  10 active torsions:
REMARK  status: ('A' for Active; 'I' for Inactive)
REMARK    1  A    between atoms: C_1  and  O_2
REMARK    2  A    between atoms: O_2  and  C_3
REMARK    3  A    between atoms: C_3  and  C_5
REMARK    4  A    between atoms: C_5  and  O_6
REMARK    5  A    between atoms: O_6  and  C_7
REMARK    6  A    between atoms: C_10  and  C_11
REMARK    7  A    between atoms: N_18  and  C_19
REMARK    8  A    between atoms: C_22  and  C_23
REMARK    9  A    between atoms: C_29  and  O_30
REMARK   10  A    between atoms: O_30  and  C_31
REMARK                            x       y       z     vdW  Elec       q    Type
REMARK                         _______ _______ _______ _____ _____    ______ ____
ROOT
ATOM      1  C   UNL     1       2.683   7.715  17.899  0.00  0.00    +0.000 C 
ATOM      2  C   UNL     1       2.037   8.369  18.893  0.00  0.00    +0.000 C 
ATOM      3  C   UNL     1       1.651   7.717  20.156  0.00  0.00    +0.000 C 
ATOM      4  O   UNL     1       1.730   6.524  20.392  0.00  0.00    +0.000 OA
ATOM      5  N   UNL     1       1.142   8.569  21.099  0.00  0.00    +0.000 N 
ATOM      6  C   UNL     1       0.817   9.894  20.967  0.00  0.00    +0.000 C 
ATOM      7  S   UNL     1       0.044  10.562  22.309  0.00  0.00    +0.000 S 
ATOM      8  N   UNL     1       1.109  10.493  19.739  0.00  0.00    +0.000 N 
ATOM      9  C   UNL     1       1.721   9.815  18.670  0.00  0.00    +0.000 C 
ATOM     10  O   UNL     1       2.018  10.346  17.599  0.00  0.00    +0.000 OA
ATOM     11  H   UNL     1       0.871   8.121  21.964  0.00  0.00    +0.000 HD
ENDROOT
BRANCH   8  12
ATOM     12  C   UNL     1       0.758  11.869  19.497  0.00  0.00    +0.000 A 
ATOM     13  C   UNL     1       1.646  12.895  19.848  0.00  0.00    +0.000 A 
ATOM     14  C   UNL     1       1.331  14.232  19.583  0.00  0.00    +0.000 A 
ATOM     15  C   UNL     1       0.116  14.568  18.976  0.00  0.00    +0.000 A 
ATOM     16  C   UNL     1      -0.230  15.996  18.671  0.00  0.00    +0.000 C 
ATOM     17  C   UNL     1      -0.783  13.547  18.650  0.00  0.00    +0.000 A 
ATOM     18  C   UNL     1      -0.467  12.209  18.909  0.00  0.00    +0.000 A 
ENDBRANCH   8  12
BRANCH   1  22
ATOM     19  C   UNL     1       3.762   3.531  17.923  0.00  0.00    +0.000 A 
ATOM     20  C   UNL     1       4.735   4.556  18.027  0.00  0.00    +0.000 A 
ATOM     21  C   UNL     1       4.405   5.919  18.002  0.00  0.00    +0.000 A 
ATOM     22  C   UNL     1       3.081   6.304  17.851  0.00  0.00    +0.000 A 
ATOM     23  C   UNL     1       2.116   5.304  17.723  0.00  0.00    +0.000 A 
ATOM     24  C   UNL     1       2.426   3.917  17.767  0.00  0.00    +0.000 A 
BRANCH  24  25
ATOM     25  O   UNL     1       1.239   3.248  17.673  0.00  0.00    +0.000 OA
ATOM     26  C   UNL     1       0.525   2.743  18.768  0.00  0.00    +0.000 C 
ENDBRANCH  24  25
BRANCH  19  27
ATOM     27  O   UNL     1       4.369   2.303  18.064  0.00  0.00    +0.000 OA
BRANCH  27  28
ATOM     28  C   UNL     1       4.048   1.473  19.161  0.00  0.00    +0.000 C 
BRANCH  28  29
ATOM     29  C   UNL     1       4.399   1.944  20.562  0.00  0.00    +0.000 C 
ATOM     30  O   UNL     1       5.343   1.594  21.243  0.00  0.00    +0.000 OA
BRANCH  29  32
ATOM     31  C   UNL     1       2.423   2.477  21.741  0.00  0.00    +0.000 C 
ATOM     32  O   UNL     1       3.486   2.919  20.908  0.00  0.00    +0.000 OA
ENDBRANCH  29  32
ENDBRANCH  28  29
ENDBRANCH  27  28
ENDBRANCH  19  27
ENDBRANCH   1  22
TORSDOF 7
ENDMDL
MODEL 7
REMARK VINA RESULT:      -7.6      1.576      2.226
REMARK  Name = 
REMARK  10 active torsions:
REMARK  status: ('A' for Active; 'I' for Inactive)
REMARK    1  A    between atoms: C_1  and  O_2
REMARK    2  A    between atoms: O_2  and  C_3
REMARK    3  A    between atoms: C_3  and  C_5
REMARK    4  A    between atoms: C_5  and  O_6
REMARK    5  A    between atoms: O_6  and  C_7
REMARK    6  A    between atoms: C_10  and  C_11
REMARK    7  A    between atoms: N_18  and  C_19
REMARK    8  A    between atoms: C_22  and  C_23
REMARK    9  A    between atoms: C_29  and  O_30
REMARK   10  A    between atoms: O_30  and  C_31
REMARK                            x       y       z     vdW  Elec       q    Type
REMARK                         _______ _______ _______ _____ _____    ______ ____
ROOT
ATOM      1  C   UNL     1       2.143   6.782  19.693  0.00  0.00    +0.000 C 
ATOM      2  C   UNL     1       1.851   8.072  19.404  0.00  0.00    +0.000 C 
ATOM      3  C   UNL     1       2.438   8.784  18.256  0.00  0.00    +0.000 C 
ATOM      4  O   UNL     1       3.332   8.363  17.541  0.00  0.00    +0.000 OA
ATOM      5  N   UNL     1       1.915  10.029  18.036  0.00  0.00    +0.000 N 
ATOM      6  C   UNL     1       1.042  10.740  18.817  0.00  0.00    +0.000 C 
ATOM      7  S   UNL     1       0.767  12.321  18.300  0.00  0.00    +0.000 S 
ATOM      8  N   UNL     1       0.547  10.093  19.953  0.00  0.00    +0.000 N 
ATOM      9  C   UNL     1       0.887   8.776  20.306  0.00  0.00    +0.000 C 
ATOM     10  O   UNL     1       0.424   8.185  21.284  0.00  0.00    +0.000 OA
ATOM     11  H   UNL     1       2.322  10.521  17.251  0.00  0.00    +0.000 HD
ENDROOT
BRANCH   8  12
ATOM     12  C   UNL     1      -0.339  10.782  20.856  0.00  0.00    +0.000 A 
ATOM     13  C   UNL     1      -1.412  11.533  20.355  0.00  0.00    +0.000 A 
ATOM     14  C   UNL     1      -2.299  12.175  21.225  0.00  0.00    +0.000 A 
ATOM     15  C   UNL     1      -2.122  12.090  22.610  0.00  0.00    +0.000 A 
ATOM     16  C   UNL     1      -3.075  12.760  23.556  0.00  0.00    +0.000 C 
ATOM     17  C   UNL     1      -1.037  11.364  23.111  0.00  0.00    +0.000 A 
ATOM     18  C   UNL     1      -0.151  10.717  22.243  0.00  0.00    +0.000 A 
ENDBRANCH   8  12
BRANCH   1  22
ATOM     19  C   UNL     1       4.976   4.286  17.592  0.00  0.00    +0.000 A 
ATOM     20  C   UNL     1       3.640   4.442  17.145  0.00  0.00    +0.000 A 
ATOM     21  C   UNL     1       2.701   5.233  17.825  0.00  0.00    +0.000 A 
ATOM     22  C   UNL     1       3.068   5.883  18.994  0.00  0.00    +0.000 A 
ATOM     23  C   UNL     1       4.374   5.718  19.457  0.00  0.00    +0.000 A 
ATOM     24  C   UNL     1       5.347   4.938  18.773  0.00  0.00    +0.000 A 
BRANCH  24  25
ATOM     25  O   UNL     1       6.509   5.056  19.479  0.00  0.00    +0.000 OA
ATOM     26  C   UNL     1       7.591   5.860  19.096  0.00  0.00    +0.000 C 
ENDBRANCH  24  25
BRANCH  19  27
ATOM     27  O   UNL     1       5.680   3.529  16.682  0.00  0.00    +0.000 OA
BRANCH  27  28
ATOM     28  C   UNL     1       5.735   3.917  15.325  0.00  0.00    +0.000 C 
BRANCH  28  29
ATOM     29  C   UNL     1       6.839   4.859  14.879  0.00  0.00    +0.000 C 
ATOM     30  O   UNL     1       7.440   5.667  15.560  0.00  0.00    +0.000 OA
BRANCH  29  32
ATOM     31  C   UNL     1       6.190   3.689  12.932  0.00  0.00    +0.000 C 
ATOM     32  O   UNL     1       7.106   4.581  13.553  0.00  0.00    +0.000 OA
ENDBRANCH  29  32
ENDBRANCH  28  29
ENDBRANCH  27  28
ENDBRANCH  19  27
ENDBRANCH   1  22
TORSDOF 7
ENDMDL
MODEL 8
REMARK VINA RESULT:      -7.6      0.874      1.104
REMARK  Name = 
REMARK  10 active torsions:
REMARK  status: ('A' for Active; 'I' for Inactive)
REMARK    1  A    between atoms: C_1  and  O_2
REMARK    2  A    between atoms: O_2  and  C_3
REMARK    3  A    between atoms: C_3  and  C_5
REMARK    4  A    between atoms: C_5  and  O_6
REMARK    5  A    between atoms: O_6  and  C_7
REMARK    6  A    between atoms: C_10  and  C_11
REMARK    7  A    between atoms: N_18  and  C_19
REMARK    8  A    between atoms: C_22  and  C_23
REMARK    9  A    between atoms: C_29  and  O_30
REMARK   10  A    between atoms: O_30  and  C_31
REMARK                            x       y       z     vdW  Elec       q    Type
REMARK                         _______ _______ _______ _____ _____    ______ ____
ROOT
ATOM      1  C   UNL     1       1.932   8.049  20.036  0.00  0.00    +0.000 C 
ATOM      2  C   UNL     1       1.224   9.140  19.662  0.00  0.00    +0.000 C 
ATOM      3  C   UNL     1       0.891   9.430  18.257  0.00  0.00    +0.000 C 
ATOM      4  O   UNL     1       1.319   8.828  17.287  0.00  0.00    +0.000 OA
ATOM      5  N   UNL     1       0.046  10.493  18.084  0.00  0.00    +0.000 N 
ATOM      6  C   UNL     1      -0.401  11.390  19.019  0.00  0.00    +0.000 C 
ATOM      7  S   UNL     1      -1.293  12.675  18.387  0.00  0.00    +0.000 S 
ATOM      8  N   UNL     1      -0.017  11.161  20.343  0.00  0.00    +0.000 N 
ATOM      9  C   UNL     1       0.772  10.069  20.745  0.00  0.00    +0.000 C 
ATOM     10  O   UNL     1       1.082   9.838  21.915  0.00  0.00    +0.000 OA
ATOM     11  H   UNL     1      -0.179  10.696  17.119  0.00  0.00    +0.000 HD
ENDROOT
BRANCH   8  12
ATOM     12  C   UNL     1      -0.402  12.080  21.383  0.00  0.00    +0.000 A 
ATOM     13  C   UNL     1       0.267  13.304  21.524  0.00  0.00    +0.000 A 
ATOM     14  C   UNL     1      -0.123  14.220  22.507  0.00  0.00    +0.000 A 
ATOM     15  C   UNL     1      -1.178  13.922  23.376  0.00  0.00    +0.000 A 
ATOM     16  C   UNL     1      -1.619  14.901  24.425  0.00  0.00    +0.000 C 
ATOM     17  C   UNL     1      -1.829  12.690  23.254  0.00  0.00    +0.000 A 
ATOM     18  C   UNL     1      -1.444  11.775  22.268  0.00  0.00    +0.000 A 
ENDBRANCH   8  12
BRANCH   1  22
ATOM     19  C   UNL     1       3.728   4.909  17.672  0.00  0.00    +0.000 A 
ATOM     20  C   UNL     1       4.026   6.277  17.450  0.00  0.00    +0.000 A 
ATOM     21  C   UNL     1       3.438   7.311  18.195  0.00  0.00    +0.000 A 
ATOM     22  C   UNL     1       2.511   7.007  19.181  0.00  0.00    +0.000 A 
ATOM     23  C   UNL     1       2.192   5.665  19.392  0.00  0.00    +0.000 A 
ATOM     24  C   UNL     1       2.791   4.601  18.664  0.00  0.00    +0.000 A 
BRANCH  24  25
ATOM     25  O   UNL     1       2.286   3.441  19.179  0.00  0.00    +0.000 OA
ATOM     26  C   UNL     1       0.963   3.276  19.610  0.00  0.00    +0.000 C 
ENDBRANCH  24  25
BRANCH  19  27
ATOM     27  O   UNL     1       4.516   4.129  16.855  0.00  0.00    +0.000 OA
BRANCH  27  28
ATOM     28  C   UNL     1       5.920   4.276  16.870  0.00  0.00    +0.000 C 
BRANCH  28  29
ATOM     29  C   UNL     1       6.641   4.547  15.561  0.00  0.00    +0.000 C 
ATOM     30  O   UNL     1       6.540   3.925  14.521  0.00  0.00    +0.000 OA
BRANCH  29  32
ATOM     31  C   UNL     1       7.386   6.219  17.053  0.00  0.00    +0.000 C 
ATOM     32  O   UNL     1       7.389   5.693  15.733  0.00  0.00    +0.000 OA
ENDBRANCH  29  32
ENDBRANCH  28  29
ENDBRANCH  27  28
ENDBRANCH  19  27
ENDBRANCH   1  22
TORSDOF 7
ENDMDL
MODEL 9
REMARK VINA RESULT:      -7.6      3.077     10.288
REMARK  Name = 
REMARK  10 active torsions:
REMARK  status: ('A' for Active; 'I' for Inactive)
REMARK    1  A    between atoms: C_1  and  O_2
REMARK    2  A    between atoms: O_2  and  C_3
REMARK    3  A    between atoms: C_3  and  C_5
REMARK    4  A    between atoms: C_5  and  O_6
REMARK    5  A    between atoms: O_6  and  C_7
REMARK    6  A    between atoms: C_10  and  C_11
REMARK    7  A    between atoms: N_18  and  C_19
REMARK    8  A    between atoms: C_22  and  C_23
REMARK    9  A    between atoms: C_29  and  O_30
REMARK   10  A    between atoms: O_30  and  C_31
REMARK                            x       y       z     vdW  Elec       q    Type
REMARK                         _______ _______ _______ _____ _____    ______ ____
ROOT
ATOM      1  C   UNL     1       1.061  10.097  18.753  0.00  0.00    +0.000 C 
ATOM      2  C   UNL     1       1.479   8.900  19.226  0.00  0.00    +0.000 C 
ATOM      3  C   UNL     1       1.121   8.404  20.566  0.00  0.00    +0.000 C 
ATOM      4  O   UNL     1       0.551   9.046  21.432  0.00  0.00    +0.000 OA
ATOM      5  N   UNL     1       1.508   7.115  20.814  0.00  0.00    +0.000 N 
ATOM      6  C   UNL     1       2.297   6.297  20.047  0.00  0.00    +0.000 C 
ATOM      7  S   UNL     1       2.702   4.831  20.776  0.00  0.00    +0.000 S 
ATOM      8  N   UNL     1       2.705   6.799  18.809  0.00  0.00    +0.000 N 
ATOM      9  C   UNL     1       2.336   8.067  18.325  0.00  0.00    +0.000 C 
ATOM     10  O   UNL     1       2.659   8.501  17.218  0.00  0.00    +0.000 OA
ATOM     11  H   UNL     1       1.268   6.776  21.736  0.00  0.00    +0.000 HD
ENDROOT
BRANCH   8  12
ATOM     12  C   UNL     1       3.575   6.027  17.959  0.00  0.00    +0.000 A 
ATOM     13  C   UNL     1       3.169   4.768  17.495  0.00  0.00    +0.000 A 
ATOM     14  C   UNL     1       3.991   4.026  16.640  0.00  0.00    +0.000 A 
ATOM     15  C   UNL     1       5.238   4.523  16.245  0.00  0.00    +0.000 A 
ATOM     16  C   UNL     1       6.123   3.746  15.315  0.00  0.00    +0.000 C 
ATOM     17  C   UNL     1       5.656   5.767  16.729  0.00  0.00    +0.000 A 
ATOM     18  C   UNL     1       4.833   6.513  17.581  0.00  0.00    +0.000 A 
ENDBRANCH   8  12
BRANCH   1  22
ATOM     19  C   UNL     1      -1.293  12.994  20.929  0.00  0.00    +0.000 A 
ATOM     20  C   UNL     1      -1.886  12.063  20.040  0.00  0.00    +0.000 A 
ATOM     21  C   UNL     1      -1.136  11.127  19.311  0.00  0.00    +0.000 A 
ATOM     22  C   UNL     1       0.246  11.107  19.435  0.00  0.00    +0.000 A 
ATOM     23  C   UNL     1       0.843  12.036  20.288  0.00  0.00    +0.000 A 
ATOM     24  C   UNL     1       0.101  12.978  21.053  0.00  0.00    +0.000 A 
BRANCH  24  25
ATOM     25  O   UNL     1       1.005  13.669  21.807  0.00  0.00    +0.000 OA
ATOM     26  C   UNL     1       0.952  15.049  22.039  0.00  0.00    +0.000 C 
ENDBRANCH  24  25
BRANCH  19  27
ATOM     27  O   UNL     1      -2.279  13.718  21.562  0.00  0.00    +0.000 OA
BRANCH  27  28
ATOM     28  C   UNL     1      -2.582  13.471  22.919  0.00  0.00    +0.000 C 
BRANCH  28  29
ATOM     29  C   UNL     1      -3.691  12.489  23.254  0.00  0.00    +0.000 C 
ATOM     30  O   UNL     1      -3.854  11.887  24.297  0.00  0.00    +0.000 OA
BRANCH  29  32
ATOM     31  C   UNL     1      -5.715  13.253  22.305  0.00  0.00    +0.000 C 
ATOM     32  O   UNL     1      -4.548  12.453  22.173  0.00  0.00    +0.000 OA
ENDBRANCH  29  32
ENDBRANCH  28  29
ENDBRANCH  27  28
ENDBRANCH  19  27
ENDBRANCH   1  22
TORSDOF 7
ENDMDL
