MODEL 1
REMARK VINA RESULT:      -7.3      0.000      0.000
REMARK  Name = 
REMARK  6 active torsions:
REMARK  status: ('A' for Active; 'I' for Inactive)
REMARK    1  A    between atoms: C_1  and  S_2
REMARK    2  A    between atoms: S_2  and  C_3
REMARK    3  A    between atoms: C_6  and  O_7
REMARK    4  A    between atoms: O_7  and  C_8
REMARK    5  A    between atoms: C_11  and  C_12
REMARK    6  A    between atoms: N_13  and  O_14
REMARK                            x       y       z     vdW  Elec       q    Type
REMARK                         _______ _______ _______ _____ _____    ______ ____
ROOT
ATOM      1  C   UNL     1       1.532   9.133  19.244  0.00  0.00    +0.000 A 
ATOM      2  C   UNL     1       1.434   8.294  20.344  0.00  0.00    +0.000 A 
ATOM      3  C   UNL     1       2.065   7.050  20.290  0.00  0.00    +0.000 A 
ATOM      4  C   UNL     1       2.779   6.693  19.144  0.00  0.00    +0.000 A 
ATOM      5  C   UNL     1       2.763   7.574  18.071  0.00  0.00    +0.000 A 
ATOM      6  N   UNL     1       2.151   8.782  18.095  0.00  0.00    +0.000 NA
ENDROOT
BRANCH   4   7
ATOM      7  C   UNL     1       3.535   5.405  19.022  0.00  0.00    +0.000 C 
ATOM      8  N   UNL     1       4.795   5.476  19.366  0.00  0.00    +0.000 NA
ATOM      9  N   UNL     1       2.895   4.216  18.579  0.00  0.00    +0.000 N 
ATOM     10  C   UNL     1       3.437   3.114  17.946  0.00  0.00    +0.000 A 
ATOM     11  C   UNL     1       2.395   2.261  17.681  0.00  0.00    +0.000 A 
ATOM     12  N   UNL     1       1.217   2.787  18.122  0.00  0.00    +0.000 NA
ATOM     13  C   UNL     1       1.543   3.938  18.666  0.00  0.00    +0.000 A 
BRANCH   8  14
ATOM     14  O   UNL     1       5.463   4.257  19.419  0.00  0.00    +0.000 OA
ATOM     15  H   UNL     1       6.394   4.524  19.549  0.00  0.00    +0.000 HD
ENDBRANCH   8  14
ENDBRANCH   4   7
BRANCH   1  16
ATOM     16  O   UNL     1       0.933  10.382  19.354  0.00  0.00    +0.000 OA
BRANCH  16  20
ATOM     17  C   UNL     1      -2.912  11.072  17.858  0.00  0.00    +0.000 A 
ATOM     18  C   UNL     1      -2.404  11.802  18.939  0.00  0.00    +0.000 A 
ATOM     19  C   UNL     1      -1.115  11.546  19.420  0.00  0.00    +0.000 A 
ATOM     20  C   UNL     1      -0.331  10.549  18.836  0.00  0.00    +0.000 A 
ATOM     21  C   UNL     1      -0.828   9.842  17.737  0.00  0.00    +0.000 A 
ATOM     22  C   UNL     1      -2.120  10.087  17.266  0.00  0.00    +0.000 A 
BRANCH  17  24
ATOM     23  C   UNL     1      -5.326  12.068  18.716  0.00  0.00    +0.000 C 
ATOM     24  S   UNL     1      -4.563  11.342  17.241  0.00  0.00    +0.000 S 
ENDBRANCH  17  24
ENDBRANCH  16  20
ENDBRANCH   1  16
TORSDOF 5
ENDMDL
MODEL 2
REMARK VINA RESULT:      -7.1      1.519      2.035
REMARK  Name = 
REMARK  6 active torsions:
REMARK  status: ('A' for Active; 'I' for Inactive)
REMARK    1  A    between atoms: C_1  and  S_2
REMARK    2  A    between atoms: S_2  and  C_3
REMARK    3  A    between atoms: C_6  and  O_7
REMARK    4  A    between atoms: O_7  and  C_8
REMARK    5  A    between atoms: C_11  and  C_12
REMARK    6  A    between atoms: N_13  and  O_14
REMARK                            x       y       z     vdW  Elec       q    Type
REMARK                         _______ _______ _______ _____ _____    ______ ____
ROOT
ATOM      1  C   UNL     1       1.713   8.783  19.087  0.00  0.00    +0.000 A 
ATOM      2  C   UNL     1       2.372   7.972  18.174  0.00  0.00    +0.000 A 
ATOM      3  C   UNL     1       2.617   6.642  18.521  0.00  0.00    +0.000 A 
ATOM      4  C   UNL     1       2.185   6.167  19.761  0.00  0.00    +0.000 A 
ATOM      5  C   UNL     1       1.594   7.073  20.632  0.00  0.00    +0.000 A 
ATOM      6  N   UNL     1       1.353   8.370  20.323  0.00  0.00    +0.000 NA
ENDROOT
BRANCH   4   7
ATOM      7  C   UNL     1       2.351   4.742  20.191  0.00  0.00    +0.000 C 
ATOM      8  N   UNL     1       2.345   4.558  21.486  0.00  0.00    +0.000 NA
ATOM      9  N   UNL     1       2.485   3.697  19.237  0.00  0.00    +0.000 N 
ATOM     10  C   UNL     1       3.109   2.470  19.365  0.00  0.00    +0.000 A 
ATOM     11  C   UNL     1       3.008   1.850  18.144  0.00  0.00    +0.000 A 
ATOM     12  N   UNL     1       2.345   2.641  17.254  0.00  0.00    +0.000 NA
ATOM     13  C   UNL     1       2.031   3.722  17.931  0.00  0.00    +0.000 A 
BRANCH   8  14
ATOM     14  O   UNL     1       2.328   3.227  21.894  0.00  0.00    +0.000 OA
ATOM     15  H   UNL     1       2.175   2.745  21.059  0.00  0.00    +0.000 HD
ENDBRANCH   8  14
ENDBRANCH   4   7
BRANCH   1  16
ATOM     16  O   UNL     1       1.445  10.086  18.687  0.00  0.00    +0.000 OA
BRANCH  16  20
ATOM     17  C   UNL     1      -2.581  11.213  18.544  0.00  0.00    +0.000 A 
ATOM     18  C   UNL     1      -2.034  10.327  17.609  0.00  0.00    +0.000 A 
ATOM     19  C   UNL     1      -0.683   9.972  17.679  0.00  0.00    +0.000 A 
ATOM     20  C   UNL     1       0.135  10.510  18.675  0.00  0.00    +0.000 A 
ATOM     21  C   UNL     1      -0.419  11.369  19.627  0.00  0.00    +0.000 A 
ATOM     22  C   UNL     1      -1.765  11.736  19.548  0.00  0.00    +0.000 A 
BRANCH  17  24
ATOM     23  C   UNL     1      -4.629  11.374  16.718  0.00  0.00    +0.000 C 
ATOM     24  S   UNL     1      -4.289  11.719  18.464  0.00  0.00    +0.000 S 
ENDBRANCH  17  24
ENDBRANCH  16  20
ENDBRANCH   1  16
TORSDOF 5
ENDMDL
MODEL 3
REMARK VINA RESULT:      -7.0      0.256      1.031
REMARK  Name = 
REMARK  6 active torsions:
REMARK  status: ('A' for Active; 'I' for Inactive)
REMARK    1  A    between atoms: C_1  and  S_2
REMARK    2  A    between atoms: S_2  and  C_3
REMARK    3  A    between atoms: C_6  and  O_7
REMARK    4  A    between atoms: O_7  and  C_8
REMARK    5  A    between atoms: C_11  and  C_12
REMARK    6  A    between atoms: N_13  and  O_14
REMARK                            x       y       z     vdW  Elec       q    Type
REMARK                         _______ _______ _______ _____ _____    ______ ____
ROOT
ATOM      1  C   UNL     1       1.497   9.153  19.377  0.00  0.00    +0.000 A 
ATOM      2  C   UNL     1       1.380   8.277  20.446  0.00  0.00    +0.000 A 
ATOM      3  C   UNL     1       2.003   7.031  20.357  0.00  0.00    +0.000 A 
ATOM      4  C   UNL     1       2.729   6.709  19.208  0.00  0.00    +0.000 A 
ATOM      5  C   UNL     1       2.731   7.626  18.166  0.00  0.00    +0.000 A 
ATOM      6  N   UNL     1       2.127   8.837  18.224  0.00  0.00    +0.000 NA
ENDROOT
BRANCH   4   7
ATOM      7  C   UNL     1       3.478   5.421  19.051  0.00  0.00    +0.000 C 
ATOM      8  N   UNL     1       4.747   5.485  19.361  0.00  0.00    +0.000 NA
ATOM      9  N   UNL     1       2.822   4.238  18.614  0.00  0.00    +0.000 N 
ATOM     10  C   UNL     1       3.344   3.141  17.954  0.00  0.00    +0.000 A 
ATOM     11  C   UNL     1       2.292   2.293  17.710  0.00  0.00    +0.000 A 
ATOM     12  N   UNL     1       1.129   2.817  18.190  0.00  0.00    +0.000 NA
ATOM     13  C   UNL     1       1.472   3.961  18.736  0.00  0.00    +0.000 A 
BRANCH   8  14
ATOM     14  O   UNL     1       5.413   4.264  19.382  0.00  0.00    +0.000 OA
ATOM     15  H   UNL     1       6.139   4.401  18.744  0.00  0.00    +0.000 HD
ENDBRANCH   8  14
ENDBRANCH   4   7
BRANCH   1  16
ATOM     16  O   UNL     1       0.904  10.401  19.523  0.00  0.00    +0.000 OA
BRANCH  16  20
ATOM     17  C   UNL     1      -2.801  10.878  17.640  0.00  0.00    +0.000 A 
ATOM     18  C   UNL     1      -1.840   9.983  17.154  0.00  0.00    +0.000 A 
ATOM     19  C   UNL     1      -0.608   9.848  17.802  0.00  0.00    +0.000 A 
ATOM     20  C   UNL     1      -0.320  10.617  18.932  0.00  0.00    +0.000 A 
ATOM     21  C   UNL     1      -1.291  11.486  19.436  0.00  0.00    +0.000 A 
ATOM     22  C   UNL     1      -2.516  11.632  18.779  0.00  0.00    +0.000 A 
BRANCH  17  24
ATOM     23  C   UNL     1      -5.431  11.377  18.261  0.00  0.00    +0.000 C 
ATOM     24  S   UNL     1      -4.367  11.105  16.820  0.00  0.00    +0.000 S 
ENDBRANCH  17  24
ENDBRANCH  16  20
ENDBRANCH   1  16
TORSDOF 5
ENDMDL
MODEL 4
REMARK VINA RESULT:      -6.9      0.812      1.196
REMARK  Name = 
REMARK  6 active torsions:
REMARK  status: ('A' for Active; 'I' for Inactive)
REMARK    1  A    between atoms: C_1  and  S_2
REMARK    2  A    between atoms: S_2  and  C_3
REMARK    3  A    between atoms: C_6  and  O_7
REMARK    4  A    between atoms: O_7  and  C_8
REMARK    5  A    between atoms: C_11  and  C_12
REMARK    6  A    between atoms: N_13  and  O_14
REMARK                            x       y       z     vdW  Elec       q    Type
REMARK                         _______ _______ _______ _____ _____    ______ ____
ROOT
ATOM      1  C   UNL     1       1.761   9.126  18.866  0.00  0.00    +0.000 A 
ATOM      2  C   UNL     1       2.502   8.676  17.783  0.00  0.00    +0.000 A 
ATOM      3  C   UNL     1       3.070   7.403  17.849  0.00  0.00    +0.000 A 
ATOM      4  C   UNL     1       2.869   6.621  18.988  0.00  0.00    +0.000 A 
ATOM      5  C   UNL     1       2.169   7.186  20.046  0.00  0.00    +0.000 A 
ATOM      6  N   UNL     1       1.616   8.422  20.010  0.00  0.00    +0.000 NA
ENDROOT
BRANCH   4   7
ATOM      7  C   UNL     1       3.391   5.223  19.121  0.00  0.00    +0.000 C 
ATOM      8  N   UNL     1       4.691   5.133  19.232  0.00  0.00    +0.000 NA
ATOM      9  N   UNL     1       2.509   4.108  19.138  0.00  0.00    +0.000 N 
ATOM     10  C   UNL     1       2.748   2.798  18.768  0.00  0.00    +0.000 A 
ATOM     11  C   UNL     1       1.561   2.125  18.920  0.00  0.00    +0.000 A 
ATOM     12  N   UNL     1       0.585   2.963  19.371  0.00  0.00    +0.000 NA
ATOM     13  C   UNL     1       1.177   4.128  19.509  0.00  0.00    +0.000 A 
BRANCH   8  14
ATOM     14  O   UNL     1       5.173   3.860  19.525  0.00  0.00    +0.000 OA
ATOM     15  H   UNL     1       6.069   4.040  19.867  0.00  0.00    +0.000 HD
ENDBRANCH   8  14
ENDBRANCH   4   7
BRANCH   1  16
ATOM     16  O   UNL     1       1.171  10.378  18.743  0.00  0.00    +0.000 OA
BRANCH  16  20
ATOM     17  C   UNL     1      -2.947  10.750  18.105  0.00  0.00    +0.000 A 
ATOM     18  C   UNL     1      -2.291  11.476  19.107  0.00  0.00    +0.000 A 
ATOM     19  C   UNL     1      -0.913  11.327  19.300  0.00  0.00    +0.000 A 
ATOM     20  C   UNL     1      -0.183  10.442  18.503  0.00  0.00    +0.000 A 
ATOM     21  C   UNL     1      -0.833   9.742  17.483  0.00  0.00    +0.000 A 
ATOM     22  C   UNL     1      -2.212   9.879  17.301  0.00  0.00    +0.000 A 
BRANCH  17  24
ATOM     23  C   UNL     1      -5.088  12.192  19.049  0.00  0.00    +0.000 C 
ATOM     24  S   UNL     1      -4.707  10.884  17.855  0.00  0.00    +0.000 S 
ENDBRANCH  17  24
ENDBRANCH  16  20
ENDBRANCH   1  16
TORSDOF 5
ENDMDL
MODEL 5
REMARK VINA RESULT:      -6.9      1.567      1.857
REMARK  Name = 
REMARK  6 active torsions:
REMARK  status: ('A' for Active; 'I' for Inactive)
REMARK    1  A    between atoms: C_1  and  S_2
REMARK    2  A    between atoms: S_2  and  C_3
REMARK    3  A    between atoms: C_6  and  O_7
REMARK    4  A    between atoms: O_7  and  C_8
REMARK    5  A    between atoms: C_11  and  C_12
REMARK    6  A    between atoms: N_13  and  O_14
REMARK                            x       y       z     vdW  Elec       q    Type
REMARK                         _______ _______ _______ _____ _____    ______ ____
ROOT
ATOM      1  C   UNL     1       1.539   8.698  19.680  0.00  0.00    +0.000 A 
ATOM      2  C   UNL     1       2.281   8.025  18.720  0.00  0.00    +0.000 A 
ATOM      3  C   UNL     1       2.573   6.676  18.929  0.00  0.00    +0.000 A 
ATOM      4  C   UNL     1       2.104   6.045  20.084  0.00  0.00    +0.000 A 
ATOM      5  C   UNL     1       1.428   6.821  21.016  0.00  0.00    +0.000 A 
ATOM      6  N   UNL     1       1.140   8.133  20.841  0.00  0.00    +0.000 NA
ENDROOT
BRANCH   4   7
ATOM      7  C   UNL     1       2.318   4.588  20.361  0.00  0.00    +0.000 C 
ATOM      8  N   UNL     1       2.374   4.276  21.630  0.00  0.00    +0.000 NA
ATOM      9  N   UNL     1       2.430   3.647  19.302  0.00  0.00    +0.000 N 
ATOM     10  C   UNL     1       3.084   2.430  19.279  0.00  0.00    +0.000 A 
ATOM     11  C   UNL     1       2.941   1.932  18.008  0.00  0.00    +0.000 A 
ATOM     12  N   UNL     1       2.223   2.791  17.231  0.00  0.00    +0.000 NA
ATOM     13  C   UNL     1       1.918   3.792  18.025  0.00  0.00    +0.000 A 
BRANCH   8  14
ATOM     14  O   UNL     1       2.402   2.912  21.903  0.00  0.00    +0.000 OA
ATOM     15  H   UNL     1       1.455   2.677  21.939  0.00  0.00    +0.000 HD
ENDBRANCH   8  14
ENDBRANCH   4   7
BRANCH   1  16
ATOM     16  O   UNL     1       1.228  10.026  19.413  0.00  0.00    +0.000 OA
BRANCH  16  20
ATOM     17  C   UNL     1      -2.630  11.106  18.210  0.00  0.00    +0.000 A 
ATOM     18  C   UNL     1      -2.037  11.657  19.351  0.00  0.00    +0.000 A 
ATOM     19  C   UNL     1      -0.746  11.273  19.732  0.00  0.00    +0.000 A 
ATOM     20  C   UNL     1      -0.045  10.325  18.983  0.00  0.00    +0.000 A 
ATOM     21  C   UNL     1      -0.625   9.799  17.826  0.00  0.00    +0.000 A 
ATOM     22  C   UNL     1      -1.920  10.171  17.455  0.00  0.00    +0.000 A 
BRANCH  17  24
ATOM     23  C   UNL     1      -4.215  11.077  15.965  0.00  0.00    +0.000 C 
ATOM     24  S   UNL     1      -4.286  11.541  17.715  0.00  0.00    +0.000 S 
ENDBRANCH  17  24
ENDBRANCH  16  20
ENDBRANCH   1  16
TORSDOF 5
ENDMDL
MODEL 6
REMARK VINA RESULT:      -6.9      1.110      1.152
REMARK  Name = 
REMARK  6 active torsions:
REMARK  status: ('A' for Active; 'I' for Inactive)
REMARK    1  A    between atoms: C_1  and  S_2
REMARK    2  A    between atoms: S_2  and  C_3
REMARK    3  A    between atoms: C_6  and  O_7
REMARK    4  A    between atoms: O_7  and  C_8
REMARK    5  A    between atoms: C_11  and  C_12
REMARK    6  A    between atoms: N_13  and  O_14
REMARK                            x       y       z     vdW  Elec       q    Type
REMARK                         _______ _______ _______ _____ _____    ______ ____
ROOT
ATOM      1  C   UNL     1       1.326   9.532  18.709  0.00  0.00    +0.000 A 
ATOM      2  C   UNL     1       1.178   8.930  19.949  0.00  0.00    +0.000 A 
ATOM      3  C   UNL     1       1.808   7.705  20.174  0.00  0.00    +0.000 A 
ATOM      4  C   UNL     1       2.573   7.131  19.157  0.00  0.00    +0.000 A 
ATOM      5  C   UNL     1       2.606   7.778  17.928  0.00  0.00    +0.000 A 
ATOM      6  N   UNL     1       1.996   8.962  17.682  0.00  0.00    +0.000 NA
ENDROOT
BRANCH   4   7
ATOM      7  C   UNL     1       3.331   5.850  19.329  0.00  0.00    +0.000 C 
ATOM      8  N   UNL     1       4.602   5.923  19.027  0.00  0.00    +0.000 NA
ATOM      9  N   UNL     1       2.690   4.674  19.803  0.00  0.00    +0.000 N 
ATOM     10  C   UNL     1       3.018   3.349  19.584  0.00  0.00    +0.000 A 
ATOM     11  C   UNL     1       2.057   2.598  20.214  0.00  0.00    +0.000 A 
ATOM     12  N   UNL     1       1.137   3.401  20.820  0.00  0.00    +0.000 NA
ATOM     13  C   UNL     1       1.544   4.626  20.576  0.00  0.00    +0.000 A 
BRANCH   8  14
ATOM     14  O   UNL     1       5.350   4.793  19.342  0.00  0.00    +0.000 OA
ATOM     15  H   UNL     1       5.996   4.749  18.611  0.00  0.00    +0.000 HD
ENDBRANCH   8  14
ENDBRANCH   4   7
BRANCH   1  16
ATOM     16  O   UNL     1       0.724  10.773  18.540  0.00  0.00    +0.000 OA
BRANCH  16  20
ATOM     17  C   UNL     1      -3.428  11.108  18.165  0.00  0.00    +0.000 A 
ATOM     18  C   UNL     1      -2.701  11.933  19.030  0.00  0.00    +0.000 A 
ATOM     19  C   UNL     1      -1.313  11.795  19.138  0.00  0.00    +0.000 A 
ATOM     20  C   UNL     1      -0.644  10.822  18.393  0.00  0.00    +0.000 A 
ATOM     21  C   UNL     1      -1.366  10.019  17.506  0.00  0.00    +0.000 A 
ATOM     22  C   UNL     1      -2.754  10.147  17.410  0.00  0.00    +0.000 A 
BRANCH  17  24
ATOM     23  C   UNL     1      -5.490  12.686  19.064  0.00  0.00    +0.000 C 
ATOM     24  S   UNL     1      -5.202  11.228  18.029  0.00  0.00    +0.000 S 
ENDBRANCH  17  24
ENDBRANCH  16  20
ENDBRANCH   1  16
TORSDOF 5
ENDMDL
MODEL 7
REMARK VINA RESULT:      -6.9      1.759      2.734
REMARK  Name = 
REMARK  6 active torsions:
REMARK  status: ('A' for Active; 'I' for Inactive)
REMARK    1  A    between atoms: C_1  and  S_2
REMARK    2  A    between atoms: S_2  and  C_3
REMARK    3  A    between atoms: C_6  and  O_7
REMARK    4  A    between atoms: O_7  and  C_8
REMARK    5  A    between atoms: C_11  and  C_12
REMARK    6  A    between atoms: N_13  and  O_14
REMARK                            x       y       z     vdW  Elec       q    Type
REMARK                         _______ _______ _______ _____ _____    ______ ____
ROOT
ATOM      1  C   UNL     1       1.429   9.234  19.175  0.00  0.00    +0.000 A 
ATOM      2  C   UNL     1       2.015   9.303  17.919  0.00  0.00    +0.000 A 
ATOM      3  C   UNL     1       2.745   8.204  17.464  0.00  0.00    +0.000 A 
ATOM      4  C   UNL     1       2.855   7.072  18.274  0.00  0.00    +0.000 A 
ATOM      5  C   UNL     1       2.289   7.126  19.542  0.00  0.00    +0.000 A 
ATOM      6  N   UNL     1       1.584   8.183  20.009  0.00  0.00    +0.000 NA
ENDROOT
BRANCH   4   7
ATOM      7  C   UNL     1       3.568   5.827  17.844  0.00  0.00    +0.000 C 
ATOM      8  N   UNL     1       2.813   4.761  17.775  0.00  0.00    +0.000 NA
ATOM      9  N   UNL     1       4.953   5.845  17.526  0.00  0.00    +0.000 N 
ATOM     10  C   UNL     1       5.880   4.822  17.592  0.00  0.00    +0.000 A 
ATOM     11  C   UNL     1       7.089   5.363  17.232  0.00  0.00    +0.000 A 
ATOM     12  N   UNL     1       6.957   6.689  16.945  0.00  0.00    +0.000 NA
ATOM     13  C   UNL     1       5.679   6.946  17.110  0.00  0.00    +0.000 A 
BRANCH   8  14
ATOM     14  O   UNL     1       3.421   3.641  17.217  0.00  0.00    +0.000 OA
ATOM     15  H   UNL     1       3.306   2.962  17.909  0.00  0.00    +0.000 HD
ENDBRANCH   8  14
ENDBRANCH   4   7
BRANCH   1  16
ATOM     16  O   UNL     1       0.670  10.328  19.571  0.00  0.00    +0.000 OA
BRANCH  16  20
ATOM     17  C   UNL     1      -3.023  11.152  17.786  0.00  0.00    +0.000 A 
ATOM     18  C   UNL     1      -2.580  11.855  18.913  0.00  0.00    +0.000 A 
ATOM     19  C   UNL     1      -1.342  11.554  19.491  0.00  0.00    +0.000 A 
ATOM     20  C   UNL     1      -0.544  10.540  18.957  0.00  0.00    +0.000 A 
ATOM     21  C   UNL     1      -0.973   9.860  17.813  0.00  0.00    +0.000 A 
ATOM     22  C   UNL     1      -2.216  10.150  17.246  0.00  0.00    +0.000 A 
BRANCH  17  24
ATOM     23  C   UNL     1      -5.695  10.875  18.364  0.00  0.00    +0.000 C 
ATOM     24  S   UNL     1      -4.610  11.480  17.045  0.00  0.00    +0.000 S 
ENDBRANCH  17  24
ENDBRANCH  16  20
ENDBRANCH   1  16
TORSDOF 5
ENDMDL
MODEL 8
REMARK VINA RESULT:      -6.9      3.018      3.775
REMARK  Name = 
REMARK  6 active torsions:
REMARK  status: ('A' for Active; 'I' for Inactive)
REMARK    1  A    between atoms: C_1  and  S_2
REMARK    2  A    between atoms: S_2  and  C_3
REMARK    3  A    between atoms: C_6  and  O_7
REMARK    4  A    between atoms: O_7  and  C_8
REMARK    5  A    between atoms: C_11  and  C_12
REMARK    6  A    between atoms: N_13  and  O_14
REMARK                            x       y       z     vdW  Elec       q    Type
REMARK                         _______ _______ _______ _____ _____    ______ ____
ROOT
ATOM      1  C   UNL     1       1.477   9.069  18.977  0.00  0.00    +0.000 A 
ATOM      2  C   UNL     1       2.152   8.759  17.805  0.00  0.00    +0.000 A 
ATOM      3  C   UNL     1       2.892   7.577  17.756  0.00  0.00    +0.000 A 
ATOM      4  C   UNL     1       2.922   6.741  18.874  0.00  0.00    +0.000 A 
ATOM      5  C   UNL     1       2.269   7.171  20.022  0.00  0.00    +0.000 A 
ATOM      6  N   UNL     1       1.552   8.318  20.097  0.00  0.00    +0.000 NA
ENDROOT
BRANCH   4   7
ATOM      7  C   UNL     1       3.640   5.426  18.891  0.00  0.00    +0.000 C 
ATOM      8  N   UNL     1       4.882   5.487  19.296  0.00  0.00    +0.000 NA
ATOM      9  N   UNL     1       2.984   4.226  18.506  0.00  0.00    +0.000 N 
ATOM     10  C   UNL     1       3.521   3.062  17.988  0.00  0.00    +0.000 A 
ATOM     11  C   UNL     1       2.466   2.222  17.733  0.00  0.00    +0.000 A 
ATOM     12  N   UNL     1       1.286   2.815  18.069  0.00  0.00    +0.000 NA
ATOM     13  C   UNL     1       1.621   3.994  18.541  0.00  0.00    +0.000 A 
BRANCH   8  14
ATOM     14  O   UNL     1       5.506   4.256  19.477  0.00  0.00    +0.000 OA
ATOM     15  H   UNL     1       5.728   3.988  18.565  0.00  0.00    +0.000 HD
ENDBRANCH   8  14
ENDBRANCH   4   7
BRANCH   1  16
ATOM     16  O   UNL     1       0.713  10.229  18.970  0.00  0.00    +0.000 OA
BRANCH  16  20
ATOM     17  C   UNL     1       2.655  13.868  19.665  0.00  0.00    +0.000 A 
ATOM     18  C   UNL     1       1.875  13.254  20.651  0.00  0.00    +0.000 A 
ATOM     19  C   UNL     1       1.233  12.039  20.388  0.00  0.00    +0.000 A 
ATOM     20  C   UNL     1       1.354  11.436  19.134  0.00  0.00    +0.000 A 
ATOM     21  C   UNL     1       2.159  12.034  18.161  0.00  0.00    +0.000 A 
ATOM     22  C   UNL     1       2.787  13.256  18.418  0.00  0.00    +0.000 A 
BRANCH  17  24
ATOM     23  C   UNL     1       3.223  16.198  18.322  0.00  0.00    +0.000 C 
ATOM     24  S   UNL     1       3.456  15.435  19.949  0.00  0.00    +0.000 S 
ENDBRANCH  17  24
ENDBRANCH  16  20
ENDBRANCH   1  16
TORSDOF 5
ENDMDL
MODEL 9
REMARK VINA RESULT:      -6.8      3.581      8.099
REMARK  Name = 
REMARK  6 active torsions:
REMARK  status: ('A' for Active; 'I' for Inactive)
REMARK    1  A    between atoms: C_1  and  S_2
REMARK    2  A    between atoms: S_2  and  C_3
REMARK    3  A    between atoms: C_6  and  O_7
REMARK    4  A    between atoms: O_7  and  C_8
REMARK    5  A    between atoms: C_11  and  C_12
REMARK    6  A    between atoms: N_13  and  O_14
REMARK                            x       y       z     vdW  Elec       q    Type
REMARK                         _______ _______ _______ _____ _____    ______ ____
ROOT
ATOM      1  C   UNL     1       1.413   8.741  19.575  0.00  0.00    +0.000 A 
ATOM      2  C   UNL     1       1.215   9.269  18.307  0.00  0.00    +0.000 A 
ATOM      3  C   UNL     1       0.161  10.165  18.116  0.00  0.00    +0.000 A 
ATOM      4  C   UNL     1      -0.649  10.510  19.200  0.00  0.00    +0.000 A 
ATOM      5  C   UNL     1      -0.412   9.877  20.413  0.00  0.00    +0.000 A 
ATOM      6  N   UNL     1       0.598   8.998  20.621  0.00  0.00    +0.000 NA
ENDROOT
BRANCH   4   7
ATOM      7  C   UNL     1      -1.763  11.507  19.101  0.00  0.00    +0.000 C 
ATOM      8  N   UNL     1      -1.689  12.495  19.955  0.00  0.00    +0.000 NA
ATOM      9  N   UNL     1      -2.792  11.366  18.130  0.00  0.00    +0.000 N 
ATOM     10  C   UNL     1      -4.095  11.826  18.163  0.00  0.00    +0.000 A 
ATOM     11  C   UNL     1      -4.696  11.383  17.011  0.00  0.00    +0.000 A 
ATOM     12  N   UNL     1      -3.820  10.660  16.257  0.00  0.00    +0.000 NA
ATOM     13  C   UNL     1      -2.695  10.679  16.934  0.00  0.00    +0.000 A 
BRANCH   8  14
ATOM     14  O   UNL     1      -2.619  13.513  19.763  0.00  0.00    +0.000 OA
ATOM     15  H   UNL     1      -2.118  14.314  20.008  0.00  0.00    +0.000 HD
ENDBRANCH   8  14
ENDBRANCH   4   7
BRANCH   1  16
ATOM     16  O   UNL     1       2.500   7.891  19.735  0.00  0.00    +0.000 OA
BRANCH  16  20
ATOM     17  C   UNL     1       1.858   3.811  19.072  0.00  0.00    +0.000 A 
ATOM     18  C   UNL     1       1.631   4.395  20.323  0.00  0.00    +0.000 A 
ATOM     19  C   UNL     1       1.859   5.762  20.517  0.00  0.00    +0.000 A 
ATOM     20  C   UNL     1       2.329   6.552  19.465  0.00  0.00    +0.000 A 
ATOM     21  C   UNL     1       2.525   5.975  18.208  0.00  0.00    +0.000 A 
ATOM     22  C   UNL     1       2.313   4.607  18.019  0.00  0.00    +0.000 A 
BRANCH  17  24
ATOM     23  C   UNL     1       3.311   1.586  18.373  0.00  0.00    +0.000 C 
ATOM     24  S   UNL     1       1.616   2.067  18.797  0.00  0.00    +0.000 S 
ENDBRANCH  17  24
ENDBRANCH  16  20
ENDBRANCH   1  16
TORSDOF 5
ENDMDL
