MODEL 1
REMARK VINA RESULT:      -8.4      0.000      0.000
REMARK  Name = 
REMARK  9 active torsions:
REMARK  status: ('A' for Active; 'I' for Inactive)
REMARK    1  A    between atoms: C_1  and  C_2
REMARK    2  A    between atoms: N_7  and  S_8
REMARK    3  A    between atoms: S_8  and  C_11
REMARK    4  A    between atoms: C_16  and  O_17
REMARK    5  A    between atoms: C_19  and  C_20
REMARK    6  A    between atoms: N_22  and  C_23
REMARK    7  A    between atoms: C_23  and  C_24
REMARK    8  A    between atoms: C_24  and  C_25
REMARK    9  A    between atoms: C_25  and  N_26
REMARK                            x       y       z     vdW  Elec       q    Type
REMARK                         _______ _______ _______ _____ _____    ______ ____
ROOT
ATOM      1  C   UNL     1       2.165   7.908  18.852  0.00  0.00    +0.000 A 
ATOM      2  C   UNL     1       1.479   7.129  19.772  0.00  0.00    +0.000 A 
ATOM      3  C   UNL     1       1.965   5.847  20.071  0.00  0.00    +0.000 A 
ATOM      4  C   UNL     1       3.138   5.330  19.509  0.00  0.00    +0.000 A 
ATOM      5  N   UNL     1       3.541   4.097  19.849  0.00  0.00    +0.000 NA
ATOM      6  C   UNL     1       4.687   3.641  19.320  0.00  0.00    +0.000 A 
ATOM      7  C   UNL     1       5.496   4.339  18.455  0.00  0.00    +0.000 A 
ATOM      8  C   UNL     1       5.065   5.615  18.091  0.00  0.00    +0.000 A 
ATOM      9  C   UNL     1       3.850   6.136  18.597  0.00  0.00    +0.000 A 
ATOM     10  C   UNL     1       3.313   7.399  18.246  0.00  0.00    +0.000 A 
ENDROOT
BRANCH   8  11
ATOM     11  C   UNL     1       5.957   6.460  17.265  0.00  0.00    +0.000 C 
ATOM     12  O   UNL     1       5.763   6.549  16.056  0.00  0.00    +0.000 OA
ATOM     13  N   UNL     1       6.968   7.144  17.903  0.00  0.00    +0.000 N 
ATOM     14  H   UNL     1       7.059   7.149  18.910  0.00  0.00    +0.000 HD
BRANCH  13  15
ATOM     15  C   UNL     1       7.825   8.030  17.144  0.00  0.00    +0.000 C 
BRANCH  15  16
ATOM     16  C   UNL     1       7.993   9.381  17.834  0.00  0.00    +0.000 C 
BRANCH  16  17
ATOM     17  C   UNL     1       8.960   9.320  19.024  0.00  0.00    +0.000 C 
BRANCH  17  18
ATOM     18  N   UNL     1       9.760  10.546  19.213  0.00  0.00    +0.000 NA
ATOM     19  C   UNL     1       9.680  11.444  18.058  0.00  0.00    +0.000 C 
ATOM     20  C   UNL     1      10.972  12.243  17.880  0.00  0.00    +0.000 C 
ATOM     21  C   UNL     1      11.088  13.472  18.767  0.00  0.00    +0.000 C 
ATOM     22  C   UNL     1      11.012  13.177  20.259  0.00  0.00    +0.000 C 
ATOM     23  C   UNL     1       9.639  12.670  20.679  0.00  0.00    +0.000 C 
ATOM     24  C   UNL     1       9.439  11.161  20.509  0.00  0.00    +0.000 C 
ENDBRANCH  17  18
ENDBRANCH  16  17
ENDBRANCH  15  16
ENDBRANCH  13  15
ENDBRANCH   8  11
BRANCH   1  25
ATOM     25  S   UNL     1       1.517   9.465  18.279  0.00  0.00    +0.000 S 
ATOM     26  O   UNL     1       0.286   9.187  17.564  0.00  0.00    +0.000 OA
ATOM     27  O   UNL     1       2.606  10.130  17.598  0.00  0.00    +0.000 OA
BRANCH  25  34
ATOM     28  C   UNL     1      -0.533  10.510  21.619  0.00  0.00    +0.000 C 
ATOM     29  C   UNL     1      -0.325  10.121  20.148  0.00  0.00    +0.000 C 
ATOM     30  C   UNL     1      -1.314  10.879  19.250  0.00  0.00    +0.000 C 
ATOM     31  C   UNL     1      -0.980  12.366  19.130  0.00  0.00    +0.000 C 
ATOM     32  C   UNL     1       0.494  12.626  18.823  0.00  0.00    +0.000 C 
ATOM     33  C   UNL     1       1.432  11.817  19.704  0.00  0.00    +0.000 C 
ATOM     34  N   UNL     1       1.099  10.366  19.695  0.00  0.00    +0.000 NA
ENDBRANCH  25  34
ENDBRANCH   1  25
BRANCH   6  35
ATOM     35  O   UNL     1       5.042   2.399  19.727  0.00  0.00    +0.000 OA
ATOM     36  H   UNL     1       5.649   2.146  19.008  0.00  0.00    +0.000 HD
ENDBRANCH   6  35
TORSDOF 8
ENDMDL
MODEL 2
REMARK VINA RESULT:      -8.2      0.258      1.066
REMARK  Name = 
REMARK  9 active torsions:
REMARK  status: ('A' for Active; 'I' for Inactive)
REMARK    1  A    between atoms: C_1  and  C_2
REMARK    2  A    between atoms: N_7  and  S_8
REMARK    3  A    between atoms: S_8  and  C_11
REMARK    4  A    between atoms: C_16  and  O_17
REMARK    5  A    between atoms: C_19  and  C_20
REMARK    6  A    between atoms: N_22  and  C_23
REMARK    7  A    between atoms: C_23  and  C_24
REMARK    8  A    between atoms: C_24  and  C_25
REMARK    9  A    between atoms: C_25  and  N_26
REMARK                            x       y       z     vdW  Elec       q    Type
REMARK                         _______ _______ _______ _____ _____    ______ ____
ROOT
ATOM      1  C   UNL     1       2.188   7.926  18.840  0.00  0.00    +0.000 A 
ATOM      2  C   UNL     1       1.492   7.127  19.735  0.00  0.00    +0.000 A 
ATOM      3  C   UNL     1       1.985   5.846  20.026  0.00  0.00    +0.000 A 
ATOM      4  C   UNL     1       3.173   5.348  19.479  0.00  0.00    +0.000 A 
ATOM      5  N   UNL     1       3.583   4.115  19.810  0.00  0.00    +0.000 NA
ATOM      6  C   UNL     1       4.743   3.677  19.297  0.00  0.00    +0.000 A 
ATOM      7  C   UNL     1       5.561   4.395  18.457  0.00  0.00    +0.000 A 
ATOM      8  C   UNL     1       5.125   5.672  18.103  0.00  0.00    +0.000 A 
ATOM      9  C   UNL     1       3.895   6.174  18.593  0.00  0.00    +0.000 A 
ATOM     10  C   UNL     1       3.352   7.436  18.249  0.00  0.00    +0.000 A 
ENDROOT
BRANCH   8  11
ATOM     11  C   UNL     1       6.023   6.537  17.306  0.00  0.00    +0.000 C 
ATOM     12  O   UNL     1       5.816   6.689  16.106  0.00  0.00    +0.000 OA
ATOM     13  N   UNL     1       7.057   7.168  17.963  0.00  0.00    +0.000 N 
ATOM     14  H   UNL     1       7.162   7.122  18.967  0.00  0.00    +0.000 HD
BRANCH  13  15
ATOM     15  C   UNL     1       7.924   8.072  17.235  0.00  0.00    +0.000 C 
BRANCH  15  16
ATOM     16  C   UNL     1       7.926   9.468  17.850  0.00  0.00    +0.000 C 
BRANCH  16  17
ATOM     17  C   UNL     1       8.999   9.634  18.936  0.00  0.00    +0.000 C 
BRANCH  17  18
ATOM     18  N   UNL     1       9.509  11.012  19.072  0.00  0.00    +0.000 NA
ATOM     19  C   UNL     1      10.162  11.237  20.363  0.00  0.00    +0.000 C 
ATOM     20  C   UNL     1      10.004  12.687  20.825  0.00  0.00    +0.000 C 
ATOM     21  C   UNL     1      10.992  13.664  20.209  0.00  0.00    +0.000 C 
ATOM     22  C   UNL     1      10.942  13.729  18.688  0.00  0.00    +0.000 C 
ATOM     23  C   UNL     1      11.404  12.431  18.037  0.00  0.00    +0.000 C 
ATOM     24  C   UNL     1      10.311  11.369  17.892  0.00  0.00    +0.000 C 
ENDBRANCH  17  18
ENDBRANCH  16  17
ENDBRANCH  15  16
ENDBRANCH  13  15
ENDBRANCH   8  11
BRANCH   1  25
ATOM     25  S   UNL     1       1.535   9.484  18.276  0.00  0.00    +0.000 S 
ATOM     26  O   UNL     1       0.299   9.208  17.570  0.00  0.00    +0.000 OA
ATOM     27  O   UNL     1       2.619  10.151  17.589  0.00  0.00    +0.000 OA
BRANCH  25  34
ATOM     28  C   UNL     1      -0.478  10.511  21.644  0.00  0.00    +0.000 C 
ATOM     29  C   UNL     1      -0.287  10.123  20.170  0.00  0.00    +0.000 C 
ATOM     30  C   UNL     1      -1.296  10.871  19.286  0.00  0.00    +0.000 C 
ATOM     31  C   UNL     1      -0.977  12.362  19.161  0.00  0.00    +0.000 C 
ATOM     32  C   UNL     1       0.491  12.635  18.834  0.00  0.00    +0.000 C 
ATOM     33  C   UNL     1       1.448  11.835  19.702  0.00  0.00    +0.000 C 
ATOM     34  N   UNL     1       1.128  10.381  19.697  0.00  0.00    +0.000 NA
ENDBRANCH  25  34
ENDBRANCH   1  25
BRANCH   6  35
ATOM     35  O   UNL     1       5.102   2.433  19.694  0.00  0.00    +0.000 OA
ATOM     36  H   UNL     1       4.485   1.896  19.163  0.00  0.00    +0.000 HD
ENDBRANCH   6  35
TORSDOF 8
ENDMDL
MODEL 3
REMARK VINA RESULT:      -8.0      1.474      1.944
REMARK  Name = 
REMARK  9 active torsions:
REMARK  status: ('A' for Active; 'I' for Inactive)
REMARK    1  A    between atoms: C_1  and  C_2
REMARK    2  A    between atoms: N_7  and  S_8
REMARK    3  A    between atoms: S_8  and  C_11
REMARK    4  A    between atoms: C_16  and  O_17
REMARK    5  A    between atoms: C_19  and  C_20
REMARK    6  A    between atoms: N_22  and  C_23
REMARK    7  A    between atoms: C_23  and  C_24
REMARK    8  A    between atoms: C_24  and  C_25
REMARK    9  A    between atoms: C_25  and  N_26
REMARK                            x       y       z     vdW  Elec       q    Type
REMARK                         _______ _______ _______ _____ _____    ______ ____
ROOT
ATOM      1  C   UNL     1       1.801   7.247  20.298  0.00  0.00    +0.000 A 
ATOM      2  C   UNL     1       1.270   6.151  20.962  0.00  0.00    +0.000 A 
ATOM      3  C   UNL     1       1.710   4.866  20.610  0.00  0.00    +0.000 A 
ATOM      4  C   UNL     1       2.693   4.640  19.639  0.00  0.00    +0.000 A 
ATOM      5  N   UNL     1       3.065   3.382  19.361  0.00  0.00    +0.000 NA
ATOM      6  C   UNL     1       4.033   3.199  18.450  0.00  0.00    +0.000 A 
ATOM      7  C   UNL     1       4.689   4.201  17.774  0.00  0.00    +0.000 A 
ATOM      8  C   UNL     1       4.288   5.507  18.055  0.00  0.00    +0.000 A 
ATOM      9  C   UNL     1       3.252   5.758  18.987  0.00  0.00    +0.000 A 
ATOM     10  C   UNL     1       2.749   7.046  19.297  0.00  0.00    +0.000 A 
ENDROOT
BRANCH   8  11
ATOM     11  C   UNL     1       5.043   6.629  17.453  0.00  0.00    +0.000 C 
ATOM     12  O   UNL     1       4.440   7.531  16.879  0.00  0.00    +0.000 OA
ATOM     13  N   UNL     1       6.414   6.627  17.589  0.00  0.00    +0.000 N 
ATOM     14  H   UNL     1       6.897   5.938  18.151  0.00  0.00    +0.000 HD
BRANCH  13  15
ATOM     15  C   UNL     1       7.188   7.736  17.071  0.00  0.00    +0.000 C 
BRANCH  15  16
ATOM     16  C   UNL     1       8.035   8.391  18.158  0.00  0.00    +0.000 C 
BRANCH  16  17
ATOM     17  C   UNL     1       8.043   9.923  18.057  0.00  0.00    +0.000 C 
BRANCH  17  18
ATOM     18  N   UNL     1       9.317  10.545  18.469  0.00  0.00    +0.000 NA
ATOM     19  C   UNL     1       9.554  11.823  17.793  0.00  0.00    +0.000 C 
ATOM     20  C   UNL     1      11.049  12.079  17.592  0.00  0.00    +0.000 C 
ATOM     21  C   UNL     1      11.768  12.644  18.807  0.00  0.00    +0.000 C 
ATOM     22  C   UNL     1      11.685  11.764  20.047  0.00  0.00    +0.000 C 
ATOM     23  C   UNL     1      10.266  11.667  20.594  0.00  0.00    +0.000 C 
ATOM     24  C   UNL     1       9.404  10.586  19.936  0.00  0.00    +0.000 C 
ENDBRANCH  17  18
ENDBRANCH  16  17
ENDBRANCH  15  16
ENDBRANCH  13  15
ENDBRANCH   8  11
BRANCH   1  25
ATOM     25  S   UNL     1       1.164   8.891  20.553  0.00  0.00    +0.000 S 
ATOM     26  O   UNL     1       1.967   9.513  21.588  0.00  0.00    +0.000 OA
ATOM     27  O   UNL     1      -0.263   8.746  20.743  0.00  0.00    +0.000 OA
BRANCH  25  34
ATOM     28  C   UNL     1       2.298  11.937  18.127  0.00  0.00    +0.000 C 
ATOM     29  C   UNL     1       1.575  11.250  19.294  0.00  0.00    +0.000 C 
ATOM     30  C   UNL     1       0.190  11.877  19.509  0.00  0.00    +0.000 C 
ATOM     31  C   UNL     1      -0.799  11.515  18.399  0.00  0.00    +0.000 C 
ATOM     32  C   UNL     1      -0.813  10.022  18.074  0.00  0.00    +0.000 C 
ATOM     33  C   UNL     1       0.581   9.438  17.920  0.00  0.00    +0.000 C 
ATOM     34  N   UNL     1       1.455   9.755  19.083  0.00  0.00    +0.000 NA
ENDBRANCH  25  34
ENDBRANCH   1  25
BRANCH   6  35
ATOM     35  O   UNL     1       4.372   1.905  18.240  0.00  0.00    +0.000 OA
ATOM     36  H   UNL     1       5.309   2.007  17.991  0.00  0.00    +0.000 HD
ENDBRANCH   6  35
TORSDOF 8
ENDMDL
MODEL 4
REMARK VINA RESULT:      -7.8      4.376      8.569
REMARK  Name = 
REMARK  9 active torsions:
REMARK  status: ('A' for Active; 'I' for Inactive)
REMARK    1  A    between atoms: C_1  and  C_2
REMARK    2  A    between atoms: N_7  and  S_8
REMARK    3  A    between atoms: S_8  and  C_11
REMARK    4  A    between atoms: C_16  and  O_17
REMARK    5  A    between atoms: C_19  and  C_20
REMARK    6  A    between atoms: N_22  and  C_23
REMARK    7  A    between atoms: C_23  and  C_24
REMARK    8  A    between atoms: C_24  and  C_25
REMARK    9  A    between atoms: C_25  and  N_26
REMARK                            x       y       z     vdW  Elec       q    Type
REMARK                         _______ _______ _______ _____ _____    ______ ____
ROOT
ATOM      1  C   UNL     1       0.839  13.850  20.686  0.00  0.00    +0.000 A 
ATOM      2  C   UNL     1      -0.358  14.545  20.778  0.00  0.00    +0.000 A 
ATOM      3  C   UNL     1      -1.511  13.988  20.205  0.00  0.00    +0.000 A 
ATOM      4  C   UNL     1      -1.518  12.738  19.575  0.00  0.00    +0.000 A 
ATOM      5  N   UNL     1      -2.662  12.269  19.057  0.00  0.00    +0.000 NA
ATOM      6  C   UNL     1      -2.644  11.054  18.488  0.00  0.00    +0.000 A 
ATOM      7  C   UNL     1      -1.544  10.235  18.396  0.00  0.00    +0.000 A 
ATOM      8  C   UNL     1      -0.352  10.732  18.924  0.00  0.00    +0.000 A 
ATOM      9  C   UNL     1      -0.306  12.020  19.509  0.00  0.00    +0.000 A 
ATOM     10  C   UNL     1       0.868  12.623  20.026  0.00  0.00    +0.000 A 
ENDROOT
BRANCH   8  11
ATOM     11  C   UNL     1       0.833   9.846  18.967  0.00  0.00    +0.000 C 
ATOM     12  O   UNL     1       1.163   9.322  20.026  0.00  0.00    +0.000 OA
ATOM     13  N   UNL     1       1.511   9.621  17.789  0.00  0.00    +0.000 N 
ATOM     14  H   UNL     1       1.175   9.972  16.902  0.00  0.00    +0.000 HD
BRANCH  13  15
ATOM     15  C   UNL     1       2.638   8.712  17.772  0.00  0.00    +0.000 C 
BRANCH  15  16
ATOM     16  C   UNL     1       2.199   7.264  17.966  0.00  0.00    +0.000 C 
BRANCH  16  17
ATOM     17  C   UNL     1       3.322   6.375  18.517  0.00  0.00    +0.000 C 
BRANCH  17  18
ATOM     18  N   UNL     1       2.851   5.103  19.099  0.00  0.00    +0.000 NA
ATOM     19  C   UNL     1       1.988   5.312  20.263  0.00  0.00    +0.000 C 
ATOM     20  C   UNL     1       2.119   4.167  21.269  0.00  0.00    +0.000 C 
ATOM     21  C   UNL     1       1.296   2.932  20.941  0.00  0.00    +0.000 C 
ATOM     22  C   UNL     1       1.619   2.306  19.591  0.00  0.00    +0.000 C 
ATOM     23  C   UNL     1       1.229   3.208  18.426  0.00  0.00    +0.000 C 
ATOM     24  C   UNL     1       2.288   4.247  18.045  0.00  0.00    +0.000 C 
ENDBRANCH  17  18
ENDBRANCH  16  17
ENDBRANCH  15  16
ENDBRANCH  13  15
ENDBRANCH   8  11
BRANCH   1  25
ATOM     25  S   UNL     1       2.379  14.569  21.219  0.00  0.00    +0.000 S 
ATOM     26  O   UNL     1       3.426  13.601  20.953  0.00  0.00    +0.000 OA
ATOM     27  O   UNL     1       2.161  15.034  22.572  0.00  0.00    +0.000 OA
BRANCH  25  34
ATOM     28  C   UNL     1       1.965  17.034  18.026  0.00  0.00    +0.000 C 
ATOM     29  C   UNL     1       2.164  15.709  18.776  0.00  0.00    +0.000 C 
ATOM     30  C   UNL     1       3.129  14.797  18.004  0.00  0.00    +0.000 C 
ATOM     31  C   UNL     1       4.575  15.294  18.053  0.00  0.00    +0.000 C 
ATOM     32  C   UNL     1       5.033  15.666  19.462  0.00  0.00    +0.000 C 
ATOM     33  C   UNL     1       4.023  16.527  20.203  0.00  0.00    +0.000 C 
ATOM     34  N   UNL     1       2.659  15.930  20.190  0.00  0.00    +0.000 NA
ENDBRANCH  25  34
ENDBRANCH   1  25
BRANCH   6  35
ATOM     35  O   UNL     1      -3.841  10.638  18.008  0.00  0.00    +0.000 OA
ATOM     36  H   UNL     1      -3.664   9.686  17.898  0.00  0.00    +0.000 HD
ENDBRANCH   6  35
TORSDOF 8
ENDMDL
MODEL 5
REMARK VINA RESULT:      -7.8      4.520     10.348
REMARK  Name = 
REMARK  9 active torsions:
REMARK  status: ('A' for Active; 'I' for Inactive)
REMARK    1  A    between atoms: C_1  and  C_2
REMARK    2  A    between atoms: N_7  and  S_8
REMARK    3  A    between atoms: S_8  and  C_11
REMARK    4  A    between atoms: C_16  and  O_17
REMARK    5  A    between atoms: C_19  and  C_20
REMARK    6  A    between atoms: N_22  and  C_23
REMARK    7  A    between atoms: C_23  and  C_24
REMARK    8  A    between atoms: C_24  and  C_25
REMARK    9  A    between atoms: C_25  and  N_26
REMARK                            x       y       z     vdW  Elec       q    Type
REMARK                         _______ _______ _______ _____ _____    ______ ____
ROOT
ATOM      1  C   UNL     1       1.665   8.173  19.679  0.00  0.00    +0.000 A 
ATOM      2  C   UNL     1       1.926   7.887  21.011  0.00  0.00    +0.000 A 
ATOM      3  C   UNL     1       1.384   8.719  22.002  0.00  0.00    +0.000 A 
ATOM      4  C   UNL     1       0.556   9.809  21.709  0.00  0.00    +0.000 A 
ATOM      5  N   UNL     1       0.072  10.555  22.712  0.00  0.00    +0.000 NA
ATOM      6  C   UNL     1      -0.746  11.573  22.401  0.00  0.00    +0.000 A 
ATOM      7  C   UNL     1      -1.139  11.917  21.130  0.00  0.00    +0.000 A 
ATOM      8  C   UNL     1      -0.621  11.148  20.088  0.00  0.00    +0.000 A 
ATOM      9  C   UNL     1       0.269  10.080  20.355  0.00  0.00    +0.000 A 
ATOM     10  C   UNL     1       0.879   9.279  19.358  0.00  0.00    +0.000 A 
ENDROOT
BRANCH   8  11
ATOM     11  C   UNL     1      -1.108  11.392  18.712  0.00  0.00    +0.000 C 
ATOM     12  O   UNL     1      -0.760  12.405  18.113  0.00  0.00    +0.000 OA
ATOM     13  N   UNL     1      -1.925  10.441  18.141  0.00  0.00    +0.000 N 
ATOM     14  H   UNL     1      -2.125   9.562  18.598  0.00  0.00    +0.000 HD
BRANCH  13  15
ATOM     15  C   UNL     1      -2.375  10.608  16.775  0.00  0.00    +0.000 C 
BRANCH  15  16
ATOM     16  C   UNL     1      -3.887  10.435  16.653  0.00  0.00    +0.000 C 
BRANCH  16  17
ATOM     17  C   UNL     1      -4.647  11.759  16.811  0.00  0.00    +0.000 C 
BRANCH  17  18
ATOM     18  N   UNL     1      -5.446  11.849  18.049  0.00  0.00    +0.000 NA
ATOM     19  C   UNL     1      -5.889  10.535  18.520  0.00  0.00    +0.000 C 
ATOM     20  C   UNL     1      -7.233  10.626  19.247  0.00  0.00    +0.000 C 
ATOM     21  C   UNL     1      -7.143  11.063  20.700  0.00  0.00    +0.000 C 
ATOM     22  C   UNL     1      -6.494  12.426  20.905  0.00  0.00    +0.000 C 
ATOM     23  C   UNL     1      -5.017  12.425  20.531  0.00  0.00    +0.000 C 
ATOM     24  C   UNL     1      -4.737  12.666  19.045  0.00  0.00    +0.000 C 
ENDBRANCH  17  18
ENDBRANCH  16  17
ENDBRANCH  15  16
ENDBRANCH  13  15
ENDBRANCH   8  11
BRANCH   1  25
ATOM     25  S   UNL     1       2.463   7.282  18.358  0.00  0.00    +0.000 S 
ATOM     26  O   UNL     1       3.344   8.211  17.678  0.00  0.00    +0.000 OA
ATOM     27  O   UNL     1       1.408   6.623  17.620  0.00  0.00    +0.000 OA
BRANCH  25  34
ATOM     28  C   UNL     1       5.818   5.201  19.285  0.00  0.00    +0.000 C 
ATOM     29  C   UNL     1       4.766   5.863  18.385  0.00  0.00    +0.000 C 
ATOM     30  C   UNL     1       4.541   5.023  17.119  0.00  0.00    +0.000 C 
ATOM     31  C   UNL     1       3.793   3.720  17.403  0.00  0.00    +0.000 C 
ATOM     32  C   UNL     1       2.551   3.919  18.271  0.00  0.00    +0.000 C 
ATOM     33  C   UNL     1       2.813   4.796  19.483  0.00  0.00    +0.000 C 
ATOM     34  N   UNL     1       3.458   6.087  19.114  0.00  0.00    +0.000 NA
ENDBRANCH  25  34
ENDBRANCH   1  25
BRANCH   6  35
ATOM     35  O   UNL     1      -1.214  12.265  23.467  0.00  0.00    +0.000 OA
ATOM     36  H   UNL     1      -1.516  13.081  23.027  0.00  0.00    +0.000 HD
ENDBRANCH   6  35
TORSDOF 8
ENDMDL
MODEL 6
REMARK VINA RESULT:      -7.7      5.399      8.932
REMARK  Name = 
REMARK  9 active torsions:
REMARK  status: ('A' for Active; 'I' for Inactive)
REMARK    1  A    between atoms: C_1  and  C_2
REMARK    2  A    between atoms: N_7  and  S_8
REMARK    3  A    between atoms: S_8  and  C_11
REMARK    4  A    between atoms: C_16  and  O_17
REMARK    5  A    between atoms: C_19  and  C_20
REMARK    6  A    between atoms: N_22  and  C_23
REMARK    7  A    between atoms: C_23  and  C_24
REMARK    8  A    between atoms: C_24  and  C_25
REMARK    9  A    between atoms: C_25  and  N_26
REMARK                            x       y       z     vdW  Elec       q    Type
REMARK                         _______ _______ _______ _____ _____    ______ ____
ROOT
ATOM      1  C   UNL     1      -4.269  12.609  20.034  0.00  0.00    +0.000 A 
ATOM      2  C   UNL     1      -5.418  12.769  19.272  0.00  0.00    +0.000 A 
ATOM      3  C   UNL     1      -5.426  12.297  17.950  0.00  0.00    +0.000 A 
ATOM      4  C   UNL     1      -4.336  11.634  17.374  0.00  0.00    +0.000 A 
ATOM      5  N   UNL     1      -4.422  11.206  16.107  0.00  0.00    +0.000 NA
ATOM      6  C   UNL     1      -3.374  10.545  15.592  0.00  0.00    +0.000 A 
ATOM      7  C   UNL     1      -2.209  10.258  16.263  0.00  0.00    +0.000 A 
ATOM      8  C   UNL     1      -2.116  10.718  17.577  0.00  0.00    +0.000 A 
ATOM      9  C   UNL     1      -3.181  11.446  18.161  0.00  0.00    +0.000 A 
ATOM     10  C   UNL     1      -3.155  11.991  19.469  0.00  0.00    +0.000 A 
ENDROOT
BRANCH   8  11
ATOM     11  C   UNL     1      -0.940  10.330  18.387  0.00  0.00    +0.000 C 
ATOM     12  O   UNL     1      -0.949  10.512  19.600  0.00  0.00    +0.000 OA
ATOM     13  N   UNL     1       0.124   9.746  17.735  0.00  0.00    +0.000 N 
ATOM     14  H   UNL     1       0.086   9.505  16.754  0.00  0.00    +0.000 HD
BRANCH  13  15
ATOM     15  C   UNL     1       1.271   9.294  18.496  0.00  0.00    +0.000 C 
BRANCH  15  16
ATOM     16  C   UNL     1       2.350   8.703  17.594  0.00  0.00    +0.000 C 
BRANCH  16  17
ATOM     17  C   UNL     1       3.155   7.594  18.285  0.00  0.00    +0.000 C 
BRANCH  17  18
ATOM     18  N   UNL     1       2.357   6.404  18.640  0.00  0.00    +0.000 NA
ATOM     19  C   UNL     1       2.883   5.181  18.030  0.00  0.00    +0.000 C 
ATOM     20  C   UNL     1       1.766   4.178  17.735  0.00  0.00    +0.000 C 
ATOM     21  C   UNL     1       1.332   3.339  18.927  0.00  0.00    +0.000 C 
ATOM     22  C   UNL     1       0.826   4.151  20.112  0.00  0.00    +0.000 C 
ATOM     23  C   UNL     1       1.929   4.984  20.755  0.00  0.00    +0.000 C 
ATOM     24  C   UNL     1       2.163   6.346  20.096  0.00  0.00    +0.000 C 
ENDBRANCH  17  18
ENDBRANCH  16  17
ENDBRANCH  15  16
ENDBRANCH  13  15
ENDBRANCH   8  11
BRANCH   1  25
ATOM     25  S   UNL     1      -4.111  13.342  21.649  0.00  0.00    +0.000 S 
ATOM     26  O   UNL     1      -3.949  12.262  22.603  0.00  0.00    +0.000 OA
ATOM     27  O   UNL     1      -5.221  14.259  21.787  0.00  0.00    +0.000 OA
BRANCH  25  34
ATOM     28  C   UNL     1      -0.384  14.502  22.751  0.00  0.00    +0.000 C 
ATOM     29  C   UNL     1      -1.864  14.136  22.930  0.00  0.00    +0.000 C 
ATOM     30  C   UNL     1      -2.507  15.020  24.009  0.00  0.00    +0.000 C 
ATOM     31  C   UNL     1      -2.696  16.467  23.549  0.00  0.00    +0.000 C 
ATOM     32  C   UNL     1      -3.334  16.577  22.165  0.00  0.00    +0.000 C 
ATOM     33  C   UNL     1      -2.696  15.648  21.146  0.00  0.00    +0.000 C 
ATOM     34  N   UNL     1      -2.634  14.241  21.629  0.00  0.00    +0.000 NA
ENDBRANCH  25  34
ENDBRANCH   1  25
BRANCH   6  35
ATOM     35  O   UNL     1      -3.543  10.124  14.316  0.00  0.00    +0.000 OA
ATOM     36  H   UNL     1      -3.652  10.981  13.863  0.00  0.00    +0.000 HD
ENDBRANCH   6  35
TORSDOF 8
ENDMDL
MODEL 7
REMARK VINA RESULT:      -7.7      1.076      1.523
REMARK  Name = 
REMARK  9 active torsions:
REMARK  status: ('A' for Active; 'I' for Inactive)
REMARK    1  A    between atoms: C_1  and  C_2
REMARK    2  A    between atoms: N_7  and  S_8
REMARK    3  A    between atoms: S_8  and  C_11
REMARK    4  A    between atoms: C_16  and  O_17
REMARK    5  A    between atoms: C_19  and  C_20
REMARK    6  A    between atoms: N_22  and  C_23
REMARK    7  A    between atoms: C_23  and  C_24
REMARK    8  A    between atoms: C_24  and  C_25
REMARK    9  A    between atoms: C_25  and  N_26
REMARK                            x       y       z     vdW  Elec       q    Type
REMARK                         _______ _______ _______ _____ _____    ______ ____
ROOT
ATOM      1  C   UNL     1       1.895   7.993  19.656  0.00  0.00    +0.000 A 
ATOM      2  C   UNL     1       1.214   7.197  20.566  0.00  0.00    +0.000 A 
ATOM      3  C   UNL     1       1.566   5.843  20.679  0.00  0.00    +0.000 A 
ATOM      4  C   UNL     1       2.603   5.264  19.939  0.00  0.00    +0.000 A 
ATOM      5  N   UNL     1       2.884   3.964  20.106  0.00  0.00    +0.000 NA
ATOM      6  C   UNL     1       3.905   3.445  19.408  0.00  0.00    +0.000 A 
ATOM      7  C   UNL     1       4.703   4.141  18.530  0.00  0.00    +0.000 A 
ATOM      8  C   UNL     1       4.399   5.490  18.347  0.00  0.00    +0.000 A 
ATOM      9  C   UNL     1       3.314   6.083  19.037  0.00  0.00    +0.000 A 
ATOM     10  C   UNL     1       2.904   7.430  18.876  0.00  0.00    +0.000 A 
ENDROOT
BRANCH   8  11
ATOM     11  C   UNL     1       5.299   6.317  17.513  0.00  0.00    +0.000 C 
ATOM     12  O   UNL     1       4.895   6.775  16.449  0.00  0.00    +0.000 OA
ATOM     13  N   UNL     1       6.569   6.564  17.989  0.00  0.00    +0.000 N 
ATOM     14  H   UNL     1       6.862   6.271  18.911  0.00  0.00    +0.000 HD
BRANCH  13  15
ATOM     15  C   UNL     1       7.463   7.419  17.236  0.00  0.00    +0.000 C 
BRANCH  15  16
ATOM     16  C   UNL     1       8.211   8.391  18.143  0.00  0.00    +0.000 C 
BRANCH  16  17
ATOM     17  C   UNL     1       8.294   9.805  17.552  0.00  0.00    +0.000 C 
BRANCH  17  18
ATOM     18  N   UNL     1       9.285  10.676  18.214  0.00  0.00    +0.000 NA
ATOM     19  C   UNL     1       9.049  12.095  17.938  0.00  0.00    +0.000 C 
ATOM     20  C   UNL     1      10.358  12.887  17.928  0.00  0.00    +0.000 C 
ATOM     21  C   UNL     1      10.870  13.290  19.302  0.00  0.00    +0.000 C 
ATOM     22  C   UNL     1      11.129  12.119  20.241  0.00  0.00    +0.000 C 
ATOM     23  C   UNL     1       9.845  11.396  20.632  0.00  0.00    +0.000 C 
ATOM     24  C   UNL     1       9.392  10.323  19.638  0.00  0.00    +0.000 C 
ENDBRANCH  17  18
ENDBRANCH  16  17
ENDBRANCH  15  16
ENDBRANCH  13  15
ENDBRANCH   8  11
BRANCH   1  25
ATOM     25  S   UNL     1       1.389   9.667  19.318  0.00  0.00    +0.000 S 
ATOM     26  O   UNL     1       1.821   9.988  17.972  0.00  0.00    +0.000 OA
ATOM     27  O   UNL     1       1.859  10.463  20.431  0.00  0.00    +0.000 OA
BRANCH  25  34
ATOM     28  C   UNL     1      -2.387   9.987  17.874  0.00  0.00    +0.000 C 
ATOM     29  C   UNL     1      -0.932  10.400  18.138  0.00  0.00    +0.000 C 
ATOM     30  C   UNL     1      -0.837  11.918  18.353  0.00  0.00    +0.000 C 
ATOM     31  C   UNL     1      -1.435  12.362  19.689  0.00  0.00    +0.000 C 
ATOM     32  C   UNL     1      -0.958  11.516  20.869  0.00  0.00    +0.000 C 
ATOM     33  C   UNL     1      -1.024  10.024  20.590  0.00  0.00    +0.000 C 
ATOM     34  N   UNL     1      -0.340   9.658  19.319  0.00  0.00    +0.000 NA
ENDBRANCH  25  34
ENDBRANCH   1  25
BRANCH   6  35
ATOM     35  O   UNL     1       4.143   2.133  19.647  0.00  0.00    +0.000 OA
ATOM     36  H   UNL     1       4.181   1.793  18.734  0.00  0.00    +0.000 HD
ENDBRANCH   6  35
TORSDOF 8
ENDMDL
MODEL 8
REMARK VINA RESULT:      -7.7      1.011      1.753
REMARK  Name = 
REMARK  9 active torsions:
REMARK  status: ('A' for Active; 'I' for Inactive)
REMARK    1  A    between atoms: C_1  and  C_2
REMARK    2  A    between atoms: N_7  and  S_8
REMARK    3  A    between atoms: S_8  and  C_11
REMARK    4  A    between atoms: C_16  and  O_17
REMARK    5  A    between atoms: C_19  and  C_20
REMARK    6  A    between atoms: N_22  and  C_23
REMARK    7  A    between atoms: C_23  and  C_24
REMARK    8  A    between atoms: C_24  and  C_25
REMARK    9  A    between atoms: C_25  and  N_26
REMARK                            x       y       z     vdW  Elec       q    Type
REMARK                         _______ _______ _______ _____ _____    ______ ____
ROOT
ATOM      1  C   UNL     1       1.889   7.993  19.399  0.00  0.00    +0.000 A 
ATOM      2  C   UNL     1       1.208   7.250  20.353  0.00  0.00    +0.000 A 
ATOM      3  C   UNL     1       1.614   5.929  20.599  0.00  0.00    +0.000 A 
ATOM      4  C   UNL     1       2.704   5.336  19.951  0.00  0.00    +0.000 A 
ATOM      5  N   UNL     1       3.034   4.071  20.245  0.00  0.00    +0.000 NA
ATOM      6  C   UNL     1       4.103   3.540  19.632  0.00  0.00    +0.000 A 
ATOM      7  C   UNL     1       4.903   4.192  18.724  0.00  0.00    +0.000 A 
ATOM      8  C   UNL     1       4.548   5.504  18.409  0.00  0.00    +0.000 A 
ATOM      9  C   UNL     1       3.412   6.104  19.004  0.00  0.00    +0.000 A 
ATOM     10  C   UNL     1       2.951   7.411  18.709  0.00  0.00    +0.000 A 
ENDROOT
BRANCH   8  11
ATOM     11  C   UNL     1       5.444   6.295  17.536  0.00  0.00    +0.000 C 
ATOM     12  O   UNL     1       5.112   6.533  16.378  0.00  0.00    +0.000 OA
ATOM     13  N   UNL     1       6.621   6.763  18.077  0.00  0.00    +0.000 N 
ATOM     14  H   UNL     1       6.841   6.652  19.058  0.00  0.00    +0.000 HD
BRANCH  13  15
ATOM     15  C   UNL     1       7.498   7.593  17.279  0.00  0.00    +0.000 C 
BRANCH  15  16
ATOM     16  C   UNL     1       8.338   8.525  18.147  0.00  0.00    +0.000 C 
BRANCH  16  17
ATOM     17  C   UNL     1       8.453   9.938  17.556  0.00  0.00    +0.000 C 
BRANCH  17  18
ATOM     18  N   UNL     1       9.140  10.903  18.436  0.00  0.00    +0.000 NA
ATOM     19  C   UNL     1       9.413  10.347  19.763  0.00  0.00    +0.000 C 
ATOM     20  C   UNL     1       9.389  11.433  20.840  0.00  0.00    +0.000 C 
ATOM     21  C   UNL     1      10.674  12.235  20.965  0.00  0.00    +0.000 C 
ATOM     22  C   UNL     1      11.087  12.958  19.689  0.00  0.00    +0.000 C 
ATOM     23  C   UNL     1      11.479  11.992  18.578  0.00  0.00    +0.000 C 
ATOM     24  C   UNL     1      10.304  11.474  17.743  0.00  0.00    +0.000 C 
ENDBRANCH  17  18
ENDBRANCH  16  17
ENDBRANCH  15  16
ENDBRANCH  13  15
ENDBRANCH   8  11
BRANCH   1  25
ATOM     25  S   UNL     1       1.324   9.605  18.894  0.00  0.00    +0.000 S 
ATOM     26  O   UNL     1       1.596   9.737  17.476  0.00  0.00    +0.000 OA
ATOM     27  O   UNL     1       1.905  10.547  19.826  0.00  0.00    +0.000 OA
BRANCH  25  34
ATOM     28  C   UNL     1      -2.592   9.917  17.888  0.00  0.00    +0.000 C 
ATOM     29  C   UNL     1      -1.117  10.330  17.980  0.00  0.00    +0.000 C 
ATOM     30  C   UNL     1      -0.997  11.850  18.167  0.00  0.00    +0.000 C 
ATOM     31  C   UNL     1      -1.438  12.308  19.559  0.00  0.00    +0.000 C 
ATOM     32  C   UNL     1      -0.830  11.473  20.684  0.00  0.00    +0.000 C 
ATOM     33  C   UNL     1      -0.928   9.978  20.430  0.00  0.00    +0.000 C 
ATOM     34  N   UNL     1      -0.394   9.599  19.093  0.00  0.00    +0.000 NA
ENDBRANCH  25  34
ENDBRANCH   1  25
BRANCH   6  35
ATOM     35  O   UNL     1       4.389   2.267  19.997  0.00  0.00    +0.000 OA
ATOM     36  H   UNL     1       3.833   2.185  20.794  0.00  0.00    +0.000 HD
ENDBRANCH   6  35
TORSDOF 8
ENDMDL
MODEL 9
REMARK VINA RESULT:      -7.7      4.358      8.522
REMARK  Name = 
REMARK  9 active torsions:
REMARK  status: ('A' for Active; 'I' for Inactive)
REMARK    1  A    between atoms: C_1  and  C_2
REMARK    2  A    between atoms: N_7  and  S_8
REMARK    3  A    between atoms: S_8  and  C_11
REMARK    4  A    between atoms: C_16  and  O_17
REMARK    5  A    between atoms: C_19  and  C_20
REMARK    6  A    between atoms: N_22  and  C_23
REMARK    7  A    between atoms: C_23  and  C_24
REMARK    8  A    between atoms: C_24  and  C_25
REMARK    9  A    between atoms: C_25  and  N_26
REMARK                            x       y       z     vdW  Elec       q    Type
REMARK                         _______ _______ _______ _____ _____    ______ ____
ROOT
ATOM      1  C   UNL     1       0.681  13.816  20.775  0.00  0.00    +0.000 A 
ATOM      2  C   UNL     1      -0.520  14.506  20.852  0.00  0.00    +0.000 A 
ATOM      3  C   UNL     1      -1.657  13.959  20.237  0.00  0.00    +0.000 A 
ATOM      4  C   UNL     1      -1.643  12.725  19.577  0.00  0.00    +0.000 A 
ATOM      5  N   UNL     1      -2.772  12.266  19.017  0.00  0.00    +0.000 NA
ATOM      6  C   UNL     1      -2.736  11.065  18.420  0.00  0.00    +0.000 A 
ATOM      7  C   UNL     1      -1.631  10.252  18.337  0.00  0.00    +0.000 A 
ATOM      8  C   UNL     1      -0.454  10.739  18.907  0.00  0.00    +0.000 A 
ATOM      9  C   UNL     1      -0.428  12.012  19.525  0.00  0.00    +0.000 A 
ATOM     10  C   UNL     1       0.731  12.606  20.086  0.00  0.00    +0.000 A 
ENDROOT
BRANCH   8  11
ATOM     11  C   UNL     1       0.732   9.855  18.959  0.00  0.00    +0.000 C 
ATOM     12  O   UNL     1       0.983   9.232  19.987  0.00  0.00    +0.000 OA
ATOM     13  N   UNL     1       1.502   9.745  17.822  0.00  0.00    +0.000 N 
ATOM     14  H   UNL     1       1.234  10.178  16.949  0.00  0.00    +0.000 HD
BRANCH  13  15
ATOM     15  C   UNL     1       2.636   8.845  17.808  0.00  0.00    +0.000 C 
BRANCH  15  16
ATOM     16  C   UNL     1       2.204   7.396  17.597  0.00  0.00    +0.000 C 
BRANCH  16  17
ATOM     17  C   UNL     1       3.119   6.396  18.317  0.00  0.00    +0.000 C 
BRANCH  17  18
ATOM     18  N   UNL     1       2.418   5.207  18.839  0.00  0.00    +0.000 NA
ATOM     19  C   UNL     1       3.049   3.957  18.410  0.00  0.00    +0.000 C 
ATOM     20  C   UNL     1       2.021   2.834  18.262  0.00  0.00    +0.000 C 
ATOM     21  C   UNL     1       1.643   2.140  19.561  0.00  0.00    +0.000 C 
ATOM     22  C   UNL     1       1.060   3.068  20.619  0.00  0.00    +0.000 C 
ATOM     23  C   UNL     1       2.083   4.072  21.136  0.00  0.00    +0.000 C 
ATOM     24  C   UNL     1       2.213   5.342  20.289  0.00  0.00    +0.000 C 
ENDBRANCH  17  18
ENDBRANCH  16  17
ENDBRANCH  15  16
ENDBRANCH  13  15
ENDBRANCH   8  11
BRANCH   1  25
ATOM     25  S   UNL     1       2.204  14.526  21.365  0.00  0.00    +0.000 S 
ATOM     26  O   UNL     1       3.239  13.520  21.216  0.00  0.00    +0.000 OA
ATOM     27  O   UNL     1       1.916  15.069  22.674  0.00  0.00    +0.000 OA
BRANCH  25  34
ATOM     28  C   UNL     1       2.065  16.815  18.020  0.00  0.00    +0.000 C 
ATOM     29  C   UNL     1       2.183  15.531  18.853  0.00  0.00    +0.000 C 
ATOM     30  C   UNL     1       3.179  14.560  18.202  0.00  0.00    +0.000 C 
ATOM     31  C   UNL     1       4.628  15.033  18.325  0.00  0.00    +0.000 C 
ATOM     32  C   UNL     1       4.996  15.475  19.741  0.00  0.00    +0.000 C 
ATOM     33  C   UNL     1       3.956  16.394  20.360  0.00  0.00    +0.000 C 
ATOM     34  N   UNL     1       2.584  15.822  20.285  0.00  0.00    +0.000 NA
ENDBRANCH  25  34
ENDBRANCH   1  25
BRANCH   6  35
ATOM     35  O   UNL     1      -3.918  10.658  17.899  0.00  0.00    +0.000 OA
ATOM     36  H   UNL     1      -3.936   9.733  18.207  0.00  0.00    +0.000 HD
ENDBRANCH   6  35
TORSDOF 8
ENDMDL
