MODEL 1
REMARK VINA RESULT:      -7.0      0.000      0.000
REMARK  Name = 
REMARK  11 active torsions:
REMARK  status: ('A' for Active; 'I' for Inactive)
REMARK    1  A    between atoms: C_1  and  C_2
REMARK    2  A    between atoms: C_2  and  C_3
REMARK    3  A    between atoms: C_5  and  C_6
REMARK    4  A    between atoms: N_8  and  C_9
REMARK    5  A    between atoms: C_9  and  C_10
REMARK    6  A    between atoms: C_10  and  C_11
REMARK    7  A    between atoms: C_11  and  N_12
REMARK    8  A    between atoms: N_12  and  C_13
REMARK    9  A    between atoms: C_13  and  C_14
REMARK   10  A    between atoms: C_21  and  C_22
REMARK   11  A    between atoms: C_21  and  C_23
REMARK                            x       y       z     vdW  Elec       q    Type
REMARK                         _______ _______ _______ _____ _____    ______ ____
ROOT
ATOM      1  C   UNL     1       5.381   4.633  18.546  0.00  0.00    +0.000 C 
ATOM      2  O   UNL     1       5.901   4.870  19.642  0.00  0.00    +0.000 OA
ATOM      3  N   UNL     1       4.694   3.462  18.334  0.00  0.00    +0.000 N 
ATOM      4  H   UNL     1       4.300   3.253  17.426  0.00  0.00    +0.000 HD
ENDROOT
BRANCH   1   9
ATOM      5  C   UNL     1       7.810   8.511  17.531  0.00  0.00    +0.000 C 
ATOM      6  C   UNL     1       7.304   7.069  17.671  0.00  0.00    +0.000 C 
ATOM      7  C   UNL     1       8.109   6.399  18.795  0.00  0.00    +0.000 C 
ATOM      8  C   UNL     1       5.790   7.034  17.890  0.00  0.00    +0.000 C 
ATOM      9  C   UNL     1       5.367   5.644  17.396  0.00  0.00    +0.000 C 
ATOM     10  C   UNL     1       6.333   5.422  16.205  0.00  0.00    +0.000 C 
ATOM     11  C   UNL     1       5.636   5.852  14.892  0.00  0.00    +0.000 C 
ATOM     12  C   UNL     1       6.864   4.002  15.995  0.00  0.00    +0.000 C 
ATOM     13  N   UNL     1       7.503   6.313  16.420  0.00  0.00    +0.000 NA
ATOM     14  H   UNL     1       7.604   6.958  15.637  0.00  0.00    +0.000 HD
ENDBRANCH   1   9
BRANCH   3  15
ATOM     15  C   UNL     1       4.615   2.465  19.378  0.00  0.00    +0.000 C 
BRANCH  15  16
ATOM     16  C   UNL     1       4.028   1.149  18.867  0.00  0.00    +0.000 C 
BRANCH  16  17
ATOM     17  C   UNL     1       2.501   1.195  18.915  0.00  0.00    +0.000 C 
BRANCH  17  18
ATOM     18  N   UNL     1       1.988   2.064  17.856  0.00  0.00    +0.000 NA
ATOM     19  H   UNL     1       1.627   1.497  17.088  0.00  0.00    +0.000 HD
BRANCH  18  20
ATOM     20  C   UNL     1       0.910   2.916  18.361  0.00  0.00    +0.000 C 
BRANCH  20  21
ATOM     21  C   UNL     1       1.438   4.246  18.849  0.00  0.00    +0.000 A 
ATOM     22  C   UNL     1       1.689   5.266  17.915  0.00  0.00    +0.000 A 
ATOM     23  C   UNL     1       2.171   6.513  18.319  0.00  0.00    +0.000 A 
ATOM     24  C   UNL     1       2.400   6.765  19.669  0.00  0.00    +0.000 A 
ATOM     25  C   UNL     1       2.152   5.770  20.611  0.00  0.00    +0.000 A 
ATOM     26  C   UNL     1       1.674   4.517  20.209  0.00  0.00    +0.000 A 
ATOM     27 CL   UNL     1       1.399   3.344  21.448  0.00  0.00    +0.000 Cl
ENDBRANCH  20  21
ENDBRANCH  18  20
ENDBRANCH  17  18
ENDBRANCH  16  17
ENDBRANCH  15  16
ENDBRANCH   3  15
TORSDOF 7
ENDMDL
MODEL 2
REMARK VINA RESULT:      -7.0      2.267      2.989
REMARK  Name = 
REMARK  11 active torsions:
REMARK  status: ('A' for Active; 'I' for Inactive)
REMARK    1  A    between atoms: C_1  and  C_2
REMARK    2  A    between atoms: C_2  and  C_3
REMARK    3  A    between atoms: C_5  and  C_6
REMARK    4  A    between atoms: N_8  and  C_9
REMARK    5  A    between atoms: C_9  and  C_10
REMARK    6  A    between atoms: C_10  and  C_11
REMARK    7  A    between atoms: C_11  and  N_12
REMARK    8  A    between atoms: N_12  and  C_13
REMARK    9  A    between atoms: C_13  and  C_14
REMARK   10  A    between atoms: C_21  and  C_22
REMARK   11  A    between atoms: C_21  and  C_23
REMARK                            x       y       z     vdW  Elec       q    Type
REMARK                         _______ _______ _______ _____ _____    ______ ____
ROOT
ATOM      1  C   UNL     1       4.874   4.261  18.230  0.00  0.00    +0.000 C 
ATOM      2  O   UNL     1       5.742   4.078  19.091  0.00  0.00    +0.000 OA
ATOM      3  N   UNL     1       3.687   3.572  18.274  0.00  0.00    +0.000 N 
ATOM      4  H   UNL     1       2.992   3.695  17.549  0.00  0.00    +0.000 HD
ENDROOT
BRANCH   1   9
ATOM      5  C   UNL     1       7.690   7.937  17.502  0.00  0.00    +0.000 C 
ATOM      6  C   UNL     1       7.049   6.544  17.551  0.00  0.00    +0.000 C 
ATOM      7  C   UNL     1       7.740   5.750  18.670  0.00  0.00    +0.000 C 
ATOM      8  C   UNL     1       5.529   6.641  17.711  0.00  0.00    +0.000 C 
ATOM      9  C   UNL     1       5.002   5.321  17.133  0.00  0.00    +0.000 C 
ATOM     10  C   UNL     1       5.993   5.064  15.969  0.00  0.00    +0.000 C 
ATOM     11  C   UNL     1       5.395   5.618  14.654  0.00  0.00    +0.000 C 
ATOM     12  C   UNL     1       6.400   3.611  15.709  0.00  0.00    +0.000 C 
ATOM     13  N   UNL     1       7.230   5.830  16.272  0.00  0.00    +0.000 NA
ATOM     14  H   UNL     1       7.423   6.499  15.527  0.00  0.00    +0.000 HD
ENDBRANCH   1   9
BRANCH   3  15
ATOM     15  C   UNL     1       3.457   2.582  19.302  0.00  0.00    +0.000 C 
BRANCH  15  16
ATOM     16  C   UNL     1       2.216   2.901  20.136  0.00  0.00    +0.000 C 
BRANCH  16  17
ATOM     17  C   UNL     1       2.360   4.273  20.797  0.00  0.00    +0.000 C 
BRANCH  17  18
ATOM     18  N   UNL     1       1.792   5.311  19.937  0.00  0.00    +0.000 NA
ATOM     19  H   UNL     1       0.843   5.529  20.241  0.00  0.00    +0.000 HD
BRANCH  18  20
ATOM     20  C   UNL     1       2.599   6.530  19.996  0.00  0.00    +0.000 C 
BRANCH  20  21
ATOM     21  C   UNL     1       1.733   7.761  20.137  0.00  0.00    +0.000 A 
ATOM     22  C   UNL     1       1.051   7.981  21.347  0.00  0.00    +0.000 A 
ATOM     23  C   UNL     1       0.243   9.107  21.526  0.00  0.00    +0.000 A 
ATOM     24  C   UNL     1       0.114  10.040  20.501  0.00  0.00    +0.000 A 
ATOM     25  C   UNL     1       0.786   9.843  19.297  0.00  0.00    +0.000 A 
ATOM     26  C   UNL     1       1.591   8.713  19.112  0.00  0.00    +0.000 A 
ATOM     27 CL   UNL     1       2.383   8.552  17.584  0.00  0.00    +0.000 Cl
ENDBRANCH  20  21
ENDBRANCH  18  20
ENDBRANCH  17  18
ENDBRANCH  16  17
ENDBRANCH  15  16
ENDBRANCH   3  15
TORSDOF 7
ENDMDL
MODEL 3
REMARK VINA RESULT:      -6.8      1.073      2.275
REMARK  Name = 
REMARK  11 active torsions:
REMARK  status: ('A' for Active; 'I' for Inactive)
REMARK    1  A    between atoms: C_1  and  C_2
REMARK    2  A    between atoms: C_2  and  C_3
REMARK    3  A    between atoms: C_5  and  C_6
REMARK    4  A    between atoms: N_8  and  C_9
REMARK    5  A    between atoms: C_9  and  C_10
REMARK    6  A    between atoms: C_10  and  C_11
REMARK    7  A    between atoms: C_11  and  N_12
REMARK    8  A    between atoms: N_12  and  C_13
REMARK    9  A    between atoms: C_13  and  C_14
REMARK   10  A    between atoms: C_21  and  C_22
REMARK   11  A    between atoms: C_21  and  C_23
REMARK                            x       y       z     vdW  Elec       q    Type
REMARK                         _______ _______ _______ _____ _____    ______ ____
ROOT
ATOM      1  C   UNL     1       5.692   4.779  18.884  0.00  0.00    +0.000 C 
ATOM      2  O   UNL     1       4.791   5.444  19.409  0.00  0.00    +0.000 OA
ATOM      3  N   UNL     1       5.638   3.407  18.879  0.00  0.00    +0.000 N 
ATOM      4  H   UNL     1       6.393   2.863  18.481  0.00  0.00    +0.000 HD
ENDROOT
BRANCH   1   9
ATOM      5  C   UNL     1       7.246   4.589  14.466  0.00  0.00    +0.000 C 
ATOM      6  C   UNL     1       6.523   4.943  15.773  0.00  0.00    +0.000 C 
ATOM      7  C   UNL     1       5.115   4.334  15.707  0.00  0.00    +0.000 C 
ATOM      8  C   UNL     1       7.334   4.495  16.991  0.00  0.00    +0.000 C 
ATOM      9  C   UNL     1       6.858   5.415  18.123  0.00  0.00    +0.000 C 
ATOM     10  C   UNL     1       6.610   6.746  17.369  0.00  0.00    +0.000 C 
ATOM     11  C   UNL     1       7.869   7.639  17.477  0.00  0.00    +0.000 C 
ATOM     12  C   UNL     1       5.413   7.588  17.817  0.00  0.00    +0.000 C 
ATOM     13  N   UNL     1       6.408   6.405  15.936  0.00  0.00    +0.000 NA
ATOM     14  H   UNL     1       7.106   6.873  15.359  0.00  0.00    +0.000 HD
ENDBRANCH   1   9
BRANCH   3  15
ATOM     15  C   UNL     1       4.550   2.717  19.535  0.00  0.00    +0.000 C 
BRANCH  15  16
ATOM     16  C   UNL     1       3.979   1.595  18.668  0.00  0.00    +0.000 C 
BRANCH  16  17
ATOM     17  C   UNL     1       2.659   2.034  18.034  0.00  0.00    +0.000 C 
BRANCH  17  18
ATOM     18  N   UNL     1       2.770   3.404  17.532  0.00  0.00    +0.000 NA
ATOM     19  H   UNL     1       3.012   3.389  16.540  0.00  0.00    +0.000 HD
BRANCH  18  20
ATOM     20  C   UNL     1       1.506   4.121  17.699  0.00  0.00    +0.000 C 
BRANCH  20  21
ATOM     21  C   UNL     1       1.660   5.306  18.625  0.00  0.00    +0.000 A 
ATOM     22  C   UNL     1       1.954   6.567  18.078  0.00  0.00    +0.000 A 
ATOM     23  C   UNL     1       2.100   7.692  18.894  0.00  0.00    +0.000 A 
ATOM     24  C   UNL     1       1.941   7.576  20.272  0.00  0.00    +0.000 A 
ATOM     25  C   UNL     1       1.644   6.337  20.833  0.00  0.00    +0.000 A 
ATOM     26  C   UNL     1       1.503   5.207  20.019  0.00  0.00    +0.000 A 
ATOM     27 CL   UNL     1       1.137   3.711  20.805  0.00  0.00    +0.000 Cl
ENDBRANCH  20  21
ENDBRANCH  18  20
ENDBRANCH  17  18
ENDBRANCH  16  17
ENDBRANCH  15  16
ENDBRANCH   3  15
TORSDOF 7
ENDMDL
MODEL 4
REMARK VINA RESULT:      -6.7      1.396      1.910
REMARK  Name = 
REMARK  11 active torsions:
REMARK  status: ('A' for Active; 'I' for Inactive)
REMARK    1  A    between atoms: C_1  and  C_2
REMARK    2  A    between atoms: C_2  and  C_3
REMARK    3  A    between atoms: C_5  and  C_6
REMARK    4  A    between atoms: N_8  and  C_9
REMARK    5  A    between atoms: C_9  and  C_10
REMARK    6  A    between atoms: C_10  and  C_11
REMARK    7  A    between atoms: C_11  and  N_12
REMARK    8  A    between atoms: N_12  and  C_13
REMARK    9  A    between atoms: C_13  and  C_14
REMARK   10  A    between atoms: C_21  and  C_22
REMARK   11  A    between atoms: C_21  and  C_23
REMARK                            x       y       z     vdW  Elec       q    Type
REMARK                         _______ _______ _______ _____ _____    ______ ____
ROOT
ATOM      1  C   UNL     1       5.297   4.553  18.681  0.00  0.00    +0.000 C 
ATOM      2  O   UNL     1       5.876   4.778  19.750  0.00  0.00    +0.000 OA
ATOM      3  N   UNL     1       4.555   3.409  18.513  0.00  0.00    +0.000 N 
ATOM      4  H   UNL     1       4.112   3.208  17.626  0.00  0.00    +0.000 HD
ENDROOT
BRANCH   1   9
ATOM      5  C   UNL     1       7.784   8.363  17.554  0.00  0.00    +0.000 C 
ATOM      6  C   UNL     1       7.249   6.934  17.724  0.00  0.00    +0.000 C 
ATOM      7  C   UNL     1       8.072   6.256  18.830  0.00  0.00    +0.000 C 
ATOM      8  C   UNL     1       5.742   6.937  17.989  0.00  0.00    +0.000 C 
ATOM      9  C   UNL     1       5.272   5.553  17.522  0.00  0.00    +0.000 C 
ATOM     10  C   UNL     1       6.196   5.297  16.305  0.00  0.00    +0.000 C 
ATOM     11  C   UNL     1       5.470   5.731  15.009  0.00  0.00    +0.000 C 
ATOM     12  C   UNL     1       6.688   3.862  16.093  0.00  0.00    +0.000 C 
ATOM     13  N   UNL     1       7.393   6.162  16.475  0.00  0.00    +0.000 NA
ATOM     14  H   UNL     1       7.485   6.797  15.683  0.00  0.00    +0.000 HD
ENDBRANCH   1   9
BRANCH   3  15
ATOM     15  C   UNL     1       4.483   2.426  19.570  0.00  0.00    +0.000 C 
BRANCH  15  16
ATOM     16  C   UNL     1       3.039   2.036  19.891  0.00  0.00    +0.000 C 
BRANCH  16  17
ATOM     17  C   UNL     1       2.645   2.555  21.274  0.00  0.00    +0.000 C 
BRANCH  17  18
ATOM     18  N   UNL     1       2.615   4.017  21.276  0.00  0.00    +0.000 NA
ATOM     19  H   UNL     1       3.422   4.380  20.769  0.00  0.00    +0.000 HD
BRANCH  18  20
ATOM     20  C   UNL     1       1.395   4.511  20.637  0.00  0.00    +0.000 C 
BRANCH  20  21
ATOM     21  C   UNL     1       1.654   5.777  19.851  0.00  0.00    +0.000 A 
ATOM     22  C   UNL     1       1.780   6.995  20.541  0.00  0.00    +0.000 A 
ATOM     23  C   UNL     1       2.025   8.189  19.859  0.00  0.00    +0.000 A 
ATOM     24  C   UNL     1       2.161   8.183  18.474  0.00  0.00    +0.000 A 
ATOM     25  C   UNL     1       2.046   6.985  17.772  0.00  0.00    +0.000 A 
ATOM     26  C   UNL     1       1.794   5.788  18.452  0.00  0.00    +0.000 A 
ATOM     27 CL   UNL     1       1.664   4.353  17.497  0.00  0.00    +0.000 Cl
ENDBRANCH  20  21
ENDBRANCH  18  20
ENDBRANCH  17  18
ENDBRANCH  16  17
ENDBRANCH  15  16
ENDBRANCH   3  15
TORSDOF 7
ENDMDL
MODEL 5
REMARK VINA RESULT:      -6.6      2.695      4.006
REMARK  Name = 
REMARK  11 active torsions:
REMARK  status: ('A' for Active; 'I' for Inactive)
REMARK    1  A    between atoms: C_1  and  C_2
REMARK    2  A    between atoms: C_2  and  C_3
REMARK    3  A    between atoms: C_5  and  C_6
REMARK    4  A    between atoms: N_8  and  C_9
REMARK    5  A    between atoms: C_9  and  C_10
REMARK    6  A    between atoms: C_10  and  C_11
REMARK    7  A    between atoms: C_11  and  N_12
REMARK    8  A    between atoms: N_12  and  C_13
REMARK    9  A    between atoms: C_13  and  C_14
REMARK   10  A    between atoms: C_21  and  C_22
REMARK   11  A    between atoms: C_21  and  C_23
REMARK                            x       y       z     vdW  Elec       q    Type
REMARK                         _______ _______ _______ _____ _____    ______ ____
ROOT
ATOM      1  C   UNL     1       5.040   4.073  17.894  0.00  0.00    +0.000 C 
ATOM      2  O   UNL     1       4.622   3.179  17.150  0.00  0.00    +0.000 OA
ATOM      3  N   UNL     1       4.526   4.230  19.158  0.00  0.00    +0.000 N 
ATOM      4  H   UNL     1       4.843   4.985  19.753  0.00  0.00    +0.000 HD
ENDROOT
BRANCH   1   9
ATOM      5  C   UNL     1       7.429   4.932  13.954  0.00  0.00    +0.000 C 
ATOM      6  C   UNL     1       6.419   4.934  15.109  0.00  0.00    +0.000 C 
ATOM      7  C   UNL     1       5.171   4.171  14.639  0.00  0.00    +0.000 C 
ATOM      8  C   UNL     1       7.042   4.370  16.388  0.00  0.00    +0.000 C 
ATOM      9  C   UNL     1       6.209   4.988  17.520  0.00  0.00    +0.000 C 
ATOM     10  C   UNL     1       5.894   6.395  16.952  0.00  0.00    +0.000 C 
ATOM     11  C   UNL     1       6.942   7.406  17.475  0.00  0.00    +0.000 C 
ATOM     12  C   UNL     1       4.510   6.974  17.255  0.00  0.00    +0.000 C 
ATOM     13  N   UNL     1       6.033   6.310  15.474  0.00  0.00    +0.000 NA
ATOM     14  H   UNL     1       6.741   6.966  15.148  0.00  0.00    +0.000 HD
ENDBRANCH   1   9
BRANCH   3  15
ATOM     15  C   UNL     1       3.449   3.383  19.617  0.00  0.00    +0.000 C 
BRANCH  15  16
ATOM     16  C   UNL     1       2.079   4.023  19.388  0.00  0.00    +0.000 C 
BRANCH  16  17
ATOM     17  C   UNL     1       1.610   4.739  20.655  0.00  0.00    +0.000 C 
BRANCH  17  18
ATOM     18  N   UNL     1       2.368   5.976  20.848  0.00  0.00    +0.000 NA
ATOM     19  H   UNL     1       3.367   5.768  20.875  0.00  0.00    +0.000 HD
BRANCH  18  20
ATOM     20  C   UNL     1       2.111   6.916  19.757  0.00  0.00    +0.000 C 
BRANCH  20  21
ATOM     21  C   UNL     1       1.483   8.194  20.264  0.00  0.00    +0.000 A 
ATOM     22  C   UNL     1       1.159   8.302  21.627  0.00  0.00    +0.000 A 
ATOM     23  C   UNL     1       0.583   9.465  22.143  0.00  0.00    +0.000 A 
ATOM     24  C   UNL     1       0.331  10.548  21.304  0.00  0.00    +0.000 A 
ATOM     25  C   UNL     1       0.651  10.463  19.951  0.00  0.00    +0.000 A 
ATOM     26  C   UNL     1       1.223   9.297  19.430  0.00  0.00    +0.000 A 
ATOM     27 CL   UNL     1       1.582   9.283  17.739  0.00  0.00    +0.000 Cl
ENDBRANCH  20  21
ENDBRANCH  18  20
ENDBRANCH  17  18
ENDBRANCH  16  17
ENDBRANCH  15  16
ENDBRANCH   3  15
TORSDOF 7
ENDMDL
MODEL 6
REMARK VINA RESULT:      -6.6      3.096      6.723
REMARK  Name = 
REMARK  11 active torsions:
REMARK  status: ('A' for Active; 'I' for Inactive)
REMARK    1  A    between atoms: C_1  and  C_2
REMARK    2  A    between atoms: C_2  and  C_3
REMARK    3  A    between atoms: C_5  and  C_6
REMARK    4  A    between atoms: N_8  and  C_9
REMARK    5  A    between atoms: C_9  and  C_10
REMARK    6  A    between atoms: C_10  and  C_11
REMARK    7  A    between atoms: C_11  and  N_12
REMARK    8  A    between atoms: N_12  and  C_13
REMARK    9  A    between atoms: C_13  and  C_14
REMARK   10  A    between atoms: C_21  and  C_22
REMARK   11  A    between atoms: C_21  and  C_23
REMARK                            x       y       z     vdW  Elec       q    Type
REMARK                         _______ _______ _______ _____ _____    ______ ____
ROOT
ATOM      1  C   UNL     1       5.141   4.562  19.472  0.00  0.00    +0.000 C 
ATOM      2  O   UNL     1       4.618   5.577  19.948  0.00  0.00    +0.000 OA
ATOM      3  N   UNL     1       6.456   4.572  19.074  0.00  0.00    +0.000 N 
ATOM      4  H   UNL     1       6.872   3.752  18.651  0.00  0.00    +0.000 HD
ENDROOT
BRANCH   1   9
ATOM      5  C   UNL     1       1.170   2.830  21.261  0.00  0.00    +0.000 C 
ATOM      6  C   UNL     1       2.234   3.510  20.389  0.00  0.00    +0.000 C 
ATOM      7  C   UNL     1       2.125   5.026  20.616  0.00  0.00    +0.000 C 
ATOM      8  C   UNL     1       3.627   2.942  20.674  0.00  0.00    +0.000 C 
ATOM      9  C   UNL     1       4.417   3.216  19.388  0.00  0.00    +0.000 C 
ATOM     10  C   UNL     1       3.331   3.027  18.299  0.00  0.00    +0.000 C 
ATOM     11  C   UNL     1       3.390   1.578  17.760  0.00  0.00    +0.000 C 
ATOM     12  C   UNL     1       3.385   3.966  17.091  0.00  0.00    +0.000 C 
ATOM     13  N   UNL     1       2.013   3.220  18.960  0.00  0.00    +0.000 NA
ATOM     14  H   UNL     1       1.442   2.382  18.861  0.00  0.00    +0.000 HD
ENDBRANCH   1   9
BRANCH   3  15
ATOM     15  C   UNL     1       7.233   5.787  19.158  0.00  0.00    +0.000 C 
BRANCH  15  16
ATOM     16  C   UNL     1       7.498   6.393  17.779  0.00  0.00    +0.000 C 
BRANCH  16  17
ATOM     17  C   UNL     1       6.208   6.974  17.199  0.00  0.00    +0.000 C 
BRANCH  17  18
ATOM     18  N   UNL     1       5.947   6.405  15.877  0.00  0.00    +0.000 NA
ATOM     19  H   UNL     1       5.727   7.152  15.217  0.00  0.00    +0.000 HD
BRANCH  18  20
ATOM     20  C   UNL     1       7.116   5.673  15.389  0.00  0.00    +0.000 C 
BRANCH  20  21
ATOM     21  C   UNL     1       6.792   4.878  14.144  0.00  0.00    +0.000 A 
ATOM     22  C   UNL     1       5.658   4.047  14.141  0.00  0.00    +0.000 A 
ATOM     23  C   UNL     1       5.315   3.298  13.013  0.00  0.00    +0.000 A 
ATOM     24  C   UNL     1       6.095   3.377  11.862  0.00  0.00    +0.000 A 
ATOM     25  C   UNL     1       7.218   4.200  11.843  0.00  0.00    +0.000 A 
ATOM     26  C   UNL     1       7.568   4.947  12.974  0.00  0.00    +0.000 A 
ATOM     27 CL   UNL     1       8.981   5.937  12.857  0.00  0.00    +0.000 Cl
ENDBRANCH  20  21
ENDBRANCH  18  20
ENDBRANCH  17  18
ENDBRANCH  16  17
ENDBRANCH  15  16
ENDBRANCH   3  15
TORSDOF 7
ENDMDL
MODEL 7
REMARK VINA RESULT:      -6.5      4.938      6.405
REMARK  Name = 
REMARK  11 active torsions:
REMARK  status: ('A' for Active; 'I' for Inactive)
REMARK    1  A    between atoms: C_1  and  C_2
REMARK    2  A    between atoms: C_2  and  C_3
REMARK    3  A    between atoms: C_5  and  C_6
REMARK    4  A    between atoms: N_8  and  C_9
REMARK    5  A    between atoms: C_9  and  C_10
REMARK    6  A    between atoms: C_10  and  C_11
REMARK    7  A    between atoms: C_11  and  N_12
REMARK    8  A    between atoms: N_12  and  C_13
REMARK    9  A    between atoms: C_13  and  C_14
REMARK   10  A    between atoms: C_21  and  C_22
REMARK   11  A    between atoms: C_21  and  C_23
REMARK                            x       y       z     vdW  Elec       q    Type
REMARK                         _______ _______ _______ _____ _____    ______ ____
ROOT
ATOM      1  C   UNL     1       3.076   5.916  18.712  0.00  0.00    +0.000 C 
ATOM      2  O   UNL     1       3.165   5.909  19.945  0.00  0.00    +0.000 OA
ATOM      3  N   UNL     1       2.637   7.034  18.047  0.00  0.00    +0.000 N 
ATOM      4  H   UNL     1       2.529   7.027  17.041  0.00  0.00    +0.000 HD
ENDROOT
BRANCH   1   9
ATOM      5  C   UNL     1       7.212   4.459  17.055  0.00  0.00    +0.000 C 
ATOM      6  C   UNL     1       5.956   4.713  17.899  0.00  0.00    +0.000 C 
ATOM      7  C   UNL     1       6.320   5.741  18.981  0.00  0.00    +0.000 C 
ATOM      8  C   UNL     1       4.776   5.133  17.020  0.00  0.00    +0.000 C 
ATOM      9  C   UNL     1       3.537   4.746  17.838  0.00  0.00    +0.000 C 
ATOM     10  C   UNL     1       4.008   3.445  18.534  0.00  0.00    +0.000 C 
ATOM     11  C   UNL     1       3.560   2.223  17.698  0.00  0.00    +0.000 C 
ATOM     12  C   UNL     1       3.534   3.212  19.971  0.00  0.00    +0.000 C 
ATOM     13  N   UNL     1       5.495   3.472  18.550  0.00  0.00    +0.000 NA
ATOM     14  H   UNL     1       5.868   2.662  18.056  0.00  0.00    +0.000 HD
ENDBRANCH   1   9
BRANCH   3  15
ATOM     15  C   UNL     1       2.222   8.205  18.786  0.00  0.00    +0.000 C 
BRANCH  15  16
ATOM     16  C   UNL     1       1.687   9.303  17.866  0.00  0.00    +0.000 C 
BRANCH  16  17
ATOM     17  C   UNL     1       0.986  10.387  18.686  0.00  0.00    +0.000 C 
BRANCH  17  18
ATOM     18  N   UNL     1      -0.303   9.897  19.174  0.00  0.00    +0.000 NA
ATOM     19  H   UNL     1      -0.195   9.521  20.116  0.00  0.00    +0.000 HD
BRANCH  18  20
ATOM     20  C   UNL     1      -1.289  10.977  19.207  0.00  0.00    +0.000 C 
BRANCH  20  21
ATOM     21  C   UNL     1      -2.267  10.870  18.059  0.00  0.00    +0.000 A 
ATOM     22  C   UNL     1      -1.902  10.134  16.918  0.00  0.00    +0.000 A 
ATOM     23  C   UNL     1      -2.774  10.003  15.834  0.00  0.00    +0.000 A 
ATOM     24  C   UNL     1      -4.033  10.596  15.878  0.00  0.00    +0.000 A 
ATOM     25  C   UNL     1      -4.415  11.325  17.002  0.00  0.00    +0.000 A 
ATOM     26  C   UNL     1      -3.542  11.463  18.087  0.00  0.00    +0.000 A 
ATOM     27 CL   UNL     1      -4.102  12.388  19.436  0.00  0.00    +0.000 Cl
ENDBRANCH  20  21
ENDBRANCH  18  20
ENDBRANCH  17  18
ENDBRANCH  16  17
ENDBRANCH  15  16
ENDBRANCH   3  15
TORSDOF 7
ENDMDL
MODEL 8
REMARK VINA RESULT:      -6.4      1.752      3.984
REMARK  Name = 
REMARK  11 active torsions:
REMARK  status: ('A' for Active; 'I' for Inactive)
REMARK    1  A    between atoms: C_1  and  C_2
REMARK    2  A    between atoms: C_2  and  C_3
REMARK    3  A    between atoms: C_5  and  C_6
REMARK    4  A    between atoms: N_8  and  C_9
REMARK    5  A    between atoms: C_9  and  C_10
REMARK    6  A    between atoms: C_10  and  C_11
REMARK    7  A    between atoms: C_11  and  N_12
REMARK    8  A    between atoms: N_12  and  C_13
REMARK    9  A    between atoms: C_13  and  C_14
REMARK   10  A    between atoms: C_21  and  C_22
REMARK   11  A    between atoms: C_21  and  C_23
REMARK                            x       y       z     vdW  Elec       q    Type
REMARK                         _______ _______ _______ _____ _____    ______ ____
ROOT
ATOM      1  C   UNL     1       4.457   6.033  17.713  0.00  0.00    +0.000 C 
ATOM      2  O   UNL     1       4.617   7.221  17.408  0.00  0.00    +0.000 OA
ATOM      3  N   UNL     1       3.243   5.585  18.172  0.00  0.00    +0.000 N 
ATOM      4  H   UNL     1       3.123   4.622  18.456  0.00  0.00    +0.000 HD
ENDROOT
BRANCH   1   9
ATOM      5  C   UNL     1       6.320   3.888  13.985  0.00  0.00    +0.000 C 
ATOM      6  C   UNL     1       5.991   4.849  15.135  0.00  0.00    +0.000 C 
ATOM      7  C   UNL     1       5.218   6.038  14.544  0.00  0.00    +0.000 C 
ATOM      8  C   UNL     1       5.246   4.128  16.261  0.00  0.00    +0.000 C 
ATOM      9  C   UNL     1       5.539   4.970  17.510  0.00  0.00    +0.000 C 
ATOM     10  C   UNL     1       6.993   5.435  17.246  0.00  0.00    +0.000 C 
ATOM     11  C   UNL     1       7.977   4.467  17.944  0.00  0.00    +0.000 C 
ATOM     12  C   UNL     1       7.361   6.855  17.687  0.00  0.00    +0.000 C 
ATOM     13  N   UNL     1       7.221   5.346  15.780  0.00  0.00    +0.000 NA
ATOM     14  H   UNL     1       7.996   4.716  15.580  0.00  0.00    +0.000 HD
ENDBRANCH   1   9
BRANCH   3  15
ATOM     15  C   UNL     1       2.146   6.510  18.354  0.00  0.00    +0.000 C 
BRANCH  15  16
ATOM     16  C   UNL     1       2.116   7.090  19.768  0.00  0.00    +0.000 C 
BRANCH  16  17
ATOM     17  C   UNL     1       2.299   5.978  20.802  0.00  0.00    +0.000 C 
BRANCH  17  18
ATOM     18  N   UNL     1       1.230   4.988  20.673  0.00  0.00    +0.000 NA
ATOM     19  H   UNL     1       0.996   4.858  19.688  0.00  0.00    +0.000 HD
BRANCH  18  20
ATOM     20  C   UNL     1       1.647   3.701  21.233  0.00  0.00    +0.000 C 
BRANCH  20  21
ATOM     21  C   UNL     1       2.456   2.901  20.238  0.00  0.00    +0.000 A 
ATOM     22  C   UNL     1       3.814   2.653  20.505  0.00  0.00    +0.000 A 
ATOM     23  C   UNL     1       4.601   1.914  19.618  0.00  0.00    +0.000 A 
ATOM     24  C   UNL     1       4.039   1.398  18.453  0.00  0.00    +0.000 A 
ATOM     25  C   UNL     1       2.694   1.628  18.174  0.00  0.00    +0.000 A 
ATOM     26  C   UNL     1       1.904   2.373  19.057  0.00  0.00    +0.000 A 
ATOM     27 CL   UNL     1       0.247   2.608  18.625  0.00  0.00    +0.000 Cl
ENDBRANCH  20  21
ENDBRANCH  18  20
ENDBRANCH  17  18
ENDBRANCH  16  17
ENDBRANCH  15  16
ENDBRANCH   3  15
TORSDOF 7
ENDMDL
MODEL 9
REMARK VINA RESULT:      -6.4      2.624      3.432
REMARK  Name = 
REMARK  11 active torsions:
REMARK  status: ('A' for Active; 'I' for Inactive)
REMARK    1  A    between atoms: C_1  and  C_2
REMARK    2  A    between atoms: C_2  and  C_3
REMARK    3  A    between atoms: C_5  and  C_6
REMARK    4  A    between atoms: N_8  and  C_9
REMARK    5  A    between atoms: C_9  and  C_10
REMARK    6  A    between atoms: C_10  and  C_11
REMARK    7  A    between atoms: C_11  and  N_12
REMARK    8  A    between atoms: N_12  and  C_13
REMARK    9  A    between atoms: C_13  and  C_14
REMARK   10  A    between atoms: C_21  and  C_22
REMARK   11  A    between atoms: C_21  and  C_23
REMARK                            x       y       z     vdW  Elec       q    Type
REMARK                         _______ _______ _______ _____ _____    ______ ____
ROOT
ATOM      1  C   UNL     1       4.710   4.521  18.177  0.00  0.00    +0.000 C 
ATOM      2  O   UNL     1       5.605   3.888  18.749  0.00  0.00    +0.000 OA
ATOM      3  N   UNL     1       3.400   4.394  18.570  0.00  0.00    +0.000 N 
ATOM      4  H   UNL     1       2.665   4.884  18.077  0.00  0.00    +0.000 HD
ENDROOT
BRANCH   1   9
ATOM      5  C   UNL     1       7.745   8.058  17.673  0.00  0.00    +0.000 C 
ATOM      6  C   UNL     1       7.040   6.695  17.680  0.00  0.00    +0.000 C 
ATOM      7  C   UNL     1       7.582   5.894  18.874  0.00  0.00    +0.000 C 
ATOM      8  C   UNL     1       5.518   6.860  17.688  0.00  0.00    +0.000 C 
ATOM      9  C   UNL     1       4.992   5.552  17.081  0.00  0.00    +0.000 C 
ATOM     10  C   UNL     1       6.079   5.230  16.025  0.00  0.00    +0.000 C 
ATOM     11  C   UNL     1       5.638   5.783  14.649  0.00  0.00    +0.000 C 
ATOM     12  C   UNL     1       6.445   3.757  15.829  0.00  0.00    +0.000 C 
ATOM     13  N   UNL     1       7.314   5.949  16.437  0.00  0.00    +0.000 NA
ATOM     14  H   UNL     1       7.608   6.594  15.704  0.00  0.00    +0.000 HD
ENDBRANCH   1   9
BRANCH   3  15
ATOM     15  C   UNL     1       3.043   3.476  19.628  0.00  0.00    +0.000 C 
BRANCH  15  16
ATOM     16  C   UNL     1       2.662   4.208  20.915  0.00  0.00    +0.000 C 
BRANCH  16  17
ATOM     17  C   UNL     1       1.606   5.275  20.626  0.00  0.00    +0.000 C 
BRANCH  17  18
ATOM     18  N   UNL     1       2.150   6.608  20.887  0.00  0.00    +0.000 NA
ATOM     19  H   UNL     1       2.748   6.895  20.111  0.00  0.00    +0.000 HD
BRANCH  18  20
ATOM     20  C   UNL     1       1.073   7.586  21.039  0.00  0.00    +0.000 C 
BRANCH  20  21
ATOM     21  C   UNL     1       1.246   8.753  20.094  0.00  0.00    +0.000 A 
ATOM     22  C   UNL     1       1.866   8.539  18.850  0.00  0.00    +0.000 A 
ATOM     23  C   UNL     1       2.043   9.585  17.942  0.00  0.00    +0.000 A 
ATOM     24  C   UNL     1       1.591  10.864  18.257  0.00  0.00    +0.000 A 
ATOM     25  C   UNL     1       0.970  11.095  19.481  0.00  0.00    +0.000 A 
ATOM     26  C   UNL     1       0.796  10.051  20.397  0.00  0.00    +0.000 A 
ATOM     27 CL   UNL     1       0.017  10.435  21.891  0.00  0.00    +0.000 Cl
ENDBRANCH  20  21
ENDBRANCH  18  20
ENDBRANCH  17  18
ENDBRANCH  16  17
ENDBRANCH  15  16
ENDBRANCH   3  15
TORSDOF 7
ENDMDL
