MODEL 1
REMARK VINA RESULT:      -7.4      0.000      0.000
REMARK  Name = 
REMARK  11 active torsions:
REMARK  status: ('A' for Active; 'I' for Inactive)
REMARK    1  A    between atoms: C_1  and  C_2
REMARK    2  A    between atoms: C_2  and  C_3
REMARK    3  A    between atoms: C_5  and  C_6
REMARK    4  A    between atoms: C_6  and  C_7
REMARK    5  A    between atoms: C_9  and  O_10
REMARK    6  A    between atoms: C_12  and  O_13
REMARK    7  A    between atoms: O_13  and  C_14
REMARK    8  A    between atoms: C_14  and  C_15
REMARK    9  A    between atoms: C_15  and  C_16
REMARK   10  A    between atoms: C_16  and  C_17
REMARK   11  A    between atoms: C_17  and  N_18
REMARK                            x       y       z     vdW  Elec       q    Type
REMARK                         _______ _______ _______ _____ _____    ______ ____
ROOT
ATOM      1  C   UNL     1       5.714   5.100  16.211  0.00  0.00    +0.000 A 
ATOM      2  C   UNL     1       4.642   4.215  16.446  0.00  0.00    +0.000 A 
ATOM      3  C   UNL     1       3.532   4.557  17.265  0.00  0.00    +0.000 A 
ATOM      4  C   UNL     1       3.536   5.859  17.847  0.00  0.00    +0.000 A 
ATOM      5  C   UNL     1       4.612   6.714  17.637  0.00  0.00    +0.000 A 
ATOM      6  C   UNL     1       5.714   6.368  16.833  0.00  0.00    +0.000 A 
ENDROOT
BRANCH   3   7
ATOM      7  C   UNL     1       2.414   3.566  17.490  0.00  0.00    +0.000 C 
ATOM      8  C   UNL     1       2.601   2.120  17.883  0.00  0.00    +0.000 C 
ATOM      9  O   UNL     1       1.253   3.918  17.388  0.00  0.00    +0.000 OA
ENDBRANCH   3   7
BRANCH   1  11
ATOM     10  C   UNL     1       6.288   3.974  14.035  0.00  0.00    +0.000 C 
ATOM     11  C   UNL     1       6.835   4.653  15.290  0.00  0.00    +0.000 C 
ENDBRANCH   1  11
BRANCH   4  12
ATOM     12  O   UNL     1       2.550   6.364  18.616  0.00  0.00    +0.000 OA
ATOM     13  H   UNL     1       1.840   6.955  18.359  0.00  0.00    +0.000 HD
ENDBRANCH   4  12
BRANCH   6  14
ATOM     14  O   UNL     1       6.750   7.245  16.658  0.00  0.00    +0.000 OA
BRANCH  14  15
ATOM     15  C   UNL     1       7.633   7.599  17.673  0.00  0.00    +0.000 C 
BRANCH  15  16
ATOM     16  C   UNL     1       7.934   9.096  17.715  0.00  0.00    +0.000 C 
BRANCH  16  17
ATOM     17  C   UNL     1       8.933   9.514  18.801  0.00  0.00    +0.000 C 
BRANCH  17  18
ATOM     18  C   UNL     1       9.455  10.967  18.697  0.00  0.00    +0.000 C 
BRANCH  18  19
ATOM     19  N   UNL     1      10.654  11.153  19.550  0.00  0.00    +0.000 NA
ATOM     20  C   UNL     1      10.448  12.016  20.735  0.00  0.00    +0.000 C 
ATOM     21  C   UNL     1      10.431  13.500  20.347  0.00  0.00    +0.000 C 
ATOM     22  O   UNL     1      11.652  13.857  19.733  0.00  0.00    +0.000 OA
ATOM     23  C   UNL     1      11.803  13.129  18.530  0.00  0.00    +0.000 C 
ATOM     24  C   UNL     1      11.846  11.613  18.803  0.00  0.00    +0.000 C 
ENDBRANCH  18  19
ENDBRANCH  17  18
ENDBRANCH  16  17
ENDBRANCH  15  16
ENDBRANCH  14  15
ENDBRANCH   6  14
TORSDOF 9
ENDMDL
MODEL 2
REMARK VINA RESULT:      -7.0      0.895      1.263
REMARK  Name = 
REMARK  11 active torsions:
REMARK  status: ('A' for Active; 'I' for Inactive)
REMARK    1  A    between atoms: C_1  and  C_2
REMARK    2  A    between atoms: C_2  and  C_3
REMARK    3  A    between atoms: C_5  and  C_6
REMARK    4  A    between atoms: C_6  and  C_7
REMARK    5  A    between atoms: C_9  and  O_10
REMARK    6  A    between atoms: C_12  and  O_13
REMARK    7  A    between atoms: O_13  and  C_14
REMARK    8  A    between atoms: C_14  and  C_15
REMARK    9  A    between atoms: C_15  and  C_16
REMARK   10  A    between atoms: C_16  and  C_17
REMARK   11  A    between atoms: C_17  and  N_18
REMARK                            x       y       z     vdW  Elec       q    Type
REMARK                         _______ _______ _______ _____ _____    ______ ____
ROOT
ATOM      1  C   UNL     1       5.812   5.026  16.082  0.00  0.00    +0.000 A 
ATOM      2  C   UNL     1       4.681   4.216  16.318  0.00  0.00    +0.000 A 
ATOM      3  C   UNL     1       3.652   4.583  17.227  0.00  0.00    +0.000 A 
ATOM      4  C   UNL     1       3.803   5.831  17.902  0.00  0.00    +0.000 A 
ATOM      5  C   UNL     1       4.936   6.608  17.689  0.00  0.00    +0.000 A 
ATOM      6  C   UNL     1       5.957   6.236  16.795  0.00  0.00    +0.000 A 
ENDROOT
BRANCH   3   7
ATOM      7  C   UNL     1       2.467   3.674  17.448  0.00  0.00    +0.000 C 
ATOM      8  C   UNL     1       2.551   2.211  17.817  0.00  0.00    +0.000 C 
ATOM      9  O   UNL     1       1.334   4.112  17.363  0.00  0.00    +0.000 OA
ENDBRANCH   3   7
BRANCH   1  11
ATOM     10  C   UNL     1       6.162   3.971  13.824  0.00  0.00    +0.000 C 
ATOM     11  C   UNL     1       6.836   4.561  15.062  0.00  0.00    +0.000 C 
ENDBRANCH   1  11
BRANCH   4  12
ATOM     12  O   UNL     1       2.909   6.353  18.766  0.00  0.00    +0.000 OA
ATOM     13  H   UNL     1       2.971   6.413  19.721  0.00  0.00    +0.000 HD
ENDBRANCH   4  12
BRANCH   6  14
ATOM     14  O   UNL     1       7.054   7.036  16.620  0.00  0.00    +0.000 OA
BRANCH  14  15
ATOM     15  C   UNL     1       7.290   8.185  17.368  0.00  0.00    +0.000 C 
BRANCH  15  16
ATOM     16  C   UNL     1       8.373   8.001  18.429  0.00  0.00    +0.000 C 
BRANCH  16  17
ATOM     17  C   UNL     1       8.941   9.310  18.992  0.00  0.00    +0.000 C 
BRANCH  17  18
ATOM     18  C   UNL     1       8.858  10.530  18.042  0.00  0.00    +0.000 C 
BRANCH  18  19
ATOM     19  N   UNL     1       9.229  11.774  18.759  0.00  0.00    +0.000 NA
ATOM     20  C   UNL     1       9.532  12.930  17.885  0.00  0.00    +0.000 C 
ATOM     21  C   UNL     1      10.930  12.809  17.265  0.00  0.00    +0.000 C 
ATOM     22  O   UNL     1      11.909  12.741  18.282  0.00  0.00    +0.000 OA
ATOM     23  C   UNL     1      11.707  11.570  19.050  0.00  0.00    +0.000 C 
ATOM     24  C   UNL     1      10.327  11.590  19.735  0.00  0.00    +0.000 C 
ENDBRANCH  18  19
ENDBRANCH  17  18
ENDBRANCH  16  17
ENDBRANCH  15  16
ENDBRANCH  14  15
ENDBRANCH   6  14
TORSDOF 9
ENDMDL
MODEL 3
REMARK VINA RESULT:      -6.9      1.450      1.573
REMARK  Name = 
REMARK  11 active torsions:
REMARK  status: ('A' for Active; 'I' for Inactive)
REMARK    1  A    between atoms: C_1  and  C_2
REMARK    2  A    between atoms: C_2  and  C_3
REMARK    3  A    between atoms: C_5  and  C_6
REMARK    4  A    between atoms: C_6  and  C_7
REMARK    5  A    between atoms: C_9  and  O_10
REMARK    6  A    between atoms: C_12  and  O_13
REMARK    7  A    between atoms: O_13  and  C_14
REMARK    8  A    between atoms: C_14  and  C_15
REMARK    9  A    between atoms: C_15  and  C_16
REMARK   10  A    between atoms: C_16  and  C_17
REMARK   11  A    between atoms: C_17  and  N_18
REMARK                            x       y       z     vdW  Elec       q    Type
REMARK                         _______ _______ _______ _____ _____    ______ ____
ROOT
ATOM      1  C   UNL     1       5.945   4.638  16.930  0.00  0.00    +0.000 A 
ATOM      2  C   UNL     1       4.616   4.172  16.854  0.00  0.00    +0.000 A 
ATOM      3  C   UNL     1       3.704   4.278  17.937  0.00  0.00    +0.000 A 
ATOM      4  C   UNL     1       4.188   4.893  19.131  0.00  0.00    +0.000 A 
ATOM      5  C   UNL     1       5.508   5.320  19.210  0.00  0.00    +0.000 A 
ATOM      6  C   UNL     1       6.412   5.204  18.137  0.00  0.00    +0.000 A 
ENDROOT
BRANCH   3   7
ATOM      7  C   UNL     1       2.293   3.755  17.804  0.00  0.00    +0.000 C 
ATOM      8  C   UNL     1       1.820   2.402  18.283  0.00  0.00    +0.000 C 
ATOM      9  O   UNL     1       1.426   4.449  17.305  0.00  0.00    +0.000 OA
ENDBRANCH   3   7
BRANCH   1  11
ATOM     10  C   UNL     1       6.068   3.902  14.527  0.00  0.00    +0.000 C 
ATOM     11  C   UNL     1       6.829   4.512  15.702  0.00  0.00    +0.000 C 
ENDBRANCH   1  11
BRANCH   4  12
ATOM     12  O   UNL     1       3.452   5.110  20.239  0.00  0.00    +0.000 OA
ATOM     13  H   UNL     1       3.667   4.890  21.148  0.00  0.00    +0.000 HD
ENDBRANCH   4  12
BRANCH   6  14
ATOM     14  O   UNL     1       7.703   5.639  18.265  0.00  0.00    +0.000 OA
BRANCH  14  15
ATOM     15  C   UNL     1       8.040   6.941  18.619  0.00  0.00    +0.000 C 
BRANCH  15  16
ATOM     16  C   UNL     1       7.614   7.977  17.580  0.00  0.00    +0.000 C 
BRANCH  16  17
ATOM     17  C   UNL     1       8.356   9.317  17.677  0.00  0.00    +0.000 C 
BRANCH  17  18
ATOM     18  C   UNL     1       8.850   9.699  19.094  0.00  0.00    +0.000 C 
BRANCH  18  19
ATOM     19  N   UNL     1       9.962  10.677  19.012  0.00  0.00    +0.000 NA
ATOM     20  C   UNL     1      10.260  11.389  20.274  0.00  0.00    +0.000 C 
ATOM     21  C   UNL     1       9.236  12.499  20.543  0.00  0.00    +0.000 C 
ATOM     22  O   UNL     1       9.242  13.433  19.483  0.00  0.00    +0.000 OA
ATOM     23  C   UNL     1       8.835  12.792  18.290  0.00  0.00    +0.000 C 
ATOM     24  C   UNL     1       9.808  11.657  17.914  0.00  0.00    +0.000 C 
ENDBRANCH  18  19
ENDBRANCH  17  18
ENDBRANCH  16  17
ENDBRANCH  15  16
ENDBRANCH  14  15
ENDBRANCH   6  14
TORSDOF 9
ENDMDL
MODEL 4
REMARK VINA RESULT:      -6.9      2.004      2.906
REMARK  Name = 
REMARK  11 active torsions:
REMARK  status: ('A' for Active; 'I' for Inactive)
REMARK    1  A    between atoms: C_1  and  C_2
REMARK    2  A    between atoms: C_2  and  C_3
REMARK    3  A    between atoms: C_5  and  C_6
REMARK    4  A    between atoms: C_6  and  C_7
REMARK    5  A    between atoms: C_9  and  O_10
REMARK    6  A    between atoms: C_12  and  O_13
REMARK    7  A    between atoms: O_13  and  C_14
REMARK    8  A    between atoms: C_14  and  C_15
REMARK    9  A    between atoms: C_15  and  C_16
REMARK   10  A    between atoms: C_16  and  C_17
REMARK   11  A    between atoms: C_17  and  N_18
REMARK                            x       y       z     vdW  Elec       q    Type
REMARK                         _______ _______ _______ _____ _____    ______ ____
ROOT
ATOM      1  C   UNL     1       3.836   6.493  17.974  0.00  0.00    +0.000 A 
ATOM      2  C   UNL     1       2.920   5.561  18.504  0.00  0.00    +0.000 A 
ATOM      3  C   UNL     1       3.319   4.291  19.000  0.00  0.00    +0.000 A 
ATOM      4  C   UNL     1       4.712   3.987  18.949  0.00  0.00    +0.000 A 
ATOM      5  C   UNL     1       5.605   4.897  18.396  0.00  0.00    +0.000 A 
ATOM      6  C   UNL     1       5.204   6.151  17.897  0.00  0.00    +0.000 A 
ENDROOT
BRANCH   3   7
ATOM      7  C   UNL     1       2.293   3.327  19.549  0.00  0.00    +0.000 C 
ATOM      8  C   UNL     1       1.037   3.724  20.288  0.00  0.00    +0.000 C 
ATOM      9  O   UNL     1       2.428   2.129  19.383  0.00  0.00    +0.000 OA
ENDBRANCH   3   7
BRANCH   1  11
ATOM     10  C   UNL     1       2.073   8.260  18.293  0.00  0.00    +0.000 C 
ATOM     11  C   UNL     1       3.313   7.839  17.505  0.00  0.00    +0.000 C 
ENDBRANCH   1  11
BRANCH   4  12
ATOM     12  O   UNL     1       5.270   2.850  19.409  0.00  0.00    +0.000 OA
ATOM     13  H   UNL     1       5.653   2.129  18.904  0.00  0.00    +0.000 HD
ENDBRANCH   4  12
BRANCH   6  14
ATOM     14  O   UNL     1       6.123   7.012  17.361  0.00  0.00    +0.000 OA
BRANCH  14  15
ATOM     15  C   UNL     1       7.497   6.806  17.430  0.00  0.00    +0.000 C 
BRANCH  15  16
ATOM     16  C   UNL     1       8.208   7.796  18.352  0.00  0.00    +0.000 C 
BRANCH  16  17
ATOM     17  C   UNL     1       8.064   9.266  17.938  0.00  0.00    +0.000 C 
BRANCH  17  18
ATOM     18  C   UNL     1       9.289  10.162  18.242  0.00  0.00    +0.000 C 
BRANCH  18  19
ATOM     19  N   UNL     1       8.896  11.307  19.100  0.00  0.00    +0.000 NA
ATOM     20  C   UNL     1       9.055  12.638  18.471  0.00  0.00    +0.000 C 
ATOM     21  C   UNL     1      10.523  13.080  18.465  0.00  0.00    +0.000 C 
ATOM     22  O   UNL     1      11.020  13.140  19.786  0.00  0.00    +0.000 OA
ATOM     23  C   UNL     1      10.992  11.847  20.357  0.00  0.00    +0.000 C 
ATOM     24  C   UNL     1       9.551  11.304  20.427  0.00  0.00    +0.000 C 
ENDBRANCH  18  19
ENDBRANCH  17  18
ENDBRANCH  16  17
ENDBRANCH  15  16
ENDBRANCH  14  15
ENDBRANCH   6  14
TORSDOF 9
ENDMDL
MODEL 5
REMARK VINA RESULT:      -6.9      5.098      7.253
REMARK  Name = 
REMARK  11 active torsions:
REMARK  status: ('A' for Active; 'I' for Inactive)
REMARK    1  A    between atoms: C_1  and  C_2
REMARK    2  A    between atoms: C_2  and  C_3
REMARK    3  A    between atoms: C_5  and  C_6
REMARK    4  A    between atoms: C_6  and  C_7
REMARK    5  A    between atoms: C_9  and  O_10
REMARK    6  A    between atoms: C_12  and  O_13
REMARK    7  A    between atoms: O_13  and  C_14
REMARK    8  A    between atoms: C_14  and  C_15
REMARK    9  A    between atoms: C_15  and  C_16
REMARK   10  A    between atoms: C_16  and  C_17
REMARK   11  A    between atoms: C_17  and  N_18
REMARK                            x       y       z     vdW  Elec       q    Type
REMARK                         _______ _______ _______ _____ _____    ______ ____
ROOT
ATOM      1  C   UNL     1       4.065   4.179  17.159  0.00  0.00    +0.000 A 
ATOM      2  C   UNL     1       4.866   4.059  16.004  0.00  0.00    +0.000 A 
ATOM      3  C   UNL     1       5.947   4.938  15.727  0.00  0.00    +0.000 A 
ATOM      4  C   UNL     1       6.205   5.965  16.683  0.00  0.00    +0.000 A 
ATOM      5  C   UNL     1       5.392   6.097  17.803  0.00  0.00    +0.000 A 
ATOM      6  C   UNL     1       4.316   5.229  18.069  0.00  0.00    +0.000 A 
ENDROOT
BRANCH   3   7
ATOM      7  C   UNL     1       6.767   4.769  14.469  0.00  0.00    +0.000 C 
ATOM      8  C   UNL     1       6.403   3.873  13.309  0.00  0.00    +0.000 C 
ATOM      9  O   UNL     1       7.793   5.405  14.317  0.00  0.00    +0.000 OA
ENDBRANCH   3   7
BRANCH   1  11
ATOM     10  C   UNL     1       3.481   1.912  18.083  0.00  0.00    +0.000 C 
ATOM     11  C   UNL     1       2.958   3.165  17.382  0.00  0.00    +0.000 C 
ENDBRANCH   1  11
BRANCH   4  12
ATOM     12  O   UNL     1       7.210   6.860  16.601  0.00  0.00    +0.000 OA
ATOM     13  H   UNL     1       7.202   7.727  16.189  0.00  0.00    +0.000 HD
ENDBRANCH   4  12
BRANCH   6  14
ATOM     14  O   UNL     1       3.544   5.402  19.186  0.00  0.00    +0.000 OA
BRANCH  14  15
ATOM     15  C   UNL     1       2.304   6.031  19.169  0.00  0.00    +0.000 C 
BRANCH  15  16
ATOM     16  C   UNL     1       2.400   7.554  19.252  0.00  0.00    +0.000 C 
BRANCH  16  17
ATOM     17  C   UNL     1       1.982   8.288  17.971  0.00  0.00    +0.000 C 
BRANCH  17  18
ATOM     18  C   UNL     1       1.526   9.754  18.168  0.00  0.00    +0.000 C 
BRANCH  18  19
ATOM     19  N   UNL     1       0.450   9.832  19.187  0.00  0.00    +0.000 NA
ATOM     20  C   UNL     1      -0.863  10.281  18.673  0.00  0.00    +0.000 C 
ATOM     21  C   UNL     1      -0.887  11.799  18.456  0.00  0.00    +0.000 C 
ATOM     22  O   UNL     1      -0.623  12.469  19.672  0.00  0.00    +0.000 OA
ATOM     23  C   UNL     1       0.682  12.147  20.111  0.00  0.00    +0.000 C 
ATOM     24  C   UNL     1       0.818  10.635  20.375  0.00  0.00    +0.000 C 
ENDBRANCH  18  19
ENDBRANCH  17  18
ENDBRANCH  16  17
ENDBRANCH  15  16
ENDBRANCH  14  15
ENDBRANCH   6  14
TORSDOF 9
ENDMDL
MODEL 6
REMARK VINA RESULT:      -6.9      1.151      1.590
REMARK  Name = 
REMARK  11 active torsions:
REMARK  status: ('A' for Active; 'I' for Inactive)
REMARK    1  A    between atoms: C_1  and  C_2
REMARK    2  A    between atoms: C_2  and  C_3
REMARK    3  A    between atoms: C_5  and  C_6
REMARK    4  A    between atoms: C_6  and  C_7
REMARK    5  A    between atoms: C_9  and  O_10
REMARK    6  A    between atoms: C_12  and  O_13
REMARK    7  A    between atoms: O_13  and  C_14
REMARK    8  A    between atoms: C_14  and  C_15
REMARK    9  A    between atoms: C_15  and  C_16
REMARK   10  A    between atoms: C_16  and  C_17
REMARK   11  A    between atoms: C_17  and  N_18
REMARK                            x       y       z     vdW  Elec       q    Type
REMARK                         _______ _______ _______ _____ _____    ______ ____
ROOT
ATOM      1  C   UNL     1       5.884   4.476  16.722  0.00  0.00    +0.000 A 
ATOM      2  C   UNL     1       4.594   3.918  16.843  0.00  0.00    +0.000 A 
ATOM      3  C   UNL     1       3.745   4.185  17.951  0.00  0.00    +0.000 A 
ATOM      4  C   UNL     1       4.252   5.063  18.956  0.00  0.00    +0.000 A 
ATOM      5  C   UNL     1       5.537   5.582  18.845  0.00  0.00    +0.000 A 
ATOM      6  C   UNL     1       6.378   5.308  17.750  0.00  0.00    +0.000 A 
ENDROOT
BRANCH   3   7
ATOM      7  C   UNL     1       2.375   3.554  18.035  0.00  0.00    +0.000 C 
ATOM      8  C   UNL     1       2.107   2.070  18.124  0.00  0.00    +0.000 C 
ATOM      9  O   UNL     1       1.379   4.253  18.065  0.00  0.00    +0.000 OA
ENDBRANCH   3   7
BRANCH   1  11
ATOM     10  C   UNL     1       5.844   4.254  14.215  0.00  0.00    +0.000 C 
ATOM     11  C   UNL     1       6.697   4.158  15.480  0.00  0.00    +0.000 C 
ENDBRANCH   1  11
BRANCH   4  12
ATOM     12  O   UNL     1       3.572   5.455  20.051  0.00  0.00    +0.000 OA
ATOM     13  H   UNL     1       3.227   4.912  20.763  0.00  0.00    +0.000 HD
ENDBRANCH   4  12
BRANCH   6  14
ATOM     14  O   UNL     1       7.635   5.843  17.689  0.00  0.00    +0.000 OA
BRANCH  14  15
ATOM     15  C   UNL     1       8.004   7.010  18.351  0.00  0.00    +0.000 C 
BRANCH  15  16
ATOM     16  C   UNL     1       8.156   8.210  17.418  0.00  0.00    +0.000 C 
BRANCH  16  17
ATOM     17  C   UNL     1       7.961   9.572  18.097  0.00  0.00    +0.000 C 
BRANCH  17  18
ATOM     18  C   UNL     1       9.152  10.057  18.959  0.00  0.00    +0.000 C 
BRANCH  18  19
ATOM     19  N   UNL     1       9.494  11.463  18.631  0.00  0.00    +0.000 NA
ATOM     20  C   UNL     1      10.826  11.651  18.015  0.00  0.00    +0.000 C 
ATOM     21  C   UNL     1      11.942  11.571  19.065  0.00  0.00    +0.000 C 
ATOM     22  O   UNL     1      11.754  12.565  20.051  0.00  0.00    +0.000 OA
ATOM     23  C   UNL     1      10.540  12.322  20.736  0.00  0.00    +0.000 C 
ATOM     24  C   UNL     1       9.339  12.392  19.772  0.00  0.00    +0.000 C 
ENDBRANCH  18  19
ENDBRANCH  17  18
ENDBRANCH  16  17
ENDBRANCH  15  16
ENDBRANCH  14  15
ENDBRANCH   6  14
TORSDOF 9
ENDMDL
MODEL 7
REMARK VINA RESULT:      -6.8      1.037      1.067
REMARK  Name = 
REMARK  11 active torsions:
REMARK  status: ('A' for Active; 'I' for Inactive)
REMARK    1  A    between atoms: C_1  and  C_2
REMARK    2  A    between atoms: C_2  and  C_3
REMARK    3  A    between atoms: C_5  and  C_6
REMARK    4  A    between atoms: C_6  and  C_7
REMARK    5  A    between atoms: C_9  and  O_10
REMARK    6  A    between atoms: C_12  and  O_13
REMARK    7  A    between atoms: O_13  and  C_14
REMARK    8  A    between atoms: C_14  and  C_15
REMARK    9  A    between atoms: C_15  and  C_16
REMARK   10  A    between atoms: C_16  and  C_17
REMARK   11  A    between atoms: C_17  and  N_18
REMARK                            x       y       z     vdW  Elec       q    Type
REMARK                         _______ _______ _______ _____ _____    ______ ____
ROOT
ATOM      1  C   UNL     1       5.730   4.803  16.444  0.00  0.00    +0.000 A 
ATOM      2  C   UNL     1       4.912   3.708  16.790  0.00  0.00    +0.000 A 
ATOM      3  C   UNL     1       3.956   3.767  17.840  0.00  0.00    +0.000 A 
ATOM      4  C   UNL     1       3.844   5.005  18.542  0.00  0.00    +0.000 A 
ATOM      5  C   UNL     1       4.676   6.069  18.216  0.00  0.00    +0.000 A 
ATOM      6  C   UNL     1       5.629   6.003  17.182  0.00  0.00    +0.000 A 
ENDROOT
BRANCH   3   7
ATOM      7  C   UNL     1       3.111   2.560  18.174  0.00  0.00    +0.000 C 
ATOM      8  C   UNL     1       1.601   2.547  18.233  0.00  0.00    +0.000 C 
ATOM      9  O   UNL     1       3.637   1.485  18.392  0.00  0.00    +0.000 OA
ENDBRANCH   3   7
BRANCH   1  11
ATOM     10  C   UNL     1       5.981   4.140  14.029  0.00  0.00    +0.000 C 
ATOM     11  C   UNL     1       6.694   4.649  15.281  0.00  0.00    +0.000 C 
ENDBRANCH   1  11
BRANCH   4  12
ATOM     12  O   UNL     1       2.967   5.251  19.535  0.00  0.00    +0.000 OA
ATOM     13  H   UNL     1       2.645   6.099  19.848  0.00  0.00    +0.000 HD
ENDBRANCH   4  12
BRANCH   6  14
ATOM     14  O   UNL     1       6.426   7.080  16.901  0.00  0.00    +0.000 OA
BRANCH  14  15
ATOM     15  C   UNL     1       7.584   7.380  17.610  0.00  0.00    +0.000 C 
BRANCH  15  16
ATOM     16  C   UNL     1       7.918   8.871  17.615  0.00  0.00    +0.000 C 
BRANCH  16  17
ATOM     17  C   UNL     1       8.895   9.300  18.717  0.00  0.00    +0.000 C 
BRANCH  17  18
ATOM     18  C   UNL     1       9.113  10.827  18.849  0.00  0.00    +0.000 C 
BRANCH  18  19
ATOM     19  N   UNL     1      10.543  11.128  19.107  0.00  0.00    +0.000 NA
ATOM     20  C   UNL     1      10.806  11.868  20.362  0.00  0.00    +0.000 C 
ATOM     21  C   UNL     1      10.467  13.356  20.212  0.00  0.00    +0.000 C 
ATOM     22  O   UNL     1      11.239  13.930  19.177  0.00  0.00    +0.000 OA
ATOM     23  C   UNL     1      10.904  13.316  17.948  0.00  0.00    +0.000 C 
ATOM     24  C   UNL     1      11.218  11.808  17.979  0.00  0.00    +0.000 C 
ENDBRANCH  18  19
ENDBRANCH  17  18
ENDBRANCH  16  17
ENDBRANCH  15  16
ENDBRANCH  14  15
ENDBRANCH   6  14
TORSDOF 9
ENDMDL
MODEL 8
REMARK VINA RESULT:      -6.8      5.695      8.662
REMARK  Name = 
REMARK  11 active torsions:
REMARK  status: ('A' for Active; 'I' for Inactive)
REMARK    1  A    between atoms: C_1  and  C_2
REMARK    2  A    between atoms: C_2  and  C_3
REMARK    3  A    between atoms: C_5  and  C_6
REMARK    4  A    between atoms: C_6  and  C_7
REMARK    5  A    between atoms: C_9  and  O_10
REMARK    6  A    between atoms: C_12  and  O_13
REMARK    7  A    between atoms: O_13  and  C_14
REMARK    8  A    between atoms: C_14  and  C_15
REMARK    9  A    between atoms: C_15  and  C_16
REMARK   10  A    between atoms: C_16  and  C_17
REMARK   11  A    between atoms: C_17  and  N_18
REMARK                            x       y       z     vdW  Elec       q    Type
REMARK                         _______ _______ _______ _____ _____    ______ ____
ROOT
ATOM      1  C   UNL     1       4.403   6.007  17.228  0.00  0.00    +0.000 A 
ATOM      2  C   UNL     1       5.049   5.788  15.993  0.00  0.00    +0.000 A 
ATOM      3  C   UNL     1       6.315   5.151  15.893  0.00  0.00    +0.000 A 
ATOM      4  C   UNL     1       6.920   4.723  17.112  0.00  0.00    +0.000 A 
ATOM      5  C   UNL     1       6.293   4.971  18.328  0.00  0.00    +0.000 A 
ATOM      6  C   UNL     1       5.043   5.612  18.423  0.00  0.00    +0.000 A 
ENDROOT
BRANCH   3   7
ATOM      7  C   UNL     1       6.965   4.949  14.545  0.00  0.00    +0.000 C 
ATOM      8  C   UNL     1       6.438   4.048  13.452  0.00  0.00    +0.000 C 
ATOM      9  O   UNL     1       7.978   5.559  14.255  0.00  0.00    +0.000 OA
ENDBRANCH   3   7
BRANCH   1  11
ATOM     10  C   UNL     1       3.093   8.080  17.792  0.00  0.00    +0.000 C 
ATOM     11  C   UNL     1       3.034   6.663  17.223  0.00  0.00    +0.000 C 
ENDBRANCH   1  11
BRANCH   4  12
ATOM     12  O   UNL     1       8.096   4.070  17.202  0.00  0.00    +0.000 OA
ATOM     13  H   UNL     1       8.974   4.396  16.993  0.00  0.00    +0.000 HD
ENDBRANCH   4  12
BRANCH   6  14
ATOM     14  O   UNL     1       4.467   5.834  19.644  0.00  0.00    +0.000 OA
BRANCH  14  15
ATOM     15  C   UNL     1       3.766   4.861  20.348  0.00  0.00    +0.000 C 
BRANCH  15  16
ATOM     16  C   UNL     1       2.299   5.222  20.576  0.00  0.00    +0.000 C 
BRANCH  16  17
ATOM     17  C   UNL     1       1.364   4.015  20.730  0.00  0.00    +0.000 C 
BRANCH  17  18
ATOM     18  C   UNL     1       2.059   2.632  20.705  0.00  0.00    +0.000 C 
BRANCH  18  19
ATOM     19  N   UNL     1       1.656   1.869  19.498  0.00  0.00    +0.000 NA
ATOM     20  C   UNL     1       2.778   1.407  18.650  0.00  0.00    +0.000 C 
ATOM     21  C   UNL     1       3.343   2.553  17.801  0.00  0.00    +0.000 C 
ATOM     22  O   UNL     1       2.333   3.084  16.967  0.00  0.00    +0.000 OA
ATOM     23  C   UNL     1       1.311   3.644  17.767  0.00  0.00    +0.000 C 
ATOM     24  C   UNL     1       0.658   2.571  18.660  0.00  0.00    +0.000 C 
ENDBRANCH  18  19
ENDBRANCH  17  18
ENDBRANCH  16  17
ENDBRANCH  15  16
ENDBRANCH  14  15
ENDBRANCH   6  14
TORSDOF 9
ENDMDL
MODEL 9
REMARK VINA RESULT:      -6.7      1.213      1.359
REMARK  Name = 
REMARK  11 active torsions:
REMARK  status: ('A' for Active; 'I' for Inactive)
REMARK    1  A    between atoms: C_1  and  C_2
REMARK    2  A    between atoms: C_2  and  C_3
REMARK    3  A    between atoms: C_5  and  C_6
REMARK    4  A    between atoms: C_6  and  C_7
REMARK    5  A    between atoms: C_9  and  O_10
REMARK    6  A    between atoms: C_12  and  O_13
REMARK    7  A    between atoms: O_13  and  C_14
REMARK    8  A    between atoms: C_14  and  C_15
REMARK    9  A    between atoms: C_15  and  C_16
REMARK   10  A    between atoms: C_16  and  C_17
REMARK   11  A    between atoms: C_17  and  N_18
REMARK                            x       y       z     vdW  Elec       q    Type
REMARK                         _______ _______ _______ _____ _____    ______ ____
ROOT
ATOM      1  C   UNL     1       5.355   5.181  16.157  0.00  0.00    +0.000 A 
ATOM      2  C   UNL     1       4.527   4.105  16.542  0.00  0.00    +0.000 A 
ATOM      3  C   UNL     1       3.913   4.030  17.821  0.00  0.00    +0.000 A 
ATOM      4  C   UNL     1       4.164   5.109  18.721  0.00  0.00    +0.000 A 
ATOM      5  C   UNL     1       5.007   6.149  18.347  0.00  0.00    +0.000 A 
ATOM      6  C   UNL     1       5.620   6.214  17.082  0.00  0.00    +0.000 A 
ENDROOT
BRANCH   3   7
ATOM      7  C   UNL     1       3.042   2.850  18.183  0.00  0.00    +0.000 C 
ATOM      8  C   UNL     1       1.540   2.895  18.335  0.00  0.00    +0.000 C 
ATOM      9  O   UNL     1       3.537   1.750  18.347  0.00  0.00    +0.000 OA
ENDBRANCH   3   7
BRANCH   1  11
ATOM     10  C   UNL     1       6.109   3.765  14.218  0.00  0.00    +0.000 C 
ATOM     11  C   UNL     1       5.932   5.185  14.753  0.00  0.00    +0.000 C 
ENDBRANCH   1  11
BRANCH   4  12
ATOM     12  O   UNL     1       3.635   5.221  19.956  0.00  0.00    +0.000 OA
ATOM     13  H   UNL     1       2.724   5.088  20.227  0.00  0.00    +0.000 HD
ENDBRANCH   4  12
BRANCH   6  14
ATOM     14  O   UNL     1       6.443   7.260  16.762  0.00  0.00    +0.000 OA
BRANCH  14  15
ATOM     15  C   UNL     1       7.556   7.616  17.516  0.00  0.00    +0.000 C 
BRANCH  15  16
ATOM     16  C   UNL     1       7.790   9.125  17.568  0.00  0.00    +0.000 C 
BRANCH  16  17
ATOM     17  C   UNL     1       8.841   9.570  18.593  0.00  0.00    +0.000 C 
BRANCH  17  18
ATOM     18  C   UNL     1       9.549  10.910  18.276  0.00  0.00    +0.000 C 
BRANCH  18  19
ATOM     19  N   UNL     1       9.393  11.862  19.403  0.00  0.00    +0.000 NA
ATOM     20  C   UNL     1       9.170  13.269  19.003  0.00  0.00    +0.000 C 
ATOM     21  C   UNL     1      10.478  13.934  18.555  0.00  0.00    +0.000 C 
ATOM     22  O   UNL     1      11.423  13.905  19.604  0.00  0.00    +0.000 OA
ATOM     23  C   UNL     1      11.742  12.562  19.912  0.00  0.00    +0.000 C 
ATOM     24  C   UNL     1      10.494  11.795  20.390  0.00  0.00    +0.000 C 
ENDBRANCH  18  19
ENDBRANCH  17  18
ENDBRANCH  16  17
ENDBRANCH  15  16
ENDBRANCH  14  15
ENDBRANCH   6  14
TORSDOF 9
ENDMDL
