MODEL 1
REMARK VINA RESULT:      -7.7      0.000      0.000
REMARK  Name = 
REMARK  8 active torsions:
REMARK  status: ('A' for Active; 'I' for Inactive)
REMARK    1  A    between atoms: C_1  and  N_2
REMARK    2  A    between atoms: C_12  and  C_13
REMARK    3  A    between atoms: C_13  and  C_14
REMARK    4  A    between atoms: C_14  and  C_15
REMARK    5  A    between atoms: C_15  and  N_16
REMARK    6  A    between atoms: N_16  and  C_17
REMARK    7  A    between atoms: C_17  and  C_18
REMARK    8  A    between atoms: C_18  and  O_19
REMARK                            x       y       z     vdW  Elec       q    Type
REMARK                         _______ _______ _______ _____ _____    ______ ____
ROOT
ATOM      1  C   UNL     1       8.190   4.353  17.625  0.00  0.00    +0.000 C 
ATOM      2  N   UNL     1       6.960   4.576  16.903  0.00  0.00    +0.000 N 
ATOM      3  C   UNL     1       7.060   4.561  15.479  0.00  0.00    +0.000 A 
ATOM      4  C   UNL     1       5.810   4.046  15.160  0.00  0.00    +0.000 A 
ATOM      5  C   UNL     1       5.113   4.998  15.950  0.00  0.00    +0.000 A 
ATOM      6  C   UNL     1       4.660   6.312  15.670  0.00  0.00    +0.000 A 
ATOM      7  C   UNL     1       4.398   7.198  16.698  0.00  0.00    +0.000 A 
ATOM      8  C   UNL     1       4.323   6.685  17.980  0.00  0.00    +0.000 A 
ATOM      9  C   UNL     1       3.358   7.322  18.777  0.00  0.00    +0.000 A 
ATOM     10  N   UNL     1       2.721   8.539  18.675  0.00  0.00    +0.000 N 
ATOM     11  C   UNL     1       1.614   8.618  19.507  0.00  0.00    +0.000 A 
ATOM     12  C   UNL     1       0.684   9.676  19.635  0.00  0.00    +0.000 A 
ATOM     13  C   UNL     1      -0.331   9.483  20.585  0.00  0.00    +0.000 A 
ATOM     14  C   UNL     1      -0.426   8.308  21.332  0.00  0.00    +0.000 A 
ATOM     15  C   UNL     1       0.499   7.269  21.157  0.00  0.00    +0.000 A 
ATOM     16  C   UNL     1       1.553   7.410  20.232  0.00  0.00    +0.000 A 
ATOM     17  C   UNL     1       2.658   6.670  19.733  0.00  0.00    +0.000 A 
ATOM     18  C   UNL     1       2.918   5.295  19.973  0.00  0.00    +0.000 A 
ATOM     19  C   UNL     1       4.070   4.731  19.294  0.00  0.00    +0.000 A 
ATOM     20  C   UNL     1       4.856   5.393  18.324  0.00  0.00    +0.000 A 
ATOM     21  C   UNL     1       5.585   4.741  17.265  0.00  0.00    +0.000 A 
ATOM     22  C   UNL     1       4.133   3.350  19.694  0.00  0.00    +0.000 C 
ATOM     23  O   UNL     1       4.983   2.482  19.563  0.00  0.00    +0.000 OA
ATOM     24  N   UNL     1       2.958   3.146  20.378  0.00  0.00    +0.000 N 
ATOM     25  C   UNL     1       2.189   4.252  20.625  0.00  0.00    +0.000 C 
ATOM     26  O   UNL     1       1.129   4.197  21.237  0.00  0.00    +0.000 OA
ATOM     27  H   UNL     1       2.979   9.266  18.031  0.00  0.00    +0.000 HD
ATOM     28  H   UNL     1       2.696   2.242  20.733  0.00  0.00    +0.000 HD
ENDROOT
BRANCH  12  29
ATOM     29  C   UNL     1       0.749  10.973  18.849  0.00  0.00    +0.000 C 
BRANCH  29  30
ATOM     30  C   UNL     1      -0.255  12.064  19.263  0.00  0.00    +0.000 C 
BRANCH  30  31
ATOM     31  C   UNL     1      -0.612  13.045  18.141  0.00  0.00    +0.000 C 
BRANCH  31  32
ATOM     32  N   UNL     1      -1.419  12.363  17.114  0.00  0.00    +0.000 NA
ATOM     33  H   UNL     1      -0.825  11.670  16.657  0.00  0.00    +0.000 HD
BRANCH  32  34
ATOM     34  C   UNL     1      -2.552  11.652  17.736  0.00  0.00    +0.000 C 
BRANCH  34  35
ATOM     35  C   UNL     1      -3.541  11.125  16.687  0.00  0.00    +0.000 C 
BRANCH  35  36
ATOM     36  O   UNL     1      -3.160  11.540  15.378  0.00  0.00    +0.000 OA
ATOM     37  H   UNL     1      -3.878  11.253  14.788  0.00  0.00    +0.000 HD
ENDBRANCH  35  36
ENDBRANCH  34  35
ENDBRANCH  32  34
ENDBRANCH  31  32
ENDBRANCH  30  31
ENDBRANCH  29  30
ENDBRANCH  12  29
TORSDOF 7
ENDMDL
MODEL 2
REMARK VINA RESULT:      -7.4      3.250      9.124
REMARK  Name = 
REMARK  8 active torsions:
REMARK  status: ('A' for Active; 'I' for Inactive)
REMARK    1  A    between atoms: C_1  and  N_2
REMARK    2  A    between atoms: C_12  and  C_13
REMARK    3  A    between atoms: C_13  and  C_14
REMARK    4  A    between atoms: C_14  and  C_15
REMARK    5  A    between atoms: C_15  and  N_16
REMARK    6  A    between atoms: N_16  and  C_17
REMARK    7  A    between atoms: C_17  and  C_18
REMARK    8  A    between atoms: C_18  and  O_19
REMARK                            x       y       z     vdW  Elec       q    Type
REMARK                         _______ _______ _______ _____ _____    ______ ____
ROOT
ATOM      1  C   UNL     1      -0.600  16.659  18.321  0.00  0.00    +0.000 C 
ATOM      2  N   UNL     1       0.630  16.086  18.814  0.00  0.00    +0.000 N 
ATOM      3  C   UNL     1       1.812  16.854  18.588  0.00  0.00    +0.000 A 
ATOM      4  C   UNL     1       2.539  16.505  19.718  0.00  0.00    +0.000 A 
ATOM      5  C   UNL     1       2.382  15.111  19.504  0.00  0.00    +0.000 A 
ATOM      6  C   UNL     1       3.118  14.183  18.726  0.00  0.00    +0.000 A 
ATOM      7  C   UNL     1       2.543  12.991  18.324  0.00  0.00    +0.000 A 
ATOM      8  C   UNL     1       1.356  12.619  18.929  0.00  0.00    +0.000 A 
ATOM      9  C   UNL     1       1.245  11.233  19.125  0.00  0.00    +0.000 A 
ATOM     10  N   UNL     1       1.889  10.156  18.556  0.00  0.00    +0.000 N 
ATOM     11  C   UNL     1       1.689   8.990  19.280  0.00  0.00    +0.000 A 
ATOM     12  C   UNL     1       2.232   7.706  19.044  0.00  0.00    +0.000 A 
ATOM     13  C   UNL     1       1.828   6.700  19.937  0.00  0.00    +0.000 A 
ATOM     14  C   UNL     1       0.966   6.965  21.002  0.00  0.00    +0.000 A 
ATOM     15  C   UNL     1       0.470   8.258  21.220  0.00  0.00    +0.000 A 
ATOM     16  C   UNL     1       0.824   9.306  20.347  0.00  0.00    +0.000 A 
ATOM     17  C   UNL     1       0.591  10.698  20.181  0.00  0.00    +0.000 A 
ATOM     18  C   UNL     1      -0.036  11.557  21.122  0.00  0.00    +0.000 A 
ATOM     19  C   UNL     1      -0.095  12.963  20.768  0.00  0.00    +0.000 A 
ATOM     20  C   UNL     1       0.534  13.555  19.648  0.00  0.00    +0.000 A 
ATOM     21  C   UNL     1       0.975  14.925  19.577  0.00  0.00    +0.000 A 
ATOM     22  C   UNL     1      -0.773  13.620  21.853  0.00  0.00    +0.000 C 
ATOM     23  O   UNL     1      -1.236  14.743  21.990  0.00  0.00    +0.000 OA
ATOM     24  N   UNL     1      -0.877  12.648  22.820  0.00  0.00    +0.000 N 
ATOM     25  C   UNL     1      -0.499  11.381  22.463  0.00  0.00    +0.000 C 
ATOM     26  O   UNL     1      -0.561  10.431  23.234  0.00  0.00    +0.000 OA
ATOM     27  H   UNL     1       2.489  10.210  17.752  0.00  0.00    +0.000 HD
ATOM     28  H   UNL     1      -1.265  12.838  23.729  0.00  0.00    +0.000 HD
ENDROOT
BRANCH  12  29
ATOM     29  C   UNL     1       3.167   7.368  17.897  0.00  0.00    +0.000 C 
BRANCH  29  30
ATOM     30  C   UNL     1       3.426   5.870  17.656  0.00  0.00    +0.000 C 
BRANCH  30  31
ATOM     31  C   UNL     1       4.650   5.579  16.780  0.00  0.00    +0.000 C 
BRANCH  31  32
ATOM     32  N   UNL     1       5.565   4.662  17.482  0.00  0.00    +0.000 NA
ATOM     33  H   UNL     1       5.141   3.734  17.482  0.00  0.00    +0.000 HD
BRANCH  32  34
ATOM     34  C   UNL     1       6.854   4.573  16.770  0.00  0.00    +0.000 C 
BRANCH  34  35
ATOM     35  C   UNL     1       6.683   4.759  15.255  0.00  0.00    +0.000 C 
BRANCH  35  36
ATOM     36  O   UNL     1       7.806   5.438  14.698  0.00  0.00    +0.000 OA
ATOM     37  H   UNL     1       8.154   6.002  15.409  0.00  0.00    +0.000 HD
ENDBRANCH  35  36
ENDBRANCH  34  35
ENDBRANCH  32  34
ENDBRANCH  31  32
ENDBRANCH  30  31
ENDBRANCH  29  30
ENDBRANCH  12  29
TORSDOF 7
ENDMDL
MODEL 3
REMARK VINA RESULT:      -7.4      3.214      9.193
REMARK  Name = 
REMARK  8 active torsions:
REMARK  status: ('A' for Active; 'I' for Inactive)
REMARK    1  A    between atoms: C_1  and  N_2
REMARK    2  A    between atoms: C_12  and  C_13
REMARK    3  A    between atoms: C_13  and  C_14
REMARK    4  A    between atoms: C_14  and  C_15
REMARK    5  A    between atoms: C_15  and  N_16
REMARK    6  A    between atoms: N_16  and  C_17
REMARK    7  A    between atoms: C_17  and  C_18
REMARK    8  A    between atoms: C_18  and  O_19
REMARK                            x       y       z     vdW  Elec       q    Type
REMARK                         _______ _______ _______ _____ _____    ______ ____
ROOT
ATOM      1  C   UNL     1      -0.731  17.016  18.068  0.00  0.00    +0.000 C 
ATOM      2  N   UNL     1       0.519  16.461  18.534  0.00  0.00    +0.000 N 
ATOM      3  C   UNL     1       1.690  17.216  18.227  0.00  0.00    +0.000 A 
ATOM      4  C   UNL     1       2.463  16.913  19.340  0.00  0.00    +0.000 A 
ATOM      5  C   UNL     1       2.297  15.511  19.189  0.00  0.00    +0.000 A 
ATOM      6  C   UNL     1       3.000  14.551  18.419  0.00  0.00    +0.000 A 
ATOM      7  C   UNL     1       2.409  13.345  18.091  0.00  0.00    +0.000 A 
ATOM      8  C   UNL     1       1.247  13.000  18.759  0.00  0.00    +0.000 A 
ATOM      9  C   UNL     1       1.144  11.623  19.016  0.00  0.00    +0.000 A 
ATOM     10  N   UNL     1       1.764  10.523  18.466  0.00  0.00    +0.000 N 
ATOM     11  C   UNL     1       1.593   9.388  19.244  0.00  0.00    +0.000 A 
ATOM     12  C   UNL     1       2.126   8.094  19.039  0.00  0.00    +0.000 A 
ATOM     13  C   UNL     1       1.758   7.126  19.987  0.00  0.00    +0.000 A 
ATOM     14  C   UNL     1       0.942   7.436  21.076  0.00  0.00    +0.000 A 
ATOM     15  C   UNL     1       0.456   8.738  21.261  0.00  0.00    +0.000 A 
ATOM     16  C   UNL     1       0.773   9.749  20.332  0.00  0.00    +0.000 A 
ATOM     17  C   UNL     1       0.535  11.133  20.120  0.00  0.00    +0.000 A 
ATOM     18  C   UNL     1      -0.053  12.032  21.050  0.00  0.00    +0.000 A 
ATOM     19  C   UNL     1      -0.126  13.422  20.641  0.00  0.00    +0.000 A 
ATOM     20  C   UNL     1       0.456  13.966  19.473  0.00  0.00    +0.000 A 
ATOM     21  C   UNL     1       0.894  15.332  19.328  0.00  0.00    +0.000 A 
ATOM     22  C   UNL     1      -0.758  14.124  21.726  0.00  0.00    +0.000 C 
ATOM     23  O   UNL     1      -1.214  15.253  21.836  0.00  0.00    +0.000 OA
ATOM     24  N   UNL     1      -0.822  13.193  22.736  0.00  0.00    +0.000 N 
ATOM     25  C   UNL     1      -0.460  11.911  22.415  0.00  0.00    +0.000 C 
ATOM     26  O   UNL     1      -0.490  10.993  23.226  0.00  0.00    +0.000 OA
ATOM     27  H   UNL     1       2.330  10.543  17.636  0.00  0.00    +0.000 HD
ATOM     28  H   UNL     1      -1.172  13.420  23.651  0.00  0.00    +0.000 HD
ENDROOT
BRANCH  12  29
ATOM     29  C   UNL     1       3.012   7.707  17.868  0.00  0.00    +0.000 C 
BRANCH  29  30
ATOM     30  C   UNL     1       3.358   6.213  17.748  0.00  0.00    +0.000 C 
BRANCH  30  31
ATOM     31  C   UNL     1       4.806   5.873  18.118  0.00  0.00    +0.000 C 
BRANCH  31  32
ATOM     32  N   UNL     1       4.837   5.107  19.376  0.00  0.00    +0.000 NA
ATOM     33  H   UNL     1       3.988   5.325  19.898  0.00  0.00    +0.000 HD
BRANCH  32  34
ATOM     34  C   UNL     1       4.842   3.658  19.098  0.00  0.00    +0.000 C 
BRANCH  34  35
ATOM     35  C   UNL     1       3.779   2.915  19.921  0.00  0.00    +0.000 C 
BRANCH  35  36
ATOM     36  O   UNL     1       2.778   3.817  20.387  0.00  0.00    +0.000 OA
ATOM     37  H   UNL     1       3.193   4.697  20.389  0.00  0.00    +0.000 HD
ENDBRANCH  35  36
ENDBRANCH  34  35
ENDBRANCH  32  34
ENDBRANCH  31  32
ENDBRANCH  30  31
ENDBRANCH  29  30
ENDBRANCH  12  29
TORSDOF 7
ENDMDL
MODEL 4
REMARK VINA RESULT:      -7.3      0.856      1.011
REMARK  Name = 
REMARK  8 active torsions:
REMARK  status: ('A' for Active; 'I' for Inactive)
REMARK    1  A    between atoms: C_1  and  N_2
REMARK    2  A    between atoms: C_12  and  C_13
REMARK    3  A    between atoms: C_13  and  C_14
REMARK    4  A    between atoms: C_14  and  C_15
REMARK    5  A    between atoms: C_15  and  N_16
REMARK    6  A    between atoms: N_16  and  C_17
REMARK    7  A    between atoms: C_17  and  C_18
REMARK    8  A    between atoms: C_18  and  O_19
REMARK                            x       y       z     vdW  Elec       q    Type
REMARK                         _______ _______ _______ _____ _____    ______ ____
ROOT
ATOM      1  C   UNL     1       8.200   4.366  17.641  0.00  0.00    +0.000 C 
ATOM      2  N   UNL     1       6.962   4.568  16.925  0.00  0.00    +0.000 N 
ATOM      3  C   UNL     1       7.052   4.541  15.501  0.00  0.00    +0.000 A 
ATOM      4  C   UNL     1       5.806   4.009  15.197  0.00  0.00    +0.000 A 
ATOM      5  C   UNL     1       5.104   4.961  15.982  0.00  0.00    +0.000 A 
ATOM      6  C   UNL     1       4.634   6.267  15.692  0.00  0.00    +0.000 A 
ATOM      7  C   UNL     1       4.370   7.160  16.714  0.00  0.00    +0.000 A 
ATOM      8  C   UNL     1       4.310   6.658  18.002  0.00  0.00    +0.000 A 
ATOM      9  C   UNL     1       3.344   7.293  18.799  0.00  0.00    +0.000 A 
ATOM     10  N   UNL     1       2.693   8.502  18.690  0.00  0.00    +0.000 N 
ATOM     11  C   UNL     1       1.591   8.577  19.529  0.00  0.00    +0.000 A 
ATOM     12  C   UNL     1       0.651   9.625  19.654  0.00  0.00    +0.000 A 
ATOM     13  C   UNL     1      -0.355   9.431  20.614  0.00  0.00    +0.000 A 
ATOM     14  C   UNL     1      -0.431   8.262  21.372  0.00  0.00    +0.000 A 
ATOM     15  C   UNL     1       0.503   7.232  21.201  0.00  0.00    +0.000 A 
ATOM     16  C   UNL     1       1.549   7.376  20.267  0.00  0.00    +0.000 A 
ATOM     17  C   UNL     1       2.659   6.643  19.767  0.00  0.00    +0.000 A 
ATOM     18  C   UNL     1       2.935   5.273  20.018  0.00  0.00    +0.000 A 
ATOM     19  C   UNL     1       4.088   4.716  19.336  0.00  0.00    +0.000 A 
ATOM     20  C   UNL     1       4.860   5.377  18.354  0.00  0.00    +0.000 A 
ATOM     21  C   UNL     1       5.589   4.722  17.296  0.00  0.00    +0.000 A 
ATOM     22  C   UNL     1       4.169   3.339  19.749  0.00  0.00    +0.000 C 
ATOM     23  O   UNL     1       5.028   2.479  19.620  0.00  0.00    +0.000 OA
ATOM     24  N   UNL     1       3.001   3.128  20.444  0.00  0.00    +0.000 N 
ATOM     25  C   UNL     1       2.222   4.229  20.685  0.00  0.00    +0.000 C 
ATOM     26  O   UNL     1       1.167   4.168  21.306  0.00  0.00    +0.000 OA
ATOM     27  H   UNL     1       2.938   9.225  18.037  0.00  0.00    +0.000 HD
ATOM     28  H   UNL     1       2.753   2.225  20.810  0.00  0.00    +0.000 HD
ENDROOT
BRANCH  12  29
ATOM     29  C   UNL     1       0.696  10.916  18.855  0.00  0.00    +0.000 C 
BRANCH  29  30
ATOM     30  C   UNL     1      -0.654  11.426  18.320  0.00  0.00    +0.000 C 
BRANCH  30  31
ATOM     31  C   UNL     1      -1.509  10.347  17.646  0.00  0.00    +0.000 C 
BRANCH  31  32
ATOM     32  N   UNL     1      -2.287  10.937  16.543  0.00  0.00    +0.000 NA
ATOM     33  H   UNL     1      -1.753  11.720  16.166  0.00  0.00    +0.000 HD
BRANCH  32  34
ATOM     34  C   UNL     1      -2.476   9.951  15.461  0.00  0.00    +0.000 C 
BRANCH  34  35
ATOM     35  C   UNL     1      -3.607  10.360  14.507  0.00  0.00    +0.000 C 
BRANCH  35  36
ATOM     36  O   UNL     1      -3.303   9.979  13.167  0.00  0.00    +0.000 OA
ATOM     37  H   UNL     1      -3.837   9.187  12.989  0.00  0.00    +0.000 HD
ENDBRANCH  35  36
ENDBRANCH  34  35
ENDBRANCH  32  34
ENDBRANCH  31  32
ENDBRANCH  30  31
ENDBRANCH  29  30
ENDBRANCH  12  29
TORSDOF 7
ENDMDL
MODEL 5
REMARK VINA RESULT:      -7.3      3.185      8.937
REMARK  Name = 
REMARK  8 active torsions:
REMARK  status: ('A' for Active; 'I' for Inactive)
REMARK    1  A    between atoms: C_1  and  N_2
REMARK    2  A    between atoms: C_12  and  C_13
REMARK    3  A    between atoms: C_13  and  C_14
REMARK    4  A    between atoms: C_14  and  C_15
REMARK    5  A    between atoms: C_15  and  N_16
REMARK    6  A    between atoms: N_16  and  C_17
REMARK    7  A    between atoms: C_17  and  C_18
REMARK    8  A    between atoms: C_18  and  O_19
REMARK                            x       y       z     vdW  Elec       q    Type
REMARK                         _______ _______ _______ _____ _____    ______ ____
ROOT
ATOM      1  C   UNL     1      -0.591  16.674  18.242  0.00  0.00    +0.000 C 
ATOM      2  N   UNL     1       0.654  16.119  18.718  0.00  0.00    +0.000 N 
ATOM      3  C   UNL     1       1.824  16.896  18.462  0.00  0.00    +0.000 A 
ATOM      4  C   UNL     1       2.575  16.567  19.581  0.00  0.00    +0.000 A 
ATOM      5  C   UNL     1       2.428  15.169  19.385  0.00  0.00    +0.000 A 
ATOM      6  C   UNL     1       3.159  14.240  18.603  0.00  0.00    +0.000 A 
ATOM      7  C   UNL     1       2.589  13.038  18.225  0.00  0.00    +0.000 A 
ATOM      8  C   UNL     1       1.417  12.661  18.856  0.00  0.00    +0.000 A 
ATOM      9  C   UNL     1       1.323  11.276  19.069  0.00  0.00    +0.000 A 
ATOM     10  N   UNL     1       1.968  10.200  18.501  0.00  0.00    +0.000 N 
ATOM     11  C   UNL     1       1.793   9.039  19.240  0.00  0.00    +0.000 A 
ATOM     12  C   UNL     1       2.344   7.758  19.008  0.00  0.00    +0.000 A 
ATOM     13  C   UNL     1       1.967   6.758  19.919  0.00  0.00    +0.000 A 
ATOM     14  C   UNL     1       1.123   7.027  20.997  0.00  0.00    +0.000 A 
ATOM     15  C   UNL     1       0.618   8.317  21.211  0.00  0.00    +0.000 A 
ATOM     16  C   UNL     1       0.944   9.359  20.320  0.00  0.00    +0.000 A 
ATOM     17  C   UNL     1       0.695  10.746  20.143  0.00  0.00    +0.000 A 
ATOM     18  C   UNL     1       0.077  11.610  21.087  0.00  0.00    +0.000 A 
ATOM     19  C   UNL     1      -0.003  13.010  20.718  0.00  0.00    +0.000 A 
ATOM     20  C   UNL     1       0.599  13.596  19.581  0.00  0.00    +0.000 A 
ATOM     21  C   UNL     1       1.025  14.970  19.486  0.00  0.00    +0.000 A 
ATOM     22  C   UNL     1      -0.668  13.673  21.809  0.00  0.00    +0.000 C 
ATOM     23  O   UNL     1      -1.139  14.793  21.942  0.00  0.00    +0.000 OA
ATOM     24  N   UNL     1      -0.744  12.711  22.789  0.00  0.00    +0.000 N 
ATOM     25  C   UNL     1      -0.360  11.444  22.438  0.00  0.00    +0.000 C 
ATOM     26  O   UNL     1      -0.397  10.501  23.220  0.00  0.00    +0.000 OA
ATOM     27  H   UNL     1       2.552  10.250  17.685  0.00  0.00    +0.000 HD
ATOM     28  H   UNL     1      -1.117  12.906  23.702  0.00  0.00    +0.000 HD
ENDROOT
BRANCH  12  29
ATOM     29  C   UNL     1       3.261   7.417  17.847  0.00  0.00    +0.000 C 
BRANCH  29  30
ATOM     30  C   UNL     1       4.084   6.125  17.994  0.00  0.00    +0.000 C 
BRANCH  30  31
ATOM     31  C   UNL     1       4.623   5.571  16.670  0.00  0.00    +0.000 C 
BRANCH  31  32
ATOM     32  N   UNL     1       4.275   4.145  16.542  0.00  0.00    +0.000 NA
ATOM     33  H   UNL     1       5.127   3.632  16.316  0.00  0.00    +0.000 HD
BRANCH  32  34
ATOM     34  C   UNL     1       3.757   3.624  17.822  0.00  0.00    +0.000 C 
BRANCH  34  35
ATOM     35  C   UNL     1       2.331   3.074  17.680  0.00  0.00    +0.000 C 
BRANCH  35  36
ATOM     36  O   UNL     1       2.334   1.648  17.693  0.00  0.00    +0.000 OA
ATOM     37  H   UNL     1       3.238   1.387  17.938  0.00  0.00    +0.000 HD
ENDBRANCH  35  36
ENDBRANCH  34  35
ENDBRANCH  32  34
ENDBRANCH  31  32
ENDBRANCH  30  31
ENDBRANCH  29  30
ENDBRANCH  12  29
TORSDOF 7
ENDMDL
MODEL 6
REMARK VINA RESULT:      -7.2      2.881      8.816
REMARK  Name = 
REMARK  8 active torsions:
REMARK  status: ('A' for Active; 'I' for Inactive)
REMARK    1  A    between atoms: C_1  and  N_2
REMARK    2  A    between atoms: C_12  and  C_13
REMARK    3  A    between atoms: C_13  and  C_14
REMARK    4  A    between atoms: C_14  and  C_15
REMARK    5  A    between atoms: C_15  and  N_16
REMARK    6  A    between atoms: N_16  and  C_17
REMARK    7  A    between atoms: C_17  and  C_18
REMARK    8  A    between atoms: C_18  and  O_19
REMARK                            x       y       z     vdW  Elec       q    Type
REMARK                         _______ _______ _______ _____ _____    ______ ____
ROOT
ATOM      1  C   UNL     1      -0.811  15.791  18.640  0.00  0.00    +0.000 C 
ATOM      2  N   UNL     1       0.498  15.295  18.994  0.00  0.00    +0.000 N 
ATOM      3  C   UNL     1       1.587  16.189  18.769  0.00  0.00    +0.000 A 
ATOM      4  C   UNL     1       2.423  15.809  19.810  0.00  0.00    +0.000 A 
ATOM      5  C   UNL     1       2.375  14.431  19.469  0.00  0.00    +0.000 A 
ATOM      6  C   UNL     1       3.131  13.654  18.557  0.00  0.00    +0.000 A 
ATOM      7  C   UNL     1       2.636  12.455  18.077  0.00  0.00    +0.000 A 
ATOM      8  C   UNL     1       1.534  11.917  18.718  0.00  0.00    +0.000 A 
ATOM      9  C   UNL     1       1.561  10.514  18.782  0.00  0.00    +0.000 A 
ATOM     10  N   UNL     1       2.255   9.562  18.070  0.00  0.00    +0.000 N 
ATOM     11  C   UNL     1       2.212   8.319  18.686  0.00  0.00    +0.000 A 
ATOM     12  C   UNL     1       2.848   7.120  18.290  0.00  0.00    +0.000 A 
ATOM     13  C   UNL     1       2.601   6.002  19.103  0.00  0.00    +0.000 A 
ATOM     14  C   UNL     1       1.800   6.085  20.242  0.00  0.00    +0.000 A 
ATOM     15  C   UNL     1       1.208   7.298  20.619  0.00  0.00    +0.000 A 
ATOM     16  C   UNL     1       1.403   8.452  19.833  0.00  0.00    +0.000 A 
ATOM     17  C   UNL     1       1.037   9.824  19.821  0.00  0.00    +0.000 A 
ATOM     18  C   UNL     1       0.406  10.529  20.880  0.00  0.00    +0.000 A 
ATOM     19  C   UNL     1       0.198  11.949  20.671  0.00  0.00    +0.000 A 
ATOM     20  C   UNL     1       0.687  12.699  19.578  0.00  0.00    +0.000 A 
ATOM     21  C   UNL     1       0.999  14.107  19.614  0.00  0.00    +0.000 A 
ATOM     22  C   UNL     1      -0.455  12.436  21.858  0.00  0.00    +0.000 C 
ATOM     23  O   UNL     1      -1.004  13.493  22.135  0.00  0.00    +0.000 OA
ATOM     24  N   UNL     1      -0.402  11.373  22.729  0.00  0.00    +0.000 N 
ATOM     25  C   UNL     1       0.060  10.187  22.224  0.00  0.00    +0.000 C 
ATOM     26  O   UNL     1       0.140   9.167  22.900  0.00  0.00    +0.000 OA
ATOM     27  H   UNL     1       2.787   9.746  17.238  0.00  0.00    +0.000 HD
ATOM     28  H   UNL     1      -0.737  11.440  23.675  0.00  0.00    +0.000 HD
ENDROOT
BRANCH  12  29
ATOM     29  C   UNL     1       3.723   6.980  17.057  0.00  0.00    +0.000 C 
BRANCH  29  30
ATOM     30  C   UNL     1       5.242   7.010  17.300  0.00  0.00    +0.000 C 
BRANCH  30  31
ATOM     31  C   UNL     1       5.923   5.642  17.182  0.00  0.00    +0.000 C 
BRANCH  31  32
ATOM     32  N   UNL     1       7.387   5.806  17.179  0.00  0.00    +0.000 NA
ATOM     33  H   UNL     1       7.632   6.425  16.406  0.00  0.00    +0.000 HD
BRANCH  32  34
ATOM     34  C   UNL     1       7.837   6.443  18.432  0.00  0.00    +0.000 C 
BRANCH  34  35
ATOM     35  C   UNL     1       7.466   5.604  19.664  0.00  0.00    +0.000 C 
BRANCH  35  36
ATOM     36  O   UNL     1       8.630   5.258  20.410  0.00  0.00    +0.000 OA
ATOM     37  H   UNL     1       9.132   4.642  19.850  0.00  0.00    +0.000 HD
ENDBRANCH  35  36
ENDBRANCH  34  35
ENDBRANCH  32  34
ENDBRANCH  31  32
ENDBRANCH  30  31
ENDBRANCH  29  30
ENDBRANCH  12  29
TORSDOF 7
ENDMDL
MODEL 7
REMARK VINA RESULT:      -7.1      1.077      1.117
REMARK  Name = 
REMARK  8 active torsions:
REMARK  status: ('A' for Active; 'I' for Inactive)
REMARK    1  A    between atoms: C_1  and  N_2
REMARK    2  A    between atoms: C_12  and  C_13
REMARK    3  A    between atoms: C_13  and  C_14
REMARK    4  A    between atoms: C_14  and  C_15
REMARK    5  A    between atoms: C_15  and  N_16
REMARK    6  A    between atoms: N_16  and  C_17
REMARK    7  A    between atoms: C_17  and  C_18
REMARK    8  A    between atoms: C_18  and  O_19
REMARK                            x       y       z     vdW  Elec       q    Type
REMARK                         _______ _______ _______ _____ _____    ______ ____
ROOT
ATOM      1  C   UNL     1       8.232   4.296  17.689  0.00  0.00    +0.000 C 
ATOM      2  N   UNL     1       7.009   4.503  16.950  0.00  0.00    +0.000 N 
ATOM      3  C   UNL     1       7.121   4.448  15.528  0.00  0.00    +0.000 A 
ATOM      4  C   UNL     1       5.873   3.929  15.213  0.00  0.00    +0.000 A 
ATOM      5  C   UNL     1       5.173   4.905  15.970  0.00  0.00    +0.000 A 
ATOM      6  C   UNL     1       4.727   6.211  15.649  0.00  0.00    +0.000 A 
ATOM      7  C   UNL     1       4.459   7.127  16.650  0.00  0.00    +0.000 A 
ATOM      8  C   UNL     1       4.371   6.650  17.945  0.00  0.00    +0.000 A 
ATOM      9  C   UNL     1       3.402   7.313  18.715  0.00  0.00    +0.000 A 
ATOM     10  N   UNL     1       2.771   8.529  18.574  0.00  0.00    +0.000 N 
ATOM     11  C   UNL     1       1.656   8.634  19.393  0.00  0.00    +0.000 A 
ATOM     12  C   UNL     1       0.729   9.699  19.483  0.00  0.00    +0.000 A 
ATOM     13  C   UNL     1      -0.295   9.536  20.430  0.00  0.00    +0.000 A 
ATOM     14  C   UNL     1      -0.400   8.383  21.208  0.00  0.00    +0.000 A 
ATOM     15  C   UNL     1       0.522   7.336  21.071  0.00  0.00    +0.000 A 
ATOM     16  C   UNL     1       1.585   7.448  20.152  0.00  0.00    +0.000 A 
ATOM     17  C   UNL     1       2.692   6.691  19.684  0.00  0.00    +0.000 A 
ATOM     18  C   UNL     1       2.944   5.321  19.964  0.00  0.00    +0.000 A 
ATOM     19  C   UNL     1       4.100   4.735  19.311  0.00  0.00    +0.000 A 
ATOM     20  C   UNL     1       4.897   5.367  18.329  0.00  0.00    +0.000 A 
ATOM     21  C   UNL     1       5.633   4.682  17.296  0.00  0.00    +0.000 A 
ATOM     22  C   UNL     1       4.154   3.366  19.750  0.00  0.00    +0.000 C 
ATOM     23  O   UNL     1       5.003   2.491  19.650  0.00  0.00    +0.000 OA
ATOM     24  N   UNL     1       2.973   3.184  20.429  0.00  0.00    +0.000 N 
ATOM     25  C   UNL     1       2.206   4.300  20.638  0.00  0.00    +0.000 C 
ATOM     26  O   UNL     1       1.140   4.266  21.243  0.00  0.00    +0.000 OA
ATOM     27  H   UNL     1       3.037   9.236  17.912  0.00  0.00    +0.000 HD
ATOM     28  H   UNL     1       2.705   2.292  20.807  0.00  0.00    +0.000 HD
ENDROOT
BRANCH  12  29
ATOM     29  C   UNL     1       0.806  10.974  18.663  0.00  0.00    +0.000 C 
BRANCH  29  30
ATOM     30  C   UNL     1       0.456  12.276  19.405  0.00  0.00    +0.000 C 
BRANCH  30  31
ATOM     31  C   UNL     1      -0.594  13.138  18.696  0.00  0.00    +0.000 C 
BRANCH  31  32
ATOM     32  N   UNL     1      -1.729  13.395  19.600  0.00  0.00    +0.000 NA
ATOM     33  H   UNL     1      -2.210  14.232  19.271  0.00  0.00    +0.000 HD
BRANCH  32  34
ATOM     34  C   UNL     1      -2.686  12.272  19.558  0.00  0.00    +0.000 C 
BRANCH  34  35
ATOM     35  C   UNL     1      -4.114  12.727  19.892  0.00  0.00    +0.000 C 
BRANCH  35  36
ATOM     36  O   UNL     1      -4.945  12.681  18.735  0.00  0.00    +0.000 OA
ATOM     37  H   UNL     1      -5.262  11.764  18.672  0.00  0.00    +0.000 HD
ENDBRANCH  35  36
ENDBRANCH  34  35
ENDBRANCH  32  34
ENDBRANCH  31  32
ENDBRANCH  30  31
ENDBRANCH  29  30
ENDBRANCH  12  29
TORSDOF 7
ENDMDL
MODEL 8
REMARK VINA RESULT:      -6.9      2.460      3.062
REMARK  Name = 
REMARK  8 active torsions:
REMARK  status: ('A' for Active; 'I' for Inactive)
REMARK    1  A    between atoms: C_1  and  N_2
REMARK    2  A    between atoms: C_12  and  C_13
REMARK    3  A    between atoms: C_13  and  C_14
REMARK    4  A    between atoms: C_14  and  C_15
REMARK    5  A    between atoms: C_15  and  N_16
REMARK    6  A    between atoms: N_16  and  C_17
REMARK    7  A    between atoms: C_17  and  C_18
REMARK    8  A    between atoms: C_18  and  O_19
REMARK                            x       y       z     vdW  Elec       q    Type
REMARK                         _______ _______ _______ _____ _____    ______ ____
ROOT
ATOM      1  C   UNL     1       8.196   4.327  17.673  0.00  0.00    +0.000 C 
ATOM      2  N   UNL     1       6.973   4.537  16.935  0.00  0.00    +0.000 N 
ATOM      3  C   UNL     1       7.084   4.482  15.513  0.00  0.00    +0.000 A 
ATOM      4  C   UNL     1       5.834   3.966  15.199  0.00  0.00    +0.000 A 
ATOM      5  C   UNL     1       5.137   4.944  15.956  0.00  0.00    +0.000 A 
ATOM      6  C   UNL     1       4.695   6.252  15.635  0.00  0.00    +0.000 A 
ATOM      7  C   UNL     1       4.430   7.169  16.636  0.00  0.00    +0.000 A 
ATOM      8  C   UNL     1       4.342   6.692  17.931  0.00  0.00    +0.000 A 
ATOM      9  C   UNL     1       3.375   7.359  18.702  0.00  0.00    +0.000 A 
ATOM     10  N   UNL     1       2.747   8.576  18.560  0.00  0.00    +0.000 N 
ATOM     11  C   UNL     1       1.634   8.685  19.381  0.00  0.00    +0.000 A 
ATOM     12  C   UNL     1       0.710   9.752  19.471  0.00  0.00    +0.000 A 
ATOM     13  C   UNL     1      -0.314   9.593  20.419  0.00  0.00    +0.000 A 
ATOM     14  C   UNL     1      -0.422   8.440  21.198  0.00  0.00    +0.000 A 
ATOM     15  C   UNL     1       0.497   7.390  21.060  0.00  0.00    +0.000 A 
ATOM     16  C   UNL     1       1.559   7.499  20.140  0.00  0.00    +0.000 A 
ATOM     17  C   UNL     1       2.664   6.738  19.671  0.00  0.00    +0.000 A 
ATOM     18  C   UNL     1       2.913   5.368  19.951  0.00  0.00    +0.000 A 
ATOM     19  C   UNL     1       4.066   4.779  19.298  0.00  0.00    +0.000 A 
ATOM     20  C   UNL     1       4.864   5.408  18.316  0.00  0.00    +0.000 A 
ATOM     21  C   UNL     1       5.597   4.721  17.282  0.00  0.00    +0.000 A 
ATOM     22  C   UNL     1       4.117   3.410  19.738  0.00  0.00    +0.000 C 
ATOM     23  O   UNL     1       4.963   2.533  19.638  0.00  0.00    +0.000 OA
ATOM     24  N   UNL     1       2.935   3.232  20.417  0.00  0.00    +0.000 N 
ATOM     25  C   UNL     1       2.172   4.349  20.627  0.00  0.00    +0.000 C 
ATOM     26  O   UNL     1       1.107   4.318  21.232  0.00  0.00    +0.000 OA
ATOM     27  H   UNL     1       3.015   9.283  17.898  0.00  0.00    +0.000 HD
ATOM     28  H   UNL     1       2.666   2.340  20.796  0.00  0.00    +0.000 HD
ENDROOT
BRANCH  12  29
ATOM     29  C   UNL     1       0.789  11.027  18.650  0.00  0.00    +0.000 C 
BRANCH  29  30
ATOM     30  C   UNL     1       1.790  12.086  19.144  0.00  0.00    +0.000 C 
BRANCH  30  31
ATOM     31  C   UNL     1       1.260  12.967  20.280  0.00  0.00    +0.000 C 
BRANCH  31  32
ATOM     32  N   UNL     1       2.351  13.293  21.215  0.00  0.00    +0.000 NA
ATOM     33  H   UNL     1       3.000  12.506  21.228  0.00  0.00    +0.000 HD
BRANCH  32  34
ATOM     34  C   UNL     1       3.089  14.484  20.752  0.00  0.00    +0.000 C 
BRANCH  34  35
ATOM     35  C   UNL     1       3.972  15.076  21.860  0.00  0.00    +0.000 C 
BRANCH  35  36
ATOM     36  O   UNL     1       4.168  14.132  22.910  0.00  0.00    +0.000 OA
ATOM     37  H   UNL     1       3.914  13.268  22.542  0.00  0.00    +0.000 HD
ENDBRANCH  35  36
ENDBRANCH  34  35
ENDBRANCH  32  34
ENDBRANCH  31  32
ENDBRANCH  30  31
ENDBRANCH  29  30
ENDBRANCH  12  29
TORSDOF 7
ENDMDL
MODEL 9
REMARK VINA RESULT:      -6.9      3.693     10.358
REMARK  Name = 
REMARK  8 active torsions:
REMARK  status: ('A' for Active; 'I' for Inactive)
REMARK    1  A    between atoms: C_1  and  N_2
REMARK    2  A    between atoms: C_12  and  C_13
REMARK    3  A    between atoms: C_13  and  C_14
REMARK    4  A    between atoms: C_14  and  C_15
REMARK    5  A    between atoms: C_15  and  N_16
REMARK    6  A    between atoms: N_16  and  C_17
REMARK    7  A    between atoms: C_17  and  C_18
REMARK    8  A    between atoms: C_18  and  O_19
REMARK                            x       y       z     vdW  Elec       q    Type
REMARK                         _______ _______ _______ _____ _____    ______ ____
ROOT
ATOM      1  C   UNL     1      -1.424  16.053  24.723  0.00  0.00    +0.000 C 
ATOM      2  N   UNL     1      -2.183  14.981  24.123  0.00  0.00    +0.000 N 
ATOM      3  C   UNL     1      -3.397  14.628  24.785  0.00  0.00    +0.000 A 
ATOM      4  C   UNL     1      -4.156  14.237  23.690  0.00  0.00    +0.000 A 
ATOM      5  C   UNL     1      -3.166  13.343  23.204  0.00  0.00    +0.000 A 
ATOM      6  C   UNL     1      -2.881  11.988  23.509  0.00  0.00    +0.000 A 
ATOM      7  C   UNL     1      -1.631  11.458  23.248  0.00  0.00    +0.000 A 
ATOM      8  C   UNL     1      -0.781  12.193  22.442  0.00  0.00    +0.000 A 
ATOM      9  C   UNL     1       0.015  11.396  21.604  0.00  0.00    +0.000 A 
ATOM     10  N   UNL     1       0.373  10.067  21.646  0.00  0.00    +0.000 N 
ATOM     11  C   UNL     1       0.910   9.634  20.443  0.00  0.00    +0.000 A 
ATOM     12  C   UNL     1       1.334   8.333  20.087  0.00  0.00    +0.000 A 
ATOM     13  C   UNL     1       1.864   8.197  18.794  0.00  0.00    +0.000 A 
ATOM     14  C   UNL     1       1.939   9.277  17.913  0.00  0.00    +0.000 A 
ATOM     15  C   UNL     1       1.483  10.547  18.292  0.00  0.00    +0.000 A 
ATOM     16  C   UNL     1       0.958  10.752  19.584  0.00  0.00    +0.000 A 
ATOM     17  C   UNL     1       0.398  11.794  20.369  0.00  0.00    +0.000 A 
ATOM     18  C   UNL     1       0.011  13.077  19.899  0.00  0.00    +0.000 A 
ATOM     19  C   UNL     1      -0.613  13.956  20.870  0.00  0.00    +0.000 A 
ATOM     20  C   UNL     1      -0.986  13.594  22.185  0.00  0.00    +0.000 A 
ATOM     21  C   UNL     1      -2.061  14.194  22.934  0.00  0.00    +0.000 A 
ATOM     22  C   UNL     1      -0.902  15.181  20.173  0.00  0.00    +0.000 C 
ATOM     23  O   UNL     1      -1.256  16.290  20.546  0.00  0.00    +0.000 OA
ATOM     24  N   UNL     1      -0.638  14.887  18.856  0.00  0.00    +0.000 N 
ATOM     25  C   UNL     1      -0.058  13.673  18.601  0.00  0.00    +0.000 C 
ATOM     26  O   UNL     1       0.237  13.306  17.469  0.00  0.00    +0.000 OA
ATOM     27  H   UNL     1       0.208   9.456  22.427  0.00  0.00    +0.000 HD
ATOM     28  H   UNL     1      -0.806  15.548  18.116  0.00  0.00    +0.000 HD
ENDROOT
BRANCH  12  29
ATOM     29  C   UNL     1       1.277   7.130  21.011  0.00  0.00    +0.000 C 
BRANCH  29  30
ATOM     30  C   UNL     1       2.084   5.898  20.566  0.00  0.00    +0.000 C 
BRANCH  30  31
ATOM     31  C   UNL     1       1.268   4.601  20.511  0.00  0.00    +0.000 C 
BRANCH  31  32
ATOM     32  N   UNL     1       1.287   4.052  19.144  0.00  0.00    +0.000 NA
ATOM     33  H   UNL     1       0.784   4.701  18.538  0.00  0.00    +0.000 HD
BRANCH  32  34
ATOM     34  C   UNL     1       2.673   3.948  18.649  0.00  0.00    +0.000 C 
BRANCH  34  35
ATOM     35  C   UNL     1       3.064   2.494  18.347  0.00  0.00    +0.000 C 
BRANCH  35  36
ATOM     36  O   UNL     1       2.114   1.884  17.476  0.00  0.00    +0.000 OA
ATOM     37  H   UNL     1       1.241   2.084  17.854  0.00  0.00    +0.000 HD
ENDBRANCH  35  36
ENDBRANCH  34  35
ENDBRANCH  32  34
ENDBRANCH  31  32
ENDBRANCH  30  31
ENDBRANCH  29  30
ENDBRANCH  12  29
TORSDOF 7
ENDMDL
