MODEL 1
REMARK VINA RESULT:      -7.9      0.000      0.000
REMARK  Name = 
REMARK  6 active torsions:
REMARK  status: ('A' for Active; 'I' for Inactive)
REMARK    1  A    between atoms: C_2  and  C_3
REMARK    2  A    between atoms: C_2  and  C_17
REMARK    3  A    between atoms: C_3  and  S_4
REMARK    4  A    between atoms: S_4  and  C_5
REMARK    5  A    between atoms: C_8  and  C_9
REMARK    6  A    between atoms: C_12  and  O_13
REMARK                            x       y       z     vdW  Elec       q    Type
REMARK                         _______ _______ _______ _____ _____    ______ ____
ROOT
ATOM      1  C   UNL     1       7.723   7.068  18.148  0.00  0.00    +0.000 A 
ATOM      2  N   UNL     1       7.100   7.711  17.179  0.00  0.00    +0.000 NA
ATOM      3  N   UNL     1       7.559   9.016  17.218  0.00  0.00    +0.000 NA
ATOM      4  C   UNL     1       8.431   9.076  18.205  0.00  0.00    +0.000 A 
ATOM      5  O   UNL     1       8.573   7.877  18.849  0.00  0.00    +0.000 OA
ENDROOT
BRANCH   4   6
ATOM      6  C   UNL     1       9.216  10.194  18.717  0.00  0.00    +0.000 A 
ATOM      7  C   UNL     1       9.281  10.443  20.098  0.00  0.00    +0.000 A 
ATOM      8  C   UNL     1      10.047  11.501  20.603  0.00  0.00    +0.000 A 
ATOM      9  C   UNL     1      10.749  12.318  19.724  0.00  0.00    +0.000 A 
ATOM     10  C   UNL     1      10.694  12.098  18.354  0.00  0.00    +0.000 A 
ATOM     11  C   UNL     1       9.930  11.041  17.854  0.00  0.00    +0.000 A 
BRANCH   9  12
ATOM     12  O   UNL     1      11.512  13.356  20.166  0.00  0.00    +0.000 OA
ATOM     13  H   UNL     1      12.370  13.331  19.711  0.00  0.00    +0.000 HD
ENDBRANCH   9  12
ENDBRANCH   4   6
BRANCH   1  14
ATOM     14  S   UNL     1       7.488   5.397  18.558  0.00  0.00    +0.000 S 
BRANCH  14  15
ATOM     15  C   UNL     1       7.211   4.679  16.917  0.00  0.00    +0.000 C 
BRANCH  15  17
ATOM     16  O   UNL     1       5.608   5.346  15.220  0.00  0.00    +0.000 OA
ATOM     17  C   UNL     1       5.821   4.964  16.370  0.00  0.00    +0.000 C 
BRANCH  17  18
ATOM     18  C   UNL     1       4.646   4.740  17.269  0.00  0.00    +0.000 A 
ATOM     19  C   UNL     1       4.367   3.425  17.671  0.00  0.00    +0.000 A 
ATOM     20  C   UNL     1       3.299   3.153  18.531  0.00  0.00    +0.000 A 
ATOM     21  C   UNL     1       2.502   4.197  18.991  0.00  0.00    +0.000 A 
ATOM     22 BR   UNL     1       1.064   3.835  20.163  0.00  0.00    +0.000 Br
ATOM     23  C   UNL     1       2.762   5.510  18.597  0.00  0.00    +0.000 A 
ATOM     24  C   UNL     1       3.832   5.783  17.734  0.00  0.00    +0.000 A 
ENDBRANCH  17  18
ENDBRANCH  15  17
ENDBRANCH  14  15
ENDBRANCH   1  14
TORSDOF 6
ENDMDL
MODEL 2
REMARK VINA RESULT:      -7.9      0.163      1.020
REMARK  Name = 
REMARK  6 active torsions:
REMARK  status: ('A' for Active; 'I' for Inactive)
REMARK    1  A    between atoms: C_2  and  C_3
REMARK    2  A    between atoms: C_2  and  C_17
REMARK    3  A    between atoms: C_3  and  S_4
REMARK    4  A    between atoms: S_4  and  C_5
REMARK    5  A    between atoms: C_8  and  C_9
REMARK    6  A    between atoms: C_12  and  O_13
REMARK                            x       y       z     vdW  Elec       q    Type
REMARK                         _______ _______ _______ _____ _____    ______ ____
ROOT
ATOM      1  C   UNL     1       7.643   7.067  18.027  0.00  0.00    +0.000 A 
ATOM      2  N   UNL     1       6.969   7.767  17.135  0.00  0.00    +0.000 NA
ATOM      3  N   UNL     1       7.432   9.068  17.228  0.00  0.00    +0.000 NA
ATOM      4  C   UNL     1       8.357   9.068  18.168  0.00  0.00    +0.000 A 
ATOM      5  O   UNL     1       8.532   7.833  18.729  0.00  0.00    +0.000 OA
ENDROOT
BRANCH   4   6
ATOM      6  C   UNL     1       9.172  10.154  18.703  0.00  0.00    +0.000 A 
ATOM      7  C   UNL     1       9.906  10.984  17.840  0.00  0.00    +0.000 A 
ATOM      8  C   UNL     1      10.675  12.041  18.340  0.00  0.00    +0.000 A 
ATOM      9  C   UNL     1      10.716  12.269  19.711  0.00  0.00    +0.000 A 
ATOM     10  C   UNL     1      10.007  11.457  20.587  0.00  0.00    +0.000 A 
ATOM     11  C   UNL     1       9.239  10.404  20.084  0.00  0.00    +0.000 A 
BRANCH   9  12
ATOM     12  O   UNL     1      11.445  13.288  20.246  0.00  0.00    +0.000 OA
ATOM     13  H   UNL     1      10.929  13.705  20.955  0.00  0.00    +0.000 HD
ENDBRANCH   9  12
ENDBRANCH   4   6
BRANCH   1  14
ATOM     14  S   UNL     1       7.427   5.374  18.348  0.00  0.00    +0.000 S 
BRANCH  14  15
ATOM     15  C   UNL     1       7.131   4.745  16.673  0.00  0.00    +0.000 C 
BRANCH  15  17
ATOM     16  O   UNL     1       5.481   5.448  15.035  0.00  0.00    +0.000 OA
ATOM     17  C   UNL     1       5.726   5.035  16.169  0.00  0.00    +0.000 C 
BRANCH  17  18
ATOM     18  C   UNL     1       4.575   4.777  17.090  0.00  0.00    +0.000 A 
ATOM     19  C   UNL     1       4.265   3.444  17.398  0.00  0.00    +0.000 A 
ATOM     20  C   UNL     1       3.218   3.138  18.272  0.00  0.00    +0.000 A 
ATOM     21  C   UNL     1       2.474   4.167  18.842  0.00  0.00    +0.000 A 
ATOM     22 BR   UNL     1       1.066   3.758  20.034  0.00  0.00    +0.000 Br
ATOM     23  C   UNL     1       2.765   5.498  18.543  0.00  0.00    +0.000 A 
ATOM     24  C   UNL     1       3.814   5.805  17.666  0.00  0.00    +0.000 A 
ENDBRANCH  17  18
ENDBRANCH  15  17
ENDBRANCH  14  15
ENDBRANCH   1  14
TORSDOF 6
ENDMDL
MODEL 3
REMARK VINA RESULT:      -7.6      0.824      1.301
REMARK  Name = 
REMARK  6 active torsions:
REMARK  status: ('A' for Active; 'I' for Inactive)
REMARK    1  A    between atoms: C_2  and  C_3
REMARK    2  A    between atoms: C_2  and  C_17
REMARK    3  A    between atoms: C_3  and  S_4
REMARK    4  A    between atoms: S_4  and  C_5
REMARK    5  A    between atoms: C_8  and  C_9
REMARK    6  A    between atoms: C_12  and  O_13
REMARK                            x       y       z     vdW  Elec       q    Type
REMARK                         _______ _______ _______ _____ _____    ______ ____
ROOT
ATOM      1  C   UNL     1       7.930   7.234  18.237  0.00  0.00    +0.000 A 
ATOM      2  N   UNL     1       7.425   7.781  17.149  0.00  0.00    +0.000 NA
ATOM      3  N   UNL     1       7.833   9.104  17.150  0.00  0.00    +0.000 NA
ATOM      4  C   UNL     1       8.561   9.268  18.238  0.00  0.00    +0.000 A 
ATOM      5  O   UNL     1       8.651   8.124  18.983  0.00  0.00    +0.000 OA
ENDROOT
BRANCH   4   6
ATOM      6  C   UNL     1       9.234  10.450  18.765  0.00  0.00    +0.000 A 
ATOM      7  C   UNL     1       9.537  10.544  20.134  0.00  0.00    +0.000 A 
ATOM      8  C   UNL     1      10.200  11.665  20.648  0.00  0.00    +0.000 A 
ATOM      9  C   UNL     1      10.558  12.701  19.792  0.00  0.00    +0.000 A 
ATOM     10  C   UNL     1      10.261  12.636  18.437  0.00  0.00    +0.000 A 
ATOM     11  C   UNL     1       9.601  11.516  17.927  0.00  0.00    +0.000 A 
BRANCH   9  12
ATOM     12  O   UNL     1      11.209  13.809  20.243  0.00  0.00    +0.000 OA
ATOM     13  H   UNL     1      10.553  14.488  20.469  0.00  0.00    +0.000 HD
ENDBRANCH   9  12
ENDBRANCH   4   6
BRANCH   1  14
ATOM     14  S   UNL     1       7.693   5.587  18.737  0.00  0.00    +0.000 S 
BRANCH  14  15
ATOM     15  C   UNL     1       6.936   4.885  17.246  0.00  0.00    +0.000 C 
BRANCH  15  17
ATOM     16  O   UNL     1       4.917   5.809  16.264  0.00  0.00    +0.000 OA
ATOM     17  C   UNL     1       5.441   5.146  17.159  0.00  0.00    +0.000 C 
BRANCH  17  18
ATOM     18  C   UNL     1       4.553   4.542  18.201  0.00  0.00    +0.000 A 
ATOM     19  C   UNL     1       3.910   5.407  19.100  0.00  0.00    +0.000 A 
ATOM     20  C   UNL     1       3.047   4.907  20.079  0.00  0.00    +0.000 A 
ATOM     21  C   UNL     1       2.826   3.535  20.165  0.00  0.00    +0.000 A 
ATOM     22 BR   UNL     1       1.651   2.856  21.481  0.00  0.00    +0.000 Br
ATOM     23  C   UNL     1       3.461   2.661  19.284  0.00  0.00    +0.000 A 
ATOM     24  C   UNL     1       4.327   3.162  18.303  0.00  0.00    +0.000 A 
ENDBRANCH  17  18
ENDBRANCH  15  17
ENDBRANCH  14  15
ENDBRANCH   1  14
TORSDOF 6
ENDMDL
MODEL 4
REMARK VINA RESULT:      -7.6      1.846      2.321
REMARK  Name = 
REMARK  6 active torsions:
REMARK  status: ('A' for Active; 'I' for Inactive)
REMARK    1  A    between atoms: C_2  and  C_3
REMARK    2  A    between atoms: C_2  and  C_17
REMARK    3  A    between atoms: C_3  and  S_4
REMARK    4  A    between atoms: S_4  and  C_5
REMARK    5  A    between atoms: C_8  and  C_9
REMARK    6  A    between atoms: C_12  and  O_13
REMARK                            x       y       z     vdW  Elec       q    Type
REMARK                         _______ _______ _______ _____ _____    ______ ____
ROOT
ATOM      1  C   UNL     1       7.827   6.929  18.118  0.00  0.00    +0.000 A 
ATOM      2  N   UNL     1       7.247   7.481  17.069  0.00  0.00    +0.000 NA
ATOM      3  N   UNL     1       7.573   8.826  17.105  0.00  0.00    +0.000 NA
ATOM      4  C   UNL     1       8.330   8.997  18.172  0.00  0.00    +0.000 A 
ATOM      5  O   UNL     1       8.519   7.836  18.870  0.00  0.00    +0.000 OA
ENDROOT
BRANCH   4   6
ATOM      6  C   UNL     1       8.949  10.201  18.717  0.00  0.00    +0.000 A 
ATOM      7  C   UNL     1       9.285  10.272  20.080  0.00  0.00    +0.000 A 
ATOM      8  C   UNL     1       9.896  11.414  20.611  0.00  0.00    +0.000 A 
ATOM      9  C   UNL     1      10.170  12.494  19.779  0.00  0.00    +0.000 A 
ATOM     10  C   UNL     1       9.840  12.452  18.431  0.00  0.00    +0.000 A 
ATOM     11  C   UNL     1       9.231  11.310  17.903  0.00  0.00    +0.000 A 
BRANCH   9  12
ATOM     12  O   UNL     1      10.769  13.624  20.247  0.00  0.00    +0.000 OA
ATOM     13  H   UNL     1      10.537  13.737  21.183  0.00  0.00    +0.000 HD
ENDBRANCH   9  12
ENDBRANCH   4   6
BRANCH   1  14
ATOM     14  S   UNL     1       7.711   5.255  18.565  0.00  0.00    +0.000 S 
BRANCH  14  15
ATOM     15  C   UNL     1       6.225   4.761  17.650  0.00  0.00    +0.000 C 
BRANCH  15  17
ATOM     16  O   UNL     1       4.737   3.662  19.223  0.00  0.00    +0.000 OA
ATOM     17  C   UNL     1       4.993   4.649  18.533  0.00  0.00    +0.000 C 
BRANCH  17  18
ATOM     18  C   UNL     1       4.054   5.813  18.592  0.00  0.00    +0.000 A 
ATOM     19  C   UNL     1       4.087   6.738  17.538  0.00  0.00    +0.000 A 
ATOM     20  C   UNL     1       3.218   7.833  17.521  0.00  0.00    +0.000 A 
ATOM     21  C   UNL     1       2.311   8.007  18.563  0.00  0.00    +0.000 A 
ATOM     22 BR   UNL     1       1.126   9.479  18.539  0.00  0.00    +0.000 Br
ATOM     23  C   UNL     1       2.269   7.100  19.622  0.00  0.00    +0.000 A 
ATOM     24  C   UNL     1       3.141   6.003  19.639  0.00  0.00    +0.000 A 
ENDBRANCH  17  18
ENDBRANCH  15  17
ENDBRANCH  14  15
ENDBRANCH   1  14
TORSDOF 6
ENDMDL
MODEL 5
REMARK VINA RESULT:      -7.6      1.809      2.452
REMARK  Name = 
REMARK  6 active torsions:
REMARK  status: ('A' for Active; 'I' for Inactive)
REMARK    1  A    between atoms: C_2  and  C_3
REMARK    2  A    between atoms: C_2  and  C_17
REMARK    3  A    between atoms: C_3  and  S_4
REMARK    4  A    between atoms: S_4  and  C_5
REMARK    5  A    between atoms: C_8  and  C_9
REMARK    6  A    between atoms: C_12  and  O_13
REMARK                            x       y       z     vdW  Elec       q    Type
REMARK                         _______ _______ _______ _____ _____    ______ ____
ROOT
ATOM      1  C   UNL     1       7.890   7.052  18.287  0.00  0.00    +0.000 A 
ATOM      2  N   UNL     1       7.366   7.523  17.173  0.00  0.00    +0.000 NA
ATOM      3  N   UNL     1       7.709   8.863  17.115  0.00  0.00    +0.000 NA
ATOM      4  C   UNL     1       8.421   9.112  18.197  0.00  0.00    +0.000 A 
ATOM      5  O   UNL     1       8.562   8.009  18.994  0.00  0.00    +0.000 OA
ENDROOT
BRANCH   4   6
ATOM      6  C   UNL     1       9.033  10.348  18.672  0.00  0.00    +0.000 A 
ATOM      7  C   UNL     1       9.032  11.497  17.863  0.00  0.00    +0.000 A 
ATOM      8  C   UNL     1       9.599  12.695  18.316  0.00  0.00    +0.000 A 
ATOM      9  C   UNL     1      10.173  12.746  19.581  0.00  0.00    +0.000 A 
ATOM     10  C   UNL     1      10.194  11.622  20.395  0.00  0.00    +0.000 A 
ATOM     11  C   UNL     1       9.627  10.428  19.942  0.00  0.00    +0.000 A 
BRANCH   9  12
ATOM     12  O   UNL     1      10.731  13.889  20.068  0.00  0.00    +0.000 OA
ATOM     13  H   UNL     1      10.087  14.332  20.644  0.00  0.00    +0.000 HD
ENDBRANCH   9  12
ENDBRANCH   4   6
BRANCH   1  14
ATOM     14  S   UNL     1       7.729   5.420  18.861  0.00  0.00    +0.000 S 
BRANCH  14  15
ATOM     15  C   UNL     1       6.449   4.790  17.743  0.00  0.00    +0.000 C 
BRANCH  15  17
ATOM     16  O   UNL     1       4.776   3.511  18.951  0.00  0.00    +0.000 OA
ATOM     17  C   UNL     1       5.111   4.576  18.432  0.00  0.00    +0.000 C 
BRANCH  17  18
ATOM     18  C   UNL     1       4.161   5.730  18.511  0.00  0.00    +0.000 A 
ATOM     19  C   UNL     1       4.160   6.654  17.455  0.00  0.00    +0.000 A 
ATOM     20  C   UNL     1       3.278   7.739  17.457  0.00  0.00    +0.000 A 
ATOM     21  C   UNL     1       2.393   7.904  18.518  0.00  0.00    +0.000 A 
ATOM     22 BR   UNL     1       1.191   9.363  18.519  0.00  0.00    +0.000 Br
ATOM     23  C   UNL     1       2.385   6.998  19.578  0.00  0.00    +0.000 A 
ATOM     24  C   UNL     1       3.269   5.911  19.578  0.00  0.00    +0.000 A 
ENDBRANCH  17  18
ENDBRANCH  15  17
ENDBRANCH  14  15
ENDBRANCH   1  14
TORSDOF 6
ENDMDL
MODEL 6
REMARK VINA RESULT:      -7.5      1.340      1.904
REMARK  Name = 
REMARK  6 active torsions:
REMARK  status: ('A' for Active; 'I' for Inactive)
REMARK    1  A    between atoms: C_2  and  C_3
REMARK    2  A    between atoms: C_2  and  C_17
REMARK    3  A    between atoms: C_3  and  S_4
REMARK    4  A    between atoms: S_4  and  C_5
REMARK    5  A    between atoms: C_8  and  C_9
REMARK    6  A    between atoms: C_12  and  O_13
REMARK                            x       y       z     vdW  Elec       q    Type
REMARK                         _______ _______ _______ _____ _____    ______ ____
ROOT
ATOM      1  C   UNL     1       7.730   7.190  18.096  0.00  0.00    +0.000 A 
ATOM      2  N   UNL     1       7.115   7.861  17.141  0.00  0.00    +0.000 NA
ATOM      3  N   UNL     1       7.588   9.160  17.211  0.00  0.00    +0.000 NA
ATOM      4  C   UNL     1       8.459   9.187  18.200  0.00  0.00    +0.000 A 
ATOM      5  O   UNL     1       8.587   7.972  18.816  0.00  0.00    +0.000 OA
ENDROOT
BRANCH   4   6
ATOM      6  C   UNL     1       9.256  10.284  18.739  0.00  0.00    +0.000 A 
ATOM      7  C   UNL     1       9.955  11.145  17.877  0.00  0.00    +0.000 A 
ATOM      8  C   UNL     1      10.707  12.213  18.382  0.00  0.00    +0.000 A 
ATOM      9  C   UNL     1      10.765  12.421  19.755  0.00  0.00    +0.000 A 
ATOM     10  C   UNL     1      10.091  11.579  20.629  0.00  0.00    +0.000 A 
ATOM     11  C   UNL     1       9.340  10.515  20.122  0.00  0.00    +0.000 A 
BRANCH   9  12
ATOM     12  O   UNL     1      11.478  13.449  20.294  0.00  0.00    +0.000 OA
ATOM     13  H   UNL     1      11.628  14.120  19.608  0.00  0.00    +0.000 HD
ENDBRANCH   9  12
ENDBRANCH   4   6
BRANCH   1  14
ATOM     14  S   UNL     1       7.475   5.512  18.467  0.00  0.00    +0.000 S 
BRANCH  14  15
ATOM     15  C   UNL     1       6.487   4.993  17.038  0.00  0.00    +0.000 C 
BRANCH  15  17
ATOM     16  O   UNL     1       4.753   3.302  17.208  0.00  0.00    +0.000 OA
ATOM     17  C   UNL     1       5.117   4.457  17.426  0.00  0.00    +0.000 C 
BRANCH  17  18
ATOM     18  C   UNL     1       4.172   5.373  18.138  0.00  0.00    +0.000 A 
ATOM     19  C   UNL     1       3.672   4.965  19.383  0.00  0.00    +0.000 A 
ATOM     20  C   UNL     1       2.806   5.786  20.110  0.00  0.00    +0.000 A 
ATOM     21  C   UNL     1       2.434   7.023  19.591  0.00  0.00    +0.000 A 
ATOM     22 BR   UNL     1       1.273   8.143  20.576  0.00  0.00    +0.000 Br
ATOM     23  C   UNL     1       2.917   7.443  18.352  0.00  0.00    +0.000 A 
ATOM     24  C   UNL     1       3.785   6.619  17.623  0.00  0.00    +0.000 A 
ENDBRANCH  17  18
ENDBRANCH  15  17
ENDBRANCH  14  15
ENDBRANCH   1  14
TORSDOF 6
ENDMDL
MODEL 7
REMARK VINA RESULT:      -7.5      5.745      6.819
REMARK  Name = 
REMARK  6 active torsions:
REMARK  status: ('A' for Active; 'I' for Inactive)
REMARK    1  A    between atoms: C_2  and  C_3
REMARK    2  A    between atoms: C_2  and  C_17
REMARK    3  A    between atoms: C_3  and  S_4
REMARK    4  A    between atoms: S_4  and  C_5
REMARK    5  A    between atoms: C_8  and  C_9
REMARK    6  A    between atoms: C_12  and  O_13
REMARK                            x       y       z     vdW  Elec       q    Type
REMARK                         _______ _______ _______ _____ _____    ______ ____
ROOT
ATOM      1  C   UNL     1       1.529   3.788  20.068  0.00  0.00    +0.000 A 
ATOM      2  N   UNL     1       2.059   4.089  21.237  0.00  0.00    +0.000 NA
ATOM      3  N   UNL     1       2.319   5.448  21.210  0.00  0.00    +0.000 NA
ATOM      4  C   UNL     1       1.926   5.879  20.027  0.00  0.00    +0.000 A 
ATOM      5  O   UNL     1       1.427   4.874  19.245  0.00  0.00    +0.000 OA
ENDROOT
BRANCH   4   6
ATOM      6  C   UNL     1       1.969   7.212  19.435  0.00  0.00    +0.000 A 
ATOM      7  C   UNL     1       2.611   7.422  18.203  0.00  0.00    +0.000 A 
ATOM      8  C   UNL     1       2.642   8.693  17.617  0.00  0.00    +0.000 A 
ATOM      9  C   UNL     1       2.034   9.762  18.265  0.00  0.00    +0.000 A 
ATOM     10  C   UNL     1       1.401   9.582  19.488  0.00  0.00    +0.000 A 
ATOM     11  C   UNL     1       1.370   8.313  20.070  0.00  0.00    +0.000 A 
BRANCH   9  12
ATOM     12  O   UNL     1       2.032  11.015  17.732  0.00  0.00    +0.000 OA
ATOM     13  H   UNL     1       2.750  11.081  17.081  0.00  0.00    +0.000 HD
ENDBRANCH   9  12
ENDBRANCH   4   6
BRANCH   1  14
ATOM     14  S   UNL     1       1.045   2.197  19.564  0.00  0.00    +0.000 S 
BRANCH  14  15
ATOM     15  C   UNL     1       1.963   2.039  18.008  0.00  0.00    +0.000 C 
BRANCH  15  17
ATOM     16  O   UNL     1       4.091   0.993  18.531  0.00  0.00    +0.000 OA
ATOM     17  C   UNL     1       3.470   2.006  18.209  0.00  0.00    +0.000 C 
BRANCH  17  18
ATOM     18  C   UNL     1       4.246   3.264  17.973  0.00  0.00    +0.000 A 
ATOM     19  C   UNL     1       5.004   3.778  19.036  0.00  0.00    +0.000 A 
ATOM     20  C   UNL     1       5.771   4.935  18.872  0.00  0.00    +0.000 A 
ATOM     21  C   UNL     1       5.780   5.585  17.642  0.00  0.00    +0.000 A 
ATOM     22 BR   UNL     1       6.825   7.144  17.413  0.00  0.00    +0.000 Br
ATOM     23  C   UNL     1       5.028   5.092  16.577  0.00  0.00    +0.000 A 
ATOM     24  C   UNL     1       4.259   3.932  16.741  0.00  0.00    +0.000 A 
ENDBRANCH  17  18
ENDBRANCH  15  17
ENDBRANCH  14  15
ENDBRANCH   1  14
TORSDOF 6
ENDMDL
MODEL 8
REMARK VINA RESULT:      -7.5      5.458      6.758
REMARK  Name = 
REMARK  6 active torsions:
REMARK  status: ('A' for Active; 'I' for Inactive)
REMARK    1  A    between atoms: C_2  and  C_3
REMARK    2  A    between atoms: C_2  and  C_17
REMARK    3  A    between atoms: C_3  and  S_4
REMARK    4  A    between atoms: S_4  and  C_5
REMARK    5  A    between atoms: C_8  and  C_9
REMARK    6  A    between atoms: C_12  and  O_13
REMARK                            x       y       z     vdW  Elec       q    Type
REMARK                         _______ _______ _______ _____ _____    ______ ____
ROOT
ATOM      1  C   UNL     1       1.978   3.723  20.136  0.00  0.00    +0.000 A 
ATOM      2  N   UNL     1       2.272   4.097  21.366  0.00  0.00    +0.000 NA
ATOM      3  N   UNL     1       2.297   5.481  21.358  0.00  0.00    +0.000 NA
ATOM      4  C   UNL     1       2.013   5.852  20.125  0.00  0.00    +0.000 A 
ATOM      5  O   UNL     1       1.814   4.785  19.292  0.00  0.00    +0.000 OA
ENDROOT
BRANCH   4   6
ATOM      6  C   UNL     1       1.913   7.179  19.528  0.00  0.00    +0.000 A 
ATOM      7  C   UNL     1       1.322   8.236  20.240  0.00  0.00    +0.000 A 
ATOM      8  C   UNL     1       1.238   9.519  19.684  0.00  0.00    +0.000 A 
ATOM      9  C   UNL     1       1.744   9.748  18.410  0.00  0.00    +0.000 A 
ATOM     10  C   UNL     1       2.325   8.718  17.682  0.00  0.00    +0.000 A 
ATOM     11  C   UNL     1       2.408   7.440  18.239  0.00  0.00    +0.000 A 
BRANCH   9  12
ATOM     12  O   UNL     1       1.692  10.979  17.830  0.00  0.00    +0.000 OA
ATOM     13  H   UNL     1       1.833  10.882  16.874  0.00  0.00    +0.000 HD
ENDBRANCH   9  12
ENDBRANCH   4   6
BRANCH   1  14
ATOM     14  S   UNL     1       1.853   2.079  19.589  0.00  0.00    +0.000 S 
BRANCH  14  15
ATOM     15  C   UNL     1       3.335   1.951  18.552  0.00  0.00    +0.000 C 
BRANCH  15  17
ATOM     16  O   UNL     1       2.594   3.051  16.518  0.00  0.00    +0.000 OA
ATOM     17  C   UNL     1       3.387   3.006  17.458  0.00  0.00    +0.000 C 
BRANCH  17  18
ATOM     18  C   UNL     1       4.441   4.066  17.543  0.00  0.00    +0.000 A 
ATOM     19  C   UNL     1       4.580   4.944  16.458  0.00  0.00    +0.000 A 
ATOM     20  C   UNL     1       5.527   5.971  16.487  0.00  0.00    +0.000 A 
ATOM     21  C   UNL     1       6.343   6.123  17.605  0.00  0.00    +0.000 A 
ATOM     22 BR   UNL     1       7.617   7.518  17.653  0.00  0.00    +0.000 Br
ATOM     23  C   UNL     1       6.222   5.256  18.690  0.00  0.00    +0.000 A 
ATOM     24  C   UNL     1       5.273   4.226  18.661  0.00  0.00    +0.000 A 
ENDBRANCH  17  18
ENDBRANCH  15  17
ENDBRANCH  14  15
ENDBRANCH   1  14
TORSDOF 6
ENDMDL
MODEL 9
REMARK VINA RESULT:      -7.4      5.737      6.806
REMARK  Name = 
REMARK  6 active torsions:
REMARK  status: ('A' for Active; 'I' for Inactive)
REMARK    1  A    between atoms: C_2  and  C_3
REMARK    2  A    between atoms: C_2  and  C_17
REMARK    3  A    between atoms: C_3  and  S_4
REMARK    4  A    between atoms: S_4  and  C_5
REMARK    5  A    between atoms: C_8  and  C_9
REMARK    6  A    between atoms: C_12  and  O_13
REMARK                            x       y       z     vdW  Elec       q    Type
REMARK                         _______ _______ _______ _____ _____    ______ ____
ROOT
ATOM      1  C   UNL     1       1.524   3.815  20.033  0.00  0.00    +0.000 A 
ATOM      2  N   UNL     1       2.012   4.121  21.219  0.00  0.00    +0.000 NA
ATOM      3  N   UNL     1       2.269   5.481  21.197  0.00  0.00    +0.000 NA
ATOM      4  C   UNL     1       1.915   5.908  20.001  0.00  0.00    +0.000 A 
ATOM      5  O   UNL     1       1.447   4.899  19.204  0.00  0.00    +0.000 OA
ENDROOT
BRANCH   4   6
ATOM      6  C   UNL     1       1.975   7.240  19.407  0.00  0.00    +0.000 A 
ATOM      7  C   UNL     1       2.622   7.441  18.177  0.00  0.00    +0.000 A 
ATOM      8  C   UNL     1       2.669   8.711  17.589  0.00  0.00    +0.000 A 
ATOM      9  C   UNL     1       2.070   9.787  18.234  0.00  0.00    +0.000 A 
ATOM     10  C   UNL     1       1.432   9.616  19.456  0.00  0.00    +0.000 A 
ATOM     11  C   UNL     1       1.386   8.347  20.039  0.00  0.00    +0.000 A 
BRANCH   9  12
ATOM     12  O   UNL     1       2.084  11.040  17.700  0.00  0.00    +0.000 OA
ATOM     13  H   UNL     1       2.604  11.025  16.880  0.00  0.00    +0.000 HD
ENDBRANCH   9  12
ENDBRANCH   4   6
BRANCH   1  14
ATOM     14  S   UNL     1       1.063   2.222  19.517  0.00  0.00    +0.000 S 
BRANCH  14  15
ATOM     15  C   UNL     1       2.011   2.075  17.978  0.00  0.00    +0.000 C 
BRANCH  15  17
ATOM     16  O   UNL     1       4.105   0.964  18.504  0.00  0.00    +0.000 OA
ATOM     17  C   UNL     1       3.512   2.002  18.210  0.00  0.00    +0.000 C 
BRANCH  17  18
ATOM     18  C   UNL     1       4.318   3.251  18.043  0.00  0.00    +0.000 A 
ATOM     19  C   UNL     1       4.341   3.855  16.776  0.00  0.00    +0.000 A 
ATOM     20  C   UNL     1       5.053   5.038  16.561  0.00  0.00    +0.000 A 
ATOM     21  C   UNL     1       5.749   5.622  17.615  0.00  0.00    +0.000 A 
ATOM     22 BR   UNL     1       6.705   7.228  17.332  0.00  0.00    +0.000 Br
ATOM     23  C   UNL     1       5.742   5.033  18.879  0.00  0.00    +0.000 A 
ATOM     24  C   UNL     1       5.028   3.847  19.095  0.00  0.00    +0.000 A 
ENDBRANCH  17  18
ENDBRANCH  15  17
ENDBRANCH  14  15
ENDBRANCH   1  14
TORSDOF 6
ENDMDL
