MODEL 1
REMARK VINA RESULT:      -8.1      0.000      0.000
REMARK  Name = 
REMARK  6 active torsions:
REMARK  status: ('A' for Active; 'I' for Inactive)
REMARK    1  A    between atoms: C_2  and  C_3
REMARK    2  A    between atoms: C_2  and  C_21
REMARK    3  A    between atoms: C_3  and  S_4
REMARK    4  A    between atoms: S_4  and  C_5
REMARK    5  A    between atoms: C_8  and  C_9
REMARK    6  A    between atoms: N_11  and  C_12
REMARK                            x       y       z     vdW  Elec       q    Type
REMARK                         _______ _______ _______ _____ _____    ______ ____
ROOT
ATOM      1  C   UNL     1       6.633   5.507  17.355  0.00  0.00    +0.000 A 
ATOM      2  C   UNL     1       7.519   5.595  18.425  0.00  0.00    +0.000 A 
ATOM      3  C   UNL     1       8.130   6.819  18.714  0.00  0.00    +0.000 A 
ATOM      4  C   UNL     1       7.831   7.927  17.923  0.00  0.00    +0.000 A 
ATOM      5  C   UNL     1       6.948   7.739  16.862  0.00  0.00    +0.000 A 
ATOM      6  N   UNL     1       6.349   6.558  16.553  0.00  0.00    +0.000 NA
ENDROOT
BRANCH   4   7
ATOM      7  C   UNL     1       8.312   9.302  18.209  0.00  0.00    +0.000 C 
ATOM      8  O   UNL     1       7.968  10.190  17.437  0.00  0.00    +0.000 OA
ATOM      9  N   UNL     1       9.141   9.454  19.310  0.00  0.00    +0.000 N 
ATOM     10  H   UNL     1       9.511   8.615  19.738  0.00  0.00    +0.000 HD
BRANCH   9  11
ATOM     11  C   UNL     1       9.679  10.677  19.778  0.00  0.00    +0.000 A 
ATOM     12  C   UNL     1       9.265  11.303  20.961  0.00  0.00    +0.000 A 
ATOM     13  C   UNL     1       9.816  12.528  21.352  0.00  0.00    +0.000 A 
ATOM     14  C   UNL     1      10.780  13.130  20.559  0.00  0.00    +0.000 A 
ATOM     15  F   UNL     1      11.295  14.312  20.922  0.00  0.00    +0.000 F 
ATOM     16  C   UNL     1      11.222  12.519  19.393  0.00  0.00    +0.000 A 
ATOM     17  C   UNL     1      10.680  11.287  19.009  0.00  0.00    +0.000 A 
ENDBRANCH   9  11
ENDBRANCH   4   7
BRANCH   1  18
ATOM     18  S   UNL     1       5.709   3.997  17.128  0.00  0.00    +0.000 S 
BRANCH  18  19
ATOM     19  C   UNL     1       4.007   4.610  17.324  0.00  0.00    +0.000 C 
BRANCH  19  21
ATOM     20  O   UNL     1       4.115   4.623  19.756  0.00  0.00    +0.000 OA
ATOM     21  C   UNL     1       3.748   5.166  18.715  0.00  0.00    +0.000 C 
BRANCH  21  22
ATOM     22  C   UNL     1       3.030   6.477  18.833  0.00  0.00    +0.000 A 
ATOM     23  C   UNL     1       3.080   7.352  17.736  0.00  0.00    +0.000 A 
ATOM     24  C   UNL     1       2.405   8.574  17.768  0.00  0.00    +0.000 A 
ATOM     25  C   UNL     1       1.670   8.940  18.896  0.00  0.00    +0.000 A 
ATOM     26 CL   UNL     1       0.843  10.454  18.863  0.00  0.00    +0.000 Cl
ATOM     27  C   UNL     1       1.622   8.077  19.998  0.00  0.00    +0.000 A 
ATOM     28 CL   UNL     1       0.732   8.463  21.429  0.00  0.00    +0.000 Cl
ATOM     29  C   UNL     1       2.301   6.849  19.968  0.00  0.00    +0.000 A 
ENDBRANCH  21  22
ENDBRANCH  19  21
ENDBRANCH  18  19
ENDBRANCH   1  18
TORSDOF 6
ENDMDL
MODEL 2
REMARK VINA RESULT:      -7.9      1.004      1.660
REMARK  Name = 
REMARK  6 active torsions:
REMARK  status: ('A' for Active; 'I' for Inactive)
REMARK    1  A    between atoms: C_2  and  C_3
REMARK    2  A    between atoms: C_2  and  C_21
REMARK    3  A    between atoms: C_3  and  S_4
REMARK    4  A    between atoms: S_4  and  C_5
REMARK    5  A    between atoms: C_8  and  C_9
REMARK    6  A    between atoms: N_11  and  C_12
REMARK                            x       y       z     vdW  Elec       q    Type
REMARK                         _______ _______ _______ _____ _____    ______ ____
ROOT
ATOM      1  C   UNL     1       6.682   5.471  17.835  0.00  0.00    +0.000 A 
ATOM      2  C   UNL     1       7.675   5.627  18.799  0.00  0.00    +0.000 A 
ATOM      3  C   UNL     1       8.298   6.869  18.951  0.00  0.00    +0.000 A 
ATOM      4  C   UNL     1       7.905   7.927  18.133  0.00  0.00    +0.000 A 
ATOM      5  C   UNL     1       6.918   7.672  17.183  0.00  0.00    +0.000 A 
ATOM      6  N   UNL     1       6.304   6.471  17.008  0.00  0.00    +0.000 NA
ENDROOT
BRANCH   4   7
ATOM      7  C   UNL     1       8.397   9.319  18.286  0.00  0.00    +0.000 C 
ATOM      8  O   UNL     1       8.000  10.149  17.476  0.00  0.00    +0.000 OA
ATOM      9  N   UNL     1       9.296   9.550  19.317  0.00  0.00    +0.000 N 
ATOM     10  H   UNL     1       9.697   8.745  19.779  0.00  0.00    +0.000 HD
BRANCH   9  11
ATOM     11  C   UNL     1       9.858  10.804  19.658  0.00  0.00    +0.000 A 
ATOM     12  C   UNL     1       9.481  11.538  20.790  0.00  0.00    +0.000 A 
ATOM     13  C   UNL     1      10.054  12.787  21.055  0.00  0.00    +0.000 A 
ATOM     14  C   UNL     1      11.003  13.303  20.187  0.00  0.00    +0.000 A 
ATOM     15  F   UNL     1      11.539  14.507  20.429  0.00  0.00    +0.000 F 
ATOM     16  C   UNL     1      11.408  12.585  19.070  0.00  0.00    +0.000 A 
ATOM     17  C   UNL     1      10.845  11.330  18.813  0.00  0.00    +0.000 A 
ENDBRANCH   9  11
ENDBRANCH   4   7
BRANCH   1  18
ATOM     18  S   UNL     1       5.757   3.945  17.794  0.00  0.00    +0.000 S 
BRANCH  18  19
ATOM     19  C   UNL     1       4.404   4.400  16.665  0.00  0.00    +0.000 C 
BRANCH  19  21
ATOM     20  O   UNL     1       2.267   3.343  17.154  0.00  0.00    +0.000 OA
ATOM     21  C   UNL     1       3.038   4.287  17.321  0.00  0.00    +0.000 C 
BRANCH  21  22
ATOM     22  C   UNL     1       2.609   5.375  18.259  0.00  0.00    +0.000 A 
ATOM     23  C   UNL     1       2.293   5.015  19.579  0.00  0.00    +0.000 A 
ATOM     24  C   UNL     1       1.918   5.985  20.512  0.00  0.00    +0.000 A 
ATOM     25  C   UNL     1       1.854   7.328  20.139  0.00  0.00    +0.000 A 
ATOM     26 CL   UNL     1       1.404   8.478  21.346  0.00  0.00    +0.000 Cl
ATOM     27  C   UNL     1       2.158   7.694  18.823  0.00  0.00    +0.000 A 
ATOM     28 CL   UNL     1       2.100   9.338  18.290  0.00  0.00    +0.000 Cl
ATOM     29  C   UNL     1       2.533   6.722  17.884  0.00  0.00    +0.000 A 
ENDBRANCH  21  22
ENDBRANCH  19  21
ENDBRANCH  18  19
ENDBRANCH   1  18
TORSDOF 6
ENDMDL
MODEL 3
REMARK VINA RESULT:      -7.6      1.670      2.100
REMARK  Name = 
REMARK  6 active torsions:
REMARK  status: ('A' for Active; 'I' for Inactive)
REMARK    1  A    between atoms: C_2  and  C_3
REMARK    2  A    between atoms: C_2  and  C_21
REMARK    3  A    between atoms: C_3  and  S_4
REMARK    4  A    between atoms: S_4  and  C_5
REMARK    5  A    between atoms: C_8  and  C_9
REMARK    6  A    between atoms: N_11  and  C_12
REMARK                            x       y       z     vdW  Elec       q    Type
REMARK                         _______ _______ _______ _____ _____    ______ ____
ROOT
ATOM      1  C   UNL     1       6.691   5.959  17.429  0.00  0.00    +0.000 A 
ATOM      2  C   UNL     1       7.608   5.856  18.472  0.00  0.00    +0.000 A 
ATOM      3  C   UNL     1       8.331   6.986  18.868  0.00  0.00    +0.000 A 
ATOM      4  C   UNL     1       8.112   8.194  18.208  0.00  0.00    +0.000 A 
ATOM      5  C   UNL     1       7.190   8.197  17.163  0.00  0.00    +0.000 A 
ATOM      6  N   UNL     1       6.482   7.111  16.752  0.00  0.00    +0.000 NA
ENDROOT
BRANCH   4   7
ATOM      7  C   UNL     1       8.719   9.484  18.620  0.00  0.00    +0.000 C 
ATOM      8  O   UNL     1       9.119   9.574  19.776  0.00  0.00    +0.000 OA
ATOM      9  N   UNL     1       8.746  10.491  17.667  0.00  0.00    +0.000 N 
ATOM     10  H   UNL     1       8.202  10.355  16.826  0.00  0.00    +0.000 HD
BRANCH   9  11
ATOM     11  C   UNL     1       9.308  11.779  17.840  0.00  0.00    +0.000 A 
ATOM     12  C   UNL     1       8.548  12.926  18.104  0.00  0.00    +0.000 A 
ATOM     13  C   UNL     1       9.163  14.176  18.234  0.00  0.00    +0.000 A 
ATOM     14  C   UNL     1      10.538  14.281  18.099  0.00  0.00    +0.000 A 
ATOM     15  F   UNL     1      11.126  15.480  18.205  0.00  0.00    +0.000 F 
ATOM     16  C   UNL     1      11.315  13.155  17.858  0.00  0.00    +0.000 A 
ATOM     17  C   UNL     1      10.701  11.903  17.741  0.00  0.00    +0.000 A 
ENDBRANCH   9  11
ENDBRANCH   4   7
BRANCH   1  18
ATOM     18  S   UNL     1       5.633   4.567  17.076  0.00  0.00    +0.000 S 
BRANCH  18  19
ATOM     19  C   UNL     1       4.816   4.347  18.687  0.00  0.00    +0.000 C 
BRANCH  19  21
ATOM     20  O   UNL     1       2.545   3.622  18.196  0.00  0.00    +0.000 OA
ATOM     21  C   UNL     1       3.306   4.501  18.598  0.00  0.00    +0.000 C 
BRANCH  21  22
ATOM     22  C   UNL     1       2.696   5.790  19.057  0.00  0.00    +0.000 A 
ATOM     23  C   UNL     1       2.131   5.826  20.342  0.00  0.00    +0.000 A 
ATOM     24  C   UNL     1       1.575   7.005  20.844  0.00  0.00    +0.000 A 
ATOM     25  C   UNL     1       1.576   8.165  20.069  0.00  0.00    +0.000 A 
ATOM     26 CL   UNL     1       0.892   9.594  20.756  0.00  0.00    +0.000 Cl
ATOM     27  C   UNL     1       2.130   8.136  18.783  0.00  0.00    +0.000 A 
ATOM     28 CL   UNL     1       2.166   9.534  17.767  0.00  0.00    +0.000 Cl
ATOM     29  C   UNL     1       2.687   6.952  18.277  0.00  0.00    +0.000 A 
ENDBRANCH  21  22
ENDBRANCH  19  21
ENDBRANCH  18  19
ENDBRANCH   1  18
TORSDOF 6
ENDMDL
MODEL 4
REMARK VINA RESULT:      -7.4      6.772      9.703
REMARK  Name = 
REMARK  6 active torsions:
REMARK  status: ('A' for Active; 'I' for Inactive)
REMARK    1  A    between atoms: C_2  and  C_3
REMARK    2  A    between atoms: C_2  and  C_21
REMARK    3  A    between atoms: C_3  and  S_4
REMARK    4  A    between atoms: S_4  and  C_5
REMARK    5  A    between atoms: C_8  and  C_9
REMARK    6  A    between atoms: N_11  and  C_12
REMARK                            x       y       z     vdW  Elec       q    Type
REMARK                         _______ _______ _______ _____ _____    ______ ____
ROOT
ATOM      1  C   UNL     1       0.571  10.466  19.851  0.00  0.00    +0.000 A 
ATOM      2  C   UNL     1       1.047  10.445  18.542  0.00  0.00    +0.000 A 
ATOM      3  C   UNL     1       1.760   9.331  18.087  0.00  0.00    +0.000 A 
ATOM      4  C   UNL     1       1.972   8.263  18.957  0.00  0.00    +0.000 A 
ATOM      5  C   UNL     1       1.476   8.382  20.254  0.00  0.00    +0.000 A 
ATOM      6  N   UNL     1       0.790   9.458  20.724  0.00  0.00    +0.000 NA
ENDROOT
BRANCH   4   7
ATOM      7  C   UNL     1       2.597   6.978  18.553  0.00  0.00    +0.000 C 
ATOM      8  O   UNL     1       3.444   7.019  17.668  0.00  0.00    +0.000 OA
ATOM      9  N   UNL     1       2.136   5.836  19.190  0.00  0.00    +0.000 N 
ATOM     10  H   UNL     1       1.296   5.916  19.747  0.00  0.00    +0.000 HD
BRANCH   9  11
ATOM     11  C   UNL     1       2.618   4.521  18.981  0.00  0.00    +0.000 A 
ATOM     12  C   UNL     1       3.754   4.003  19.616  0.00  0.00    +0.000 A 
ATOM     13  C   UNL     1       4.195   2.704  19.342  0.00  0.00    +0.000 A 
ATOM     14  C   UNL     1       3.503   1.923  18.431  0.00  0.00    +0.000 A 
ATOM     15  F   UNL     1       3.936   0.685  18.154  0.00  0.00    +0.000 F 
ATOM     16  C   UNL     1       2.362   2.406  17.805  0.00  0.00    +0.000 A 
ATOM     17  C   UNL     1       1.913   3.701  18.089  0.00  0.00    +0.000 A 
ENDBRANCH   9  11
ENDBRANCH   4   7
BRANCH   1  18
ATOM     18  S   UNL     1      -0.508  11.797  20.349  0.00  0.00    +0.000 S 
BRANCH  18  19
ATOM     19  C   UNL     1      -0.880  11.306  22.062  0.00  0.00    +0.000 C 
BRANCH  19  21
ATOM     20  O   UNL     1      -0.770  13.309  23.442  0.00  0.00    +0.000 OA
ATOM     21  C   UNL     1      -1.452  12.452  22.882  0.00  0.00    +0.000 C 
BRANCH  21  22
ATOM     22  C   UNL     1      -2.942  12.570  22.993  0.00  0.00    +0.000 A 
ATOM     23  C   UNL     1      -3.516  12.440  24.268  0.00  0.00    +0.000 A 
ATOM     24  C   UNL     1      -4.896  12.573  24.446  0.00  0.00    +0.000 A 
ATOM     25  C   UNL     1      -5.720  12.838  23.353  0.00  0.00    +0.000 A 
ATOM     26 CL   UNL     1      -7.413  13.010  23.644  0.00  0.00    +0.000 Cl
ATOM     27  C   UNL     1      -5.157  12.960  22.076  0.00  0.00    +0.000 A 
ATOM     28 CL   UNL     1      -6.117  13.288  20.676  0.00  0.00    +0.000 Cl
ATOM     29  C   UNL     1      -3.773  12.825  21.895  0.00  0.00    +0.000 A 
ENDBRANCH  21  22
ENDBRANCH  19  21
ENDBRANCH  18  19
ENDBRANCH   1  18
TORSDOF 6
ENDMDL
MODEL 5
REMARK VINA RESULT:      -7.4      6.805      9.626
REMARK  Name = 
REMARK  6 active torsions:
REMARK  status: ('A' for Active; 'I' for Inactive)
REMARK    1  A    between atoms: C_2  and  C_3
REMARK    2  A    between atoms: C_2  and  C_21
REMARK    3  A    between atoms: C_3  and  S_4
REMARK    4  A    between atoms: S_4  and  C_5
REMARK    5  A    between atoms: C_8  and  C_9
REMARK    6  A    between atoms: N_11  and  C_12
REMARK                            x       y       z     vdW  Elec       q    Type
REMARK                         _______ _______ _______ _____ _____    ______ ____
ROOT
ATOM      1  C   UNL     1       0.937  10.699  19.770  0.00  0.00    +0.000 A 
ATOM      2  C   UNL     1       0.911   9.679  20.719  0.00  0.00    +0.000 A 
ATOM      3  C   UNL     1       1.393   8.411  20.379  0.00  0.00    +0.000 A 
ATOM      4  C   UNL     1       1.894   8.200  19.096  0.00  0.00    +0.000 A 
ATOM      5  C   UNL     1       1.862   9.273  18.208  0.00  0.00    +0.000 A 
ATOM      6  N   UNL     1       1.389  10.512  18.510  0.00  0.00    +0.000 NA
ENDROOT
BRANCH   4   7
ATOM      7  C   UNL     1       2.550   6.941  18.662  0.00  0.00    +0.000 C 
ATOM      8  O   UNL     1       3.497   7.038  17.888  0.00  0.00    +0.000 OA
ATOM      9  N   UNL     1       2.008   5.759  19.143  0.00  0.00    +0.000 N 
ATOM     10  H   UNL     1       1.109   5.809  19.603  0.00  0.00    +0.000 HD
BRANCH   9  11
ATOM     11  C   UNL     1       2.499   4.457  18.882  0.00  0.00    +0.000 A 
ATOM     12  C   UNL     1       2.013   3.638  17.854  0.00  0.00    +0.000 A 
ATOM     13  C   UNL     1       2.521   2.348  17.668  0.00  0.00    +0.000 A 
ATOM     14  C   UNL     1       3.513   1.874  18.511  0.00  0.00    +0.000 A 
ATOM     15  F   UNL     1       3.987   0.632  18.346  0.00  0.00    +0.000 F 
ATOM     16  C   UNL     1       4.026   2.674  19.524  0.00  0.00    +0.000 A 
ATOM     17  C   UNL     1       3.527   3.970  19.701  0.00  0.00    +0.000 A 
ENDBRANCH   9  11
ENDBRANCH   4   7
BRANCH   1  18
ATOM     18  S   UNL     1       0.513  12.356  20.279  0.00  0.00    +0.000 S 
BRANCH  18  19
ATOM     19  C   UNL     1      -1.257  12.151  20.652  0.00  0.00    +0.000 C 
BRANCH  19  21
ATOM     20  O   UNL     1      -0.687  12.115  23.019  0.00  0.00    +0.000 OA
ATOM     21  C   UNL     1      -1.546  12.214  22.143  0.00  0.00    +0.000 C 
BRANCH  21  22
ATOM     22  C   UNL     1      -2.960  12.445  22.583  0.00  0.00    +0.000 A 
ATOM     23  C   UNL     1      -3.246  12.337  23.953  0.00  0.00    +0.000 A 
ATOM     24  C   UNL     1      -4.537  12.572  24.433  0.00  0.00    +0.000 A 
ATOM     25  C   UNL     1      -5.559  12.920  23.551  0.00  0.00    +0.000 A 
ATOM     26 CL   UNL     1      -7.126  13.218  24.211  0.00  0.00    +0.000 Cl
ATOM     27  C   UNL     1      -5.285  13.022  22.182  0.00  0.00    +0.000 A 
ATOM     28 CL   UNL     1      -6.502  13.448  21.030  0.00  0.00    +0.000 Cl
ATOM     29  C   UNL     1      -3.990  12.784  21.697  0.00  0.00    +0.000 A 
ENDBRANCH  21  22
ENDBRANCH  19  21
ENDBRANCH  18  19
ENDBRANCH   1  18
TORSDOF 6
ENDMDL
MODEL 6
REMARK VINA RESULT:      -7.3      5.509      7.063
REMARK  Name = 
REMARK  6 active torsions:
REMARK  status: ('A' for Active; 'I' for Inactive)
REMARK    1  A    between atoms: C_2  and  C_3
REMARK    2  A    between atoms: C_2  and  C_21
REMARK    3  A    between atoms: C_3  and  S_4
REMARK    4  A    between atoms: S_4  and  C_5
REMARK    5  A    between atoms: C_8  and  C_9
REMARK    6  A    between atoms: N_11  and  C_12
REMARK                            x       y       z     vdW  Elec       q    Type
REMARK                         _______ _______ _______ _____ _____    ______ ____
ROOT
ATOM      1  C   UNL     1       1.941   5.909  20.273  0.00  0.00    +0.000 A 
ATOM      2  C   UNL     1       2.328   6.052  18.943  0.00  0.00    +0.000 A 
ATOM      3  C   UNL     1       2.244   7.308  18.333  0.00  0.00    +0.000 A 
ATOM      4  C   UNL     1       1.777   8.390  19.076  0.00  0.00    +0.000 A 
ATOM      5  C   UNL     1       1.393   8.148  20.394  0.00  0.00    +0.000 A 
ATOM      6  N   UNL     1       1.455   6.936  21.007  0.00  0.00    +0.000 NA
ENDROOT
BRANCH   4   7
ATOM      7  C   UNL     1       1.766   9.790  18.582  0.00  0.00    +0.000 C 
ATOM      8  O   UNL     1       2.190   9.990  17.449  0.00  0.00    +0.000 OA
ATOM      9  N   UNL     1       1.308  10.758  19.464  0.00  0.00    +0.000 N 
ATOM     10  H   UNL     1       1.183  10.489  20.431  0.00  0.00    +0.000 HD
BRANCH   9  11
ATOM     11  C   UNL     1       1.182  12.140  19.184  0.00  0.00    +0.000 A 
ATOM     12  C   UNL     1       2.263  13.031  19.188  0.00  0.00    +0.000 A 
ATOM     13  C   UNL     1       2.067  14.393  18.933  0.00  0.00    +0.000 A 
ATOM     14  C   UNL     1       0.789  14.864  18.675  0.00  0.00    +0.000 A 
ATOM     15  F   UNL     1       0.597  16.171  18.449  0.00  0.00    +0.000 F 
ATOM     16  C   UNL     1      -0.294  13.997  18.644  0.00  0.00    +0.000 A 
ATOM     17  C   UNL     1      -0.096  12.633  18.887  0.00  0.00    +0.000 A 
ENDBRANCH   9  11
ENDBRANCH   4   7
BRANCH   1  18
ATOM     18  S   UNL     1       2.248   4.354  21.094  0.00  0.00    +0.000 S 
BRANCH  18  19
ATOM     19  C   UNL     1       2.652   3.296  19.670  0.00  0.00    +0.000 C 
BRANCH  19  21
ATOM     20  O   UNL     1       4.766   2.271  20.307  0.00  0.00    +0.000 OA
ATOM     21  C   UNL     1       4.143   3.021  19.556  0.00  0.00    +0.000 C 
BRANCH  21  22
ATOM     22  C   UNL     1       4.903   3.675  18.442  0.00  0.00    +0.000 A 
ATOM     23  C   UNL     1       4.616   3.270  17.129  0.00  0.00    +0.000 A 
ATOM     24  C   UNL     1       5.265   3.864  16.043  0.00  0.00    +0.000 A 
ATOM     25  C   UNL     1       6.208   4.870  16.254  0.00  0.00    +0.000 A 
ATOM     26 CL   UNL     1       6.957   5.576  14.868  0.00  0.00    +0.000 Cl
ATOM     27  C   UNL     1       6.506   5.273  17.562  0.00  0.00    +0.000 A 
ATOM     28 CL   UNL     1       7.663   6.513  17.900  0.00  0.00    +0.000 Cl
ATOM     29  C   UNL     1       5.857   4.677  18.654  0.00  0.00    +0.000 A 
ENDBRANCH  21  22
ENDBRANCH  19  21
ENDBRANCH  18  19
ENDBRANCH   1  18
TORSDOF 6
ENDMDL
MODEL 7
REMARK VINA RESULT:      -7.2      6.084      9.036
REMARK  Name = 
REMARK  6 active torsions:
REMARK  status: ('A' for Active; 'I' for Inactive)
REMARK    1  A    between atoms: C_2  and  C_3
REMARK    2  A    between atoms: C_2  and  C_21
REMARK    3  A    between atoms: C_3  and  S_4
REMARK    4  A    between atoms: S_4  and  C_5
REMARK    5  A    between atoms: C_8  and  C_9
REMARK    6  A    between atoms: N_11  and  C_12
REMARK                            x       y       z     vdW  Elec       q    Type
REMARK                         _______ _______ _______ _____ _____    ______ ____
ROOT
ATOM      1  C   UNL     1       1.667   8.020  19.628  0.00  0.00    +0.000 A 
ATOM      2  C   UNL     1       1.271   9.282  19.191  0.00  0.00    +0.000 A 
ATOM      3  C   UNL     1       0.594  10.134  20.070  0.00  0.00    +0.000 A 
ATOM      4  C   UNL     1       0.336   9.698  21.369  0.00  0.00    +0.000 A 
ATOM      5  C   UNL     1       0.752   8.413  21.710  0.00  0.00    +0.000 A 
ATOM      6  N   UNL     1       1.402   7.562  20.872  0.00  0.00    +0.000 NA
ENDROOT
BRANCH   4   7
ATOM      7  C   UNL     1      -0.255  10.555  22.427  0.00  0.00    +0.000 C 
ATOM      8  O   UNL     1      -0.040  10.239  23.592  0.00  0.00    +0.000 OA
ATOM      9  N   UNL     1      -1.032  11.622  22.000  0.00  0.00    +0.000 N 
ATOM     10  H   UNL     1      -1.296  11.649  21.025  0.00  0.00    +0.000 HD
BRANCH   9  11
ATOM     11  C   UNL     1      -1.655  12.579  22.838  0.00  0.00    +0.000 A 
ATOM     12  C   UNL     1      -1.041  13.772  23.241  0.00  0.00    +0.000 A 
ATOM     13  C   UNL     1      -1.701  14.661  24.096  0.00  0.00    +0.000 A 
ATOM     14  C   UNL     1      -2.974  14.357  24.551  0.00  0.00    +0.000 A 
ATOM     15  F   UNL     1      -3.600  15.199  25.384  0.00  0.00    +0.000 F 
ATOM     16  C   UNL     1      -3.612  13.192  24.148  0.00  0.00    +0.000 A 
ATOM     17  C   UNL     1      -2.957  12.308  23.282  0.00  0.00    +0.000 A 
ENDBRANCH   9  11
ENDBRANCH   4   7
BRANCH   1  18
ATOM     18  S   UNL     1       2.706   7.031  18.566  0.00  0.00    +0.000 S 
BRANCH  18  19
ATOM     19  C   UNL     1       2.338   5.363  19.192  0.00  0.00    +0.000 C 
BRANCH  19  21
ATOM     20  O   UNL     1       3.731   3.481  19.861  0.00  0.00    +0.000 OA
ATOM     21  C   UNL     1       3.537   4.433  19.105  0.00  0.00    +0.000 C 
BRANCH  21  22
ATOM     22  C   UNL     1       4.536   4.663  18.011  0.00  0.00    +0.000 A 
ATOM     23  C   UNL     1       4.402   3.909  16.834  0.00  0.00    +0.000 A 
ATOM     24  C   UNL     1       5.279   4.099  15.763  0.00  0.00    +0.000 A 
ATOM     25  C   UNL     1       6.301   5.044  15.853  0.00  0.00    +0.000 A 
ATOM     26 CL   UNL     1       7.337   5.242  14.487  0.00  0.00    +0.000 Cl
ATOM     27  C   UNL     1       6.447   5.793  17.027  0.00  0.00    +0.000 A 
ATOM     28 CL   UNL     1       7.690   6.980  17.210  0.00  0.00    +0.000 Cl
ATOM     29  C   UNL     1       5.569   5.603  18.104  0.00  0.00    +0.000 A 
ENDBRANCH  21  22
ENDBRANCH  19  21
ENDBRANCH  18  19
ENDBRANCH   1  18
TORSDOF 6
ENDMDL
MODEL 8
REMARK VINA RESULT:      -7.2      2.062      2.743
REMARK  Name = 
REMARK  6 active torsions:
REMARK  status: ('A' for Active; 'I' for Inactive)
REMARK    1  A    between atoms: C_2  and  C_3
REMARK    2  A    between atoms: C_2  and  C_21
REMARK    3  A    between atoms: C_3  and  S_4
REMARK    4  A    between atoms: S_4  and  C_5
REMARK    5  A    between atoms: C_8  and  C_9
REMARK    6  A    between atoms: N_11  and  C_12
REMARK                            x       y       z     vdW  Elec       q    Type
REMARK                         _______ _______ _______ _____ _____    ______ ____
ROOT
ATOM      1  C   UNL     1       7.469   6.271  17.961  0.00  0.00    +0.000 A 
ATOM      2  C   UNL     1       7.000   7.279  17.122  0.00  0.00    +0.000 A 
ATOM      3  C   UNL     1       7.411   8.599  17.335  0.00  0.00    +0.000 A 
ATOM      4  C   UNL     1       8.287   8.873  18.383  0.00  0.00    +0.000 A 
ATOM      5  C   UNL     1       8.687   7.804  19.183  0.00  0.00    +0.000 A 
ATOM      6  N   UNL     1       8.294   6.515  19.004  0.00  0.00    +0.000 NA
ENDROOT
BRANCH   4   7
ATOM      7  C   UNL     1       8.894  10.205  18.627  0.00  0.00    +0.000 C 
ATOM      8  O   UNL     1       9.577  10.336  19.637  0.00  0.00    +0.000 OA
ATOM      9  N   UNL     1       8.603  11.200  17.705  0.00  0.00    +0.000 N 
ATOM     10  H   UNL     1       7.867  11.017  17.036  0.00  0.00    +0.000 HD
BRANCH   9  11
ATOM     11  C   UNL     1       9.104  12.524  17.730  0.00  0.00    +0.000 A 
ATOM     12  C   UNL     1      10.442  12.850  17.470  0.00  0.00    +0.000 A 
ATOM     13  C   UNL     1      10.880  14.177  17.541  0.00  0.00    +0.000 A 
ATOM     14  C   UNL     1       9.982  15.178  17.874  0.00  0.00    +0.000 A 
ATOM     15  F   UNL     1      10.405  16.446  17.961  0.00  0.00    +0.000 F 
ATOM     16  C   UNL     1       8.647  14.882  18.116  0.00  0.00    +0.000 A 
ATOM     17  C   UNL     1       8.206  13.557  18.031  0.00  0.00    +0.000 A 
ENDBRANCH   9  11
ENDBRANCH   4   7
BRANCH   1  18
ATOM     18  S   UNL     1       7.101   4.574  17.551  0.00  0.00    +0.000 S 
BRANCH  18  19
ATOM     19  C   UNL     1       5.576   4.318  18.511  0.00  0.00    +0.000 C 
BRANCH  19  21
ATOM     20  O   UNL     1       3.994   4.412  16.663  0.00  0.00    +0.000 OA
ATOM     21  C   UNL     1       4.339   4.808  17.776  0.00  0.00    +0.000 C 
BRANCH  21  22
ATOM     22  C   UNL     1       3.460   5.813  18.456  0.00  0.00    +0.000 A 
ATOM     23  C   UNL     1       2.979   5.500  19.738  0.00  0.00    +0.000 A 
ATOM     24  C   UNL     1       2.182   6.407  20.442  0.00  0.00    +0.000 A 
ATOM     25  C   UNL     1       1.855   7.639  19.874  0.00  0.00    +0.000 A 
ATOM     26 CL   UNL     1       0.884   8.721  20.804  0.00  0.00    +0.000 Cl
ATOM     27  C   UNL     1       2.323   7.954  18.593  0.00  0.00    +0.000 A 
ATOM     28 CL   UNL     1       1.957   9.461  17.827  0.00  0.00    +0.000 Cl
ATOM     29  C   UNL     1       3.121   7.045  17.884  0.00  0.00    +0.000 A 
ENDBRANCH  21  22
ENDBRANCH  19  21
ENDBRANCH  18  19
ENDBRANCH   1  18
TORSDOF 6
ENDMDL
MODEL 9
REMARK VINA RESULT:      -7.1      6.428      9.139
REMARK  Name = 
REMARK  6 active torsions:
REMARK  status: ('A' for Active; 'I' for Inactive)
REMARK    1  A    between atoms: C_2  and  C_3
REMARK    2  A    between atoms: C_2  and  C_21
REMARK    3  A    between atoms: C_3  and  S_4
REMARK    4  A    between atoms: S_4  and  C_5
REMARK    5  A    between atoms: C_8  and  C_9
REMARK    6  A    between atoms: N_11  and  C_12
REMARK                            x       y       z     vdW  Elec       q    Type
REMARK                         _______ _______ _______ _____ _____    ______ ____
ROOT
ATOM      1  C   UNL     1      -0.262  10.224  21.515  0.00  0.00    +0.000 A 
ATOM      2  C   UNL     1       0.388   9.045  21.872  0.00  0.00    +0.000 A 
ATOM      3  C   UNL     1       1.128   8.348  20.911  0.00  0.00    +0.000 A 
ATOM      4  C   UNL     1       1.201   8.857  19.615  0.00  0.00    +0.000 A 
ATOM      5  C   UNL     1       0.502  10.032  19.345  0.00  0.00    +0.000 A 
ATOM      6  N   UNL     1      -0.233  10.722  20.258  0.00  0.00    +0.000 NA
ENDROOT
BRANCH   4   7
ATOM      7  C   UNL     1       2.057   8.282  18.548  0.00  0.00    +0.000 C 
ATOM      8  O   UNL     1       2.187   8.934  17.518  0.00  0.00    +0.000 OA
ATOM      9  N   UNL     1       2.607   7.033  18.798  0.00  0.00    +0.000 N 
ATOM     10  H   UNL     1       2.257   6.517  19.594  0.00  0.00    +0.000 HD
BRANCH   9  11
ATOM     11  C   UNL     1       3.477   6.324  17.934  0.00  0.00    +0.000 A 
ATOM     12  C   UNL     1       4.515   6.930  17.214  0.00  0.00    +0.000 A 
ATOM     13  C   UNL     1       5.320   6.177  16.352  0.00  0.00    +0.000 A 
ATOM     14  C   UNL     1       5.086   4.819  16.208  0.00  0.00    +0.000 A 
ATOM     15  F   UNL     1       5.844   4.100  15.368  0.00  0.00    +0.000 F 
ATOM     16  C   UNL     1       4.077   4.192  16.926  0.00  0.00    +0.000 A 
ATOM     17  C   UNL     1       3.280   4.943  17.798  0.00  0.00    +0.000 A 
ENDBRANCH   9  11
ENDBRANCH   4   7
BRANCH   1  18
ATOM     18  S   UNL     1      -1.026  11.204  22.795  0.00  0.00    +0.000 S 
BRANCH  18  19
ATOM     19  C   UNL     1      -1.289  12.772  21.909  0.00  0.00    +0.000 C 
BRANCH  19  21
ATOM     20  O   UNL     1      -3.011  14.156  22.930  0.00  0.00    +0.000 OA
ATOM     21  C   UNL     1      -2.698  13.312  22.092  0.00  0.00    +0.000 C 
BRANCH  21  22
ATOM     22  C   UNL     1      -3.773  12.815  21.173  0.00  0.00    +0.000 A 
ATOM     23  C   UNL     1      -3.409  12.482  19.859  0.00  0.00    +0.000 A 
ATOM     24  C   UNL     1      -4.356  11.981  18.962  0.00  0.00    +0.000 A 
ATOM     25  C   UNL     1      -5.680  11.806  19.366  0.00  0.00    +0.000 A 
ATOM     26 CL   UNL     1      -6.795  11.164  18.215  0.00  0.00    +0.000 Cl
ATOM     27  C   UNL     1      -6.053  12.144  20.673  0.00  0.00    +0.000 A 
ATOM     28 CL   UNL     1      -7.674  11.953  21.244  0.00  0.00    +0.000 Cl
ATOM     29  C   UNL     1      -5.104  12.648  21.574  0.00  0.00    +0.000 A 
ENDBRANCH  21  22
ENDBRANCH  19  21
ENDBRANCH  18  19
ENDBRANCH   1  18
TORSDOF 6
ENDMDL
