MODEL 1
REMARK VINA RESULT:      -7.5      0.000      0.000
REMARK  Name = 
REMARK  11 active torsions:
REMARK  status: ('A' for Active; 'I' for Inactive)
REMARK    1  A    between atoms: C_1  and  C_2
REMARK    2  A    between atoms: C_4  and  C_5
REMARK    3  A    between atoms: N_6  and  C_7
REMARK    4  A    between atoms: C_7  and  C_8
REMARK    5  A    between atoms: C_8  and  O_10
REMARK    6  A    between atoms: O_10  and  C_11
REMARK    7  A    between atoms: C_11  and  C_12
REMARK    8  A    between atoms: C_12  and  C_13
REMARK    9  A    between atoms: C_16  and  S_17
REMARK   10  A    between atoms: S_17  and  N_18
REMARK   11  A    between atoms: C_23  and  C_24
REMARK                            x       y       z     vdW  Elec       q    Type
REMARK                         _______ _______ _______ _____ _____    ______ ____
ROOT
ATOM      1  C   UNL     1       7.692   8.892  17.754  0.00  0.00    +0.000 C 
ENDROOT
BRANCH   1   2
ATOM      2  O   UNL     1       7.674   7.583  17.133  0.00  0.00    +0.000 OA
BRANCH   2   3
ATOM      3  C   UNL     1       6.691   6.735  17.536  0.00  0.00    +0.000 C 
ATOM      4  O   UNL     1       6.719   6.072  18.563  0.00  0.00    +0.000 OA
BRANCH   3   5
ATOM      5  C   UNL     1       5.542   6.713  16.561  0.00  0.00    +0.000 C 
BRANCH   5  11
ATOM      6  C   UNL     1       1.430   3.086  18.447  0.00  0.00    +0.000 C 
ATOM      7  C   UNL     1       2.470   4.021  17.900  0.00  0.00    +0.000 A 
ATOM      8  C   UNL     1       3.541   3.568  17.145  0.00  0.00    +0.000 A 
ATOM      9  C   UNL     1       4.514   4.457  16.652  0.00  0.00    +0.000 A 
ATOM     10  C   UNL     1       5.646   3.883  15.841  0.00  0.00    +0.000 C 
ATOM     11  N   UNL     1       4.420   5.801  16.927  0.00  0.00    +0.000 N 
ATOM     12  C   UNL     1       3.335   6.280  17.620  0.00  0.00    +0.000 A 
ATOM     13  C   UNL     1       3.126   7.741  17.927  0.00  0.00    +0.000 C 
ATOM     14  C   UNL     1       2.381   5.384  18.134  0.00  0.00    +0.000 A 
ENDBRANCH   5  11
ENDBRANCH   3   5
ENDBRANCH   2   3
ENDBRANCH   1   2
BRANCH   1  15
ATOM     15  C   UNL     1       8.855   9.033  18.744  0.00  0.00    +0.000 C 
BRANCH  15  16
ATOM     16  C   UNL     1       9.334  10.456  18.922  0.00  0.00    +0.000 A 
ATOM     17  C   UNL     1       9.387  11.042  20.198  0.00  0.00    +0.000 A 
ATOM     18  C   UNL     1       9.828  12.357  20.361  0.00  0.00    +0.000 A 
ATOM     19  C   UNL     1      10.243  13.086  19.245  0.00  0.00    +0.000 A 
ATOM     20  C   UNL     1      10.216  12.515  17.971  0.00  0.00    +0.000 A 
ATOM     21  C   UNL     1       9.770  11.200  17.815  0.00  0.00    +0.000 A 
BRANCH  19  22
ATOM     22  S   UNL     1      10.748  14.770  19.447  0.00  0.00    +0.000 S 
ATOM     23  O   UNL     1       9.722  15.476  20.184  0.00  0.00    +0.000 OA
ATOM     24  O   UNL     1      12.135  14.796  19.842  0.00  0.00    +0.000 OA
BRANCH  22  25
ATOM     25  N   UNL     1      10.683  15.346  17.875  0.00  0.00    +0.000 NA
ATOM     26  H   UNL     1      11.292  16.162  17.771  0.00  0.00    +0.000 HD
ATOM     27  H   UNL     1      10.893  14.597  17.215  0.00  0.00    +0.000 HD
ENDBRANCH  22  25
ENDBRANCH  19  22
ENDBRANCH  15  16
ENDBRANCH   1  15
TORSDOF 8
ENDMDL
MODEL 2
REMARK VINA RESULT:      -7.3      5.932      7.444
REMARK  Name = 
REMARK  11 active torsions:
REMARK  status: ('A' for Active; 'I' for Inactive)
REMARK    1  A    between atoms: C_1  and  C_2
REMARK    2  A    between atoms: C_4  and  C_5
REMARK    3  A    between atoms: N_6  and  C_7
REMARK    4  A    between atoms: C_7  and  C_8
REMARK    5  A    between atoms: C_8  and  O_10
REMARK    6  A    between atoms: O_10  and  C_11
REMARK    7  A    between atoms: C_11  and  C_12
REMARK    8  A    between atoms: C_12  and  C_13
REMARK    9  A    between atoms: C_16  and  S_17
REMARK   10  A    between atoms: S_17  and  N_18
REMARK   11  A    between atoms: C_23  and  C_24
REMARK                            x       y       z     vdW  Elec       q    Type
REMARK                         _______ _______ _______ _____ _____    ______ ____
ROOT
ATOM      1  C   UNL     1       2.556   6.657  18.143  0.00  0.00    +0.000 C 
ENDROOT
BRANCH   1   2
ATOM      2  O   UNL     1       3.751   6.355  18.905  0.00  0.00    +0.000 OA
BRANCH   2   3
ATOM      3  C   UNL     1       3.713   5.234  19.673  0.00  0.00    +0.000 C 
ATOM      4  O   UNL     1       2.792   4.930  20.418  0.00  0.00    +0.000 OA
BRANCH   3   5
ATOM      5  C   UNL     1       4.949   4.393  19.489  0.00  0.00    +0.000 C 
BRANCH   5  11
ATOM      6  C   UNL     1       6.841   4.782  14.022  0.00  0.00    +0.000 C 
ATOM      7  C   UNL     1       6.370   4.621  15.439  0.00  0.00    +0.000 A 
ATOM      8  C   UNL     1       5.210   3.931  15.754  0.00  0.00    +0.000 A 
ATOM      9  C   UNL     1       4.777   3.801  17.086  0.00  0.00    +0.000 A 
ATOM     10  C   UNL     1       3.504   3.036  17.342  0.00  0.00    +0.000 C 
ATOM     11  N   UNL     1       5.502   4.375  18.104  0.00  0.00    +0.000 N 
ATOM     12  C   UNL     1       6.686   5.009  17.822  0.00  0.00    +0.000 A 
ATOM     13  C   UNL     1       7.568   5.626  18.878  0.00  0.00    +0.000 C 
ATOM     14  C   UNL     1       7.100   5.160  16.486  0.00  0.00    +0.000 A 
ENDBRANCH   5  11
ENDBRANCH   3   5
ENDBRANCH   2   3
ENDBRANCH   1   2
BRANCH   1  15
ATOM     15  C   UNL     1       2.488   8.141  17.761  0.00  0.00    +0.000 C 
BRANCH  15  16
ATOM     16  C   UNL     1       1.755   8.996  18.771  0.00  0.00    +0.000 A 
ATOM     17  C   UNL     1       1.459   8.501  20.052  0.00  0.00    +0.000 A 
ATOM     18  C   UNL     1       0.782   9.291  20.982  0.00  0.00    +0.000 A 
ATOM     19  C   UNL     1       0.417  10.595  20.642  0.00  0.00    +0.000 A 
ATOM     20  C   UNL     1       0.719  11.112  19.380  0.00  0.00    +0.000 A 
ATOM     21  C   UNL     1       1.395  10.314  18.453  0.00  0.00    +0.000 A 
BRANCH  19  22
ATOM     22  S   UNL     1      -0.491  11.575  21.802  0.00  0.00    +0.000 S 
ATOM     23  O   UNL     1      -1.773  11.911  21.221  0.00  0.00    +0.000 OA
ATOM     24  O   UNL     1      -0.373  10.976  23.110  0.00  0.00    +0.000 OA
BRANCH  22  25
ATOM     25  N   UNL     1       0.401  12.992  21.838  0.00  0.00    +0.000 NA
ATOM     26  H   UNL     1       1.401  12.781  21.871  0.00  0.00    +0.000 HD
ATOM     27  H   UNL     1       0.140  13.594  21.056  0.00  0.00    +0.000 HD
ENDBRANCH  22  25
ENDBRANCH  19  22
ENDBRANCH  15  16
ENDBRANCH   1  15
TORSDOF 8
ENDMDL
MODEL 3
REMARK VINA RESULT:      -7.2      6.339      9.409
REMARK  Name = 
REMARK  11 active torsions:
REMARK  status: ('A' for Active; 'I' for Inactive)
REMARK    1  A    between atoms: C_1  and  C_2
REMARK    2  A    between atoms: C_4  and  C_5
REMARK    3  A    between atoms: N_6  and  C_7
REMARK    4  A    between atoms: C_7  and  C_8
REMARK    5  A    between atoms: C_8  and  O_10
REMARK    6  A    between atoms: O_10  and  C_11
REMARK    7  A    between atoms: C_11  and  C_12
REMARK    8  A    between atoms: C_12  and  C_13
REMARK    9  A    between atoms: C_16  and  S_17
REMARK   10  A    between atoms: S_17  and  N_18
REMARK   11  A    between atoms: C_23  and  C_24
REMARK                            x       y       z     vdW  Elec       q    Type
REMARK                         _______ _______ _______ _____ _____    ______ ____
ROOT
ATOM      1  C   UNL     1       2.018   8.303  19.123  0.00  0.00    +0.000 C 
ENDROOT
BRANCH   1   2
ATOM      2  O   UNL     1       1.129   8.897  20.101  0.00  0.00    +0.000 OA
BRANCH   2   3
ATOM      3  C   UNL     1       0.464  10.017  19.714  0.00  0.00    +0.000 C 
ATOM      4  O   UNL     1      -0.199  10.116  18.690  0.00  0.00    +0.000 OA
BRANCH   3   5
ATOM      5  C   UNL     1       0.631  11.135  20.709  0.00  0.00    +0.000 C 
BRANCH   5  11
ATOM      6  C   UNL     1      -3.925  13.073  23.728  0.00  0.00    +0.000 C 
ATOM      7  C   UNL     1      -2.780  12.522  22.928  0.00  0.00    +0.000 A 
ATOM      8  C   UNL     1      -2.041  11.432  23.358  0.00  0.00    +0.000 A 
ATOM      9  C   UNL     1      -0.963  10.937  22.601  0.00  0.00    +0.000 A 
ATOM     10  C   UNL     1      -0.210   9.749  23.140  0.00  0.00    +0.000 C 
ATOM     11  N   UNL     1      -0.618  11.544  21.417  0.00  0.00    +0.000 N 
ATOM     12  C   UNL     1      -1.375  12.586  20.940  0.00  0.00    +0.000 A 
ATOM     13  C   UNL     1      -1.099  13.281  19.631  0.00  0.00    +0.000 C 
ATOM     14  C   UNL     1      -2.434  13.094  21.714  0.00  0.00    +0.000 A 
ENDBRANCH   5  11
ENDBRANCH   3   5
ENDBRANCH   2   3
ENDBRANCH   1   2
BRANCH   1  15
ATOM     15  C   UNL     1       2.427   6.879  19.520  0.00  0.00    +0.000 C 
BRANCH  15  16
ATOM     16  C   UNL     1       3.570   6.323  18.701  0.00  0.00    +0.000 A 
ATOM     17  C   UNL     1       4.337   5.247  19.177  0.00  0.00    +0.000 A 
ATOM     18  C   UNL     1       5.394   4.736  18.420  0.00  0.00    +0.000 A 
ATOM     19  C   UNL     1       5.672   5.285  17.168  0.00  0.00    +0.000 A 
ATOM     20  C   UNL     1       4.909   6.343  16.669  0.00  0.00    +0.000 A 
ATOM     21  C   UNL     1       3.856   6.852  17.433  0.00  0.00    +0.000 A 
BRANCH  19  22
ATOM     22  S   UNL     1       7.046   4.673  16.236  0.00  0.00    +0.000 S 
ATOM     23  O   UNL     1       7.346   5.616  15.180  0.00  0.00    +0.000 OA
ATOM     24  O   UNL     1       8.054   4.197  17.151  0.00  0.00    +0.000 OA
BRANCH  22  25
ATOM     25  N   UNL     1       6.391   3.321  15.493  0.00  0.00    +0.000 NA
ATOM     26  H   UNL     1       7.136   2.696  15.176  0.00  0.00    +0.000 HD
ATOM     27  H   UNL     1       5.718   2.870  16.112  0.00  0.00    +0.000 HD
ENDBRANCH  22  25
ENDBRANCH  19  22
ENDBRANCH  15  16
ENDBRANCH   1  15
TORSDOF 8
ENDMDL
MODEL 4
REMARK VINA RESULT:      -7.2      0.860      2.102
REMARK  Name = 
REMARK  11 active torsions:
REMARK  status: ('A' for Active; 'I' for Inactive)
REMARK    1  A    between atoms: C_1  and  C_2
REMARK    2  A    between atoms: C_4  and  C_5
REMARK    3  A    between atoms: N_6  and  C_7
REMARK    4  A    between atoms: C_7  and  C_8
REMARK    5  A    between atoms: C_8  and  O_10
REMARK    6  A    between atoms: O_10  and  C_11
REMARK    7  A    between atoms: C_11  and  C_12
REMARK    8  A    between atoms: C_12  and  C_13
REMARK    9  A    between atoms: C_16  and  S_17
REMARK   10  A    between atoms: S_17  and  N_18
REMARK   11  A    between atoms: C_23  and  C_24
REMARK                            x       y       z     vdW  Elec       q    Type
REMARK                         _______ _______ _______ _____ _____    ______ ____
ROOT
ATOM      1  C   UNL     1       7.548   8.399  17.548  0.00  0.00    +0.000 C 
ENDROOT
BRANCH   1   2
ATOM      2  O   UNL     1       6.995   7.070  17.712  0.00  0.00    +0.000 OA
BRANCH   2   3
ATOM      3  C   UNL     1       6.809   6.347  16.576  0.00  0.00    +0.000 C 
ATOM      4  O   UNL     1       7.682   5.706  16.006  0.00  0.00    +0.000 OA
BRANCH   3   5
ATOM      5  C   UNL     1       5.382   6.419  16.099  0.00  0.00    +0.000 C 
BRANCH   5  11
ATOM      6  C   UNL     1       1.294   3.217  18.679  0.00  0.00    +0.000 C 
ATOM      7  C   UNL     1       2.382   4.052  18.067  0.00  0.00    +0.000 A 
ATOM      8  C   UNL     1       2.442   5.425  18.246  0.00  0.00    +0.000 A 
ATOM      9  C   UNL     1       3.461   6.194  17.653  0.00  0.00    +0.000 A 
ATOM     10  C   UNL     1       3.454   7.680  17.896  0.00  0.00    +0.000 C 
ATOM     11  N   UNL     1       4.414   5.586  16.871  0.00  0.00    +0.000 N 
ATOM     12  C   UNL     1       4.411   4.220  16.731  0.00  0.00    +0.000 A 
ATOM     13  C   UNL     1       5.442   3.465  15.931  0.00  0.00    +0.000 C 
ATOM     14  C   UNL     1       3.374   3.460  17.302  0.00  0.00    +0.000 A 
ENDBRANCH   5  11
ENDBRANCH   3   5
ENDBRANCH   2   3
ENDBRANCH   1   2
BRANCH   1  15
ATOM     15  C   UNL     1       8.570   8.727  18.643  0.00  0.00    +0.000 C 
BRANCH  15  16
ATOM     16  C   UNL     1       9.010  10.174  18.653  0.00  0.00    +0.000 A 
ATOM     17  C   UNL     1       8.481  11.091  17.730  0.00  0.00    +0.000 A 
ATOM     18  C   UNL     1       8.888  12.427  17.740  0.00  0.00    +0.000 A 
ATOM     19  C   UNL     1       9.813  12.857  18.693  0.00  0.00    +0.000 A 
ATOM     20  C   UNL     1      10.336  11.964  19.631  0.00  0.00    +0.000 A 
ATOM     21  C   UNL     1       9.926  10.628  19.613  0.00  0.00    +0.000 A 
BRANCH  19  22
ATOM     22  S   UNL     1      10.370  14.536  18.667  0.00  0.00    +0.000 S 
ATOM     23  O   UNL     1       9.256  15.399  19.000  0.00  0.00    +0.000 OA
ATOM     24  O   UNL     1      11.636  14.617  19.353  0.00  0.00    +0.000 OA
BRANCH  22  25
ATOM     25  N   UNL     1      10.686  14.776  17.040  0.00  0.00    +0.000 NA
ATOM     26  H   UNL     1      10.783  13.877  16.562  0.00  0.00    +0.000 HD
ATOM     27  H   UNL     1       9.976  15.381  16.627  0.00  0.00    +0.000 HD
ENDBRANCH  22  25
ENDBRANCH  19  22
ENDBRANCH  15  16
ENDBRANCH   1  15
TORSDOF 8
ENDMDL
MODEL 5
REMARK VINA RESULT:      -7.1      3.591     10.000
REMARK  Name = 
REMARK  11 active torsions:
REMARK  status: ('A' for Active; 'I' for Inactive)
REMARK    1  A    between atoms: C_1  and  C_2
REMARK    2  A    between atoms: C_4  and  C_5
REMARK    3  A    between atoms: N_6  and  C_7
REMARK    4  A    between atoms: C_7  and  C_8
REMARK    5  A    between atoms: C_8  and  O_10
REMARK    6  A    between atoms: O_10  and  C_11
REMARK    7  A    between atoms: C_11  and  C_12
REMARK    8  A    between atoms: C_12  and  C_13
REMARK    9  A    between atoms: C_16  and  S_17
REMARK   10  A    between atoms: S_17  and  N_18
REMARK   11  A    between atoms: C_23  and  C_24
REMARK                            x       y       z     vdW  Elec       q    Type
REMARK                         _______ _______ _______ _____ _____    ______ ____
ROOT
ATOM      1  C   UNL     1       7.883   9.059  17.948  0.00  0.00    +0.000 C 
ENDROOT
BRANCH   1   2
ATOM      2  O   UNL     1       8.854   9.102  19.023  0.00  0.00    +0.000 OA
BRANCH   2   3
ATOM      3  C   UNL     1       9.290  10.333  19.397  0.00  0.00    +0.000 C 
ATOM      4  O   UNL     1       9.151  10.814  20.513  0.00  0.00    +0.000 OA
BRANCH   3   5
ATOM      5  C   UNL     1       9.981  11.045  18.263  0.00  0.00    +0.000 C 
BRANCH   5  11
ATOM      6  C   UNL     1      10.941  16.757  18.543  0.00  0.00    +0.000 C 
ATOM      7  C   UNL     1      10.678  15.279  18.532  0.00  0.00    +0.000 A 
ATOM      8  C   UNL     1      11.568  14.370  19.082  0.00  0.00    +0.000 A 
ATOM      9  C   UNL     1      11.311  12.987  19.050  0.00  0.00    +0.000 A 
ATOM     10  C   UNL     1      12.331  12.066  19.669  0.00  0.00    +0.000 C 
ATOM     11  N   UNL     1      10.165  12.513  18.457  0.00  0.00    +0.000 N 
ATOM     12  C   UNL     1       9.239  13.398  17.962  0.00  0.00    +0.000 A 
ATOM     13  C   UNL     1       7.935  12.972  17.336  0.00  0.00    +0.000 C 
ATOM     14  C   UNL     1       9.514  14.778  17.971  0.00  0.00    +0.000 A 
ENDBRANCH   5  11
ENDBRANCH   3   5
ENDBRANCH   2   3
ENDBRANCH   1   2
BRANCH   1  15
ATOM     15  C   UNL     1       7.936   7.728  17.189  0.00  0.00    +0.000 C 
BRANCH  15  16
ATOM     16  C   UNL     1       6.817   6.776  17.548  0.00  0.00    +0.000 A 
ATOM     17  C   UNL     1       5.669   6.681  16.744  0.00  0.00    +0.000 A 
ATOM     18  C   UNL     1       4.636   5.803  17.078  0.00  0.00    +0.000 A 
ATOM     19  C   UNL     1       4.759   4.995  18.209  0.00  0.00    +0.000 A 
ATOM     20  C   UNL     1       5.901   5.061  19.011  0.00  0.00    +0.000 A 
ATOM     21  C   UNL     1       6.929   5.944  18.673  0.00  0.00    +0.000 A 
BRANCH  19  22
ATOM     22  S   UNL     1       3.424   3.924  18.662  0.00  0.00    +0.000 S 
ATOM     23  O   UNL     1       3.375   3.831  20.105  0.00  0.00    +0.000 OA
ATOM     24  O   UNL     1       2.266   4.266  17.873  0.00  0.00    +0.000 OA
BRANCH  22  25
ATOM     25  N   UNL     1       3.965   2.438  18.108  0.00  0.00    +0.000 NA
ATOM     26  H   UNL     1       4.895   2.532  17.693  0.00  0.00    +0.000 HD
ATOM     27  H   UNL     1       3.921   1.745  18.856  0.00  0.00    +0.000 HD
ENDBRANCH  22  25
ENDBRANCH  19  22
ENDBRANCH  15  16
ENDBRANCH   1  15
TORSDOF 8
ENDMDL
MODEL 6
REMARK VINA RESULT:      -7.1      3.796     10.103
REMARK  Name = 
REMARK  11 active torsions:
REMARK  status: ('A' for Active; 'I' for Inactive)
REMARK    1  A    between atoms: C_1  and  C_2
REMARK    2  A    between atoms: C_4  and  C_5
REMARK    3  A    between atoms: N_6  and  C_7
REMARK    4  A    between atoms: C_7  and  C_8
REMARK    5  A    between atoms: C_8  and  O_10
REMARK    6  A    between atoms: O_10  and  C_11
REMARK    7  A    between atoms: C_11  and  C_12
REMARK    8  A    between atoms: C_12  and  C_13
REMARK    9  A    between atoms: C_16  and  S_17
REMARK   10  A    between atoms: S_17  and  N_18
REMARK   11  A    between atoms: C_23  and  C_24
REMARK                            x       y       z     vdW  Elec       q    Type
REMARK                         _______ _______ _______ _____ _____    ______ ____
ROOT
ATOM      1  C   UNL     1       8.037   8.107  17.988  0.00  0.00    +0.000 C 
ENDROOT
BRANCH   1   2
ATOM      2  O   UNL     1       8.094   9.555  17.984  0.00  0.00    +0.000 OA
BRANCH   2   3
ATOM      3  C   UNL     1       9.058  10.125  18.753  0.00  0.00    +0.000 C 
ATOM      4  O   UNL     1       9.220   9.906  19.945  0.00  0.00    +0.000 OA
BRANCH   3   5
ATOM      5  C   UNL     1       9.923  11.064  17.953  0.00  0.00    +0.000 C 
BRANCH   5  11
ATOM      6  C   UNL     1      10.365  16.643  19.472  0.00  0.00    +0.000 C 
ATOM      7  C   UNL     1      10.230  15.185  19.137  0.00  0.00    +0.000 A 
ATOM      8  C   UNL     1      11.145  14.243  19.580  0.00  0.00    +0.000 A 
ATOM      9  C   UNL     1      11.010  12.882  19.245  0.00  0.00    +0.000 A 
ATOM     10  C   UNL     1      12.049  11.923  19.765  0.00  0.00    +0.000 C 
ATOM     11  N   UNL     1       9.964  12.469  18.456  0.00  0.00    +0.000 N 
ATOM     12  C   UNL     1       9.011  13.374  18.058  0.00  0.00    +0.000 A 
ATOM     13  C   UNL     1       7.807  13.002  17.230  0.00  0.00    +0.000 C 
ATOM     14  C   UNL     1       9.166  14.737  18.372  0.00  0.00    +0.000 A 
ENDBRANCH   5  11
ENDBRANCH   3   5
ENDBRANCH   2   3
ENDBRANCH   1   2
BRANCH   1  15
ATOM     15  C   UNL     1       6.980   7.579  17.009  0.00  0.00    +0.000 C 
BRANCH  15  16
ATOM     16  C   UNL     1       6.206   6.390  17.532  0.00  0.00    +0.000 A 
ATOM     17  C   UNL     1       6.606   5.733  18.708  0.00  0.00    +0.000 A 
ATOM     18  C   UNL     1       5.890   4.635  19.189  0.00  0.00    +0.000 A 
ATOM     19  C   UNL     1       4.753   4.202  18.506  0.00  0.00    +0.000 A 
ATOM     20  C   UNL     1       4.328   4.854  17.346  0.00  0.00    +0.000 A 
ATOM     21  C   UNL     1       5.051   5.950  16.869  0.00  0.00    +0.000 A 
BRANCH  19  22
ATOM     22  S   UNL     1       3.881   2.776  19.086  0.00  0.00    +0.000 S 
ATOM     23  O   UNL     1       2.851   3.206  20.008  0.00  0.00    +0.000 OA
ATOM     24  O   UNL     1       3.598   1.915  17.964  0.00  0.00    +0.000 OA
BRANCH  22  25
ATOM     25  N   UNL     1       5.047   2.002  20.006  0.00  0.00    +0.000 NA
ATOM     26  H   UNL     1       4.693   1.822  20.949  0.00  0.00    +0.000 HD
ATOM     27  H   UNL     1       5.375   1.162  19.529  0.00  0.00    +0.000 HD
ENDBRANCH  22  25
ENDBRANCH  19  22
ENDBRANCH  15  16
ENDBRANCH   1  15
TORSDOF 8
ENDMDL
MODEL 7
REMARK VINA RESULT:      -7.1      5.145      7.332
REMARK  Name = 
REMARK  11 active torsions:
REMARK  status: ('A' for Active; 'I' for Inactive)
REMARK    1  A    between atoms: C_1  and  C_2
REMARK    2  A    between atoms: C_4  and  C_5
REMARK    3  A    between atoms: N_6  and  C_7
REMARK    4  A    between atoms: C_7  and  C_8
REMARK    5  A    between atoms: C_8  and  O_10
REMARK    6  A    between atoms: O_10  and  C_11
REMARK    7  A    between atoms: C_11  and  C_12
REMARK    8  A    between atoms: C_12  and  C_13
REMARK    9  A    between atoms: C_16  and  S_17
REMARK   10  A    between atoms: S_17  and  N_18
REMARK   11  A    between atoms: C_23  and  C_24
REMARK                            x       y       z     vdW  Elec       q    Type
REMARK                         _______ _______ _______ _____ _____    ______ ____
ROOT
ATOM      1  C   UNL     1       1.935   5.132  18.737  0.00  0.00    +0.000 C 
ENDROOT
BRANCH   1   2
ATOM      2  O   UNL     1       2.650   4.889  17.500  0.00  0.00    +0.000 OA
BRANCH   2   3
ATOM      3  C   UNL     1       2.959   3.595  17.223  0.00  0.00    +0.000 C 
ATOM      4  O   UNL     1       2.163   2.666  17.254  0.00  0.00    +0.000 OA
BRANCH   3   5
ATOM      5  C   UNL     1       4.412   3.435  16.861  0.00  0.00    +0.000 C 
BRANCH   5  11
ATOM      6  C   UNL     1       8.305   7.352  18.628  0.00  0.00    +0.000 C 
ATOM      7  C   UNL     1       7.252   6.372  18.200  0.00  0.00    +0.000 A 
ATOM      8  C   UNL     1       6.699   5.456  19.080  0.00  0.00    +0.000 A 
ATOM      9  C   UNL     1       5.723   4.535  18.658  0.00  0.00    +0.000 A 
ATOM     10  C   UNL     1       5.174   3.572  19.678  0.00  0.00    +0.000 C 
ATOM     11  N   UNL     1       5.308   4.525  17.347  0.00  0.00    +0.000 N 
ATOM     12  C   UNL     1       5.796   5.464  16.472  0.00  0.00    +0.000 A 
ATOM     13  C   UNL     1       5.365   5.556  15.030  0.00  0.00    +0.000 C 
ATOM     14  C   UNL     1       6.792   6.363  16.893  0.00  0.00    +0.000 A 
ENDBRANCH   5  11
ENDBRANCH   3   5
ENDBRANCH   2   3
ENDBRANCH   1   2
BRANCH   1  15
ATOM     15  C   UNL     1       2.648   6.174  19.608  0.00  0.00    +0.000 C 
BRANCH  15  16
ATOM     16  C   UNL     1       2.084   7.571  19.471  0.00  0.00    +0.000 A 
ATOM     17  C   UNL     1       2.168   8.263  18.251  0.00  0.00    +0.000 A 
ATOM     18  C   UNL     1       1.648   9.553  18.127  0.00  0.00    +0.000 A 
ATOM     19  C   UNL     1       1.017  10.148  19.221  0.00  0.00    +0.000 A 
ATOM     20  C   UNL     1       0.906   9.469  20.436  0.00  0.00    +0.000 A 
ATOM     21  C   UNL     1       1.432   8.180  20.554  0.00  0.00    +0.000 A 
BRANCH  19  22
ATOM     22  S   UNL     1       0.409  11.804  19.077  0.00  0.00    +0.000 S 
ATOM     23  O   UNL     1      -0.876  11.769  18.412  0.00  0.00    +0.000 OA
ATOM     24  O   UNL     1       0.606  12.483  20.335  0.00  0.00    +0.000 OA
BRANCH  22  25
ATOM     25  N   UNL     1       1.488  12.481  17.989  0.00  0.00    +0.000 NA
ATOM     26  H   UNL     1       2.181  11.787  17.701  0.00  0.00    +0.000 HD
ATOM     27  H   UNL     1       0.985  12.901  17.207  0.00  0.00    +0.000 HD
ENDBRANCH  22  25
ENDBRANCH  19  22
ENDBRANCH  15  16
ENDBRANCH   1  15
TORSDOF 8
ENDMDL
MODEL 8
REMARK VINA RESULT:      -7.1      6.054      7.696
REMARK  Name = 
REMARK  11 active torsions:
REMARK  status: ('A' for Active; 'I' for Inactive)
REMARK    1  A    between atoms: C_1  and  C_2
REMARK    2  A    between atoms: C_4  and  C_5
REMARK    3  A    between atoms: N_6  and  C_7
REMARK    4  A    between atoms: C_7  and  C_8
REMARK    5  A    between atoms: C_8  and  O_10
REMARK    6  A    between atoms: O_10  and  C_11
REMARK    7  A    between atoms: C_11  and  C_12
REMARK    8  A    between atoms: C_12  and  C_13
REMARK    9  A    between atoms: C_16  and  S_17
REMARK   10  A    between atoms: S_17  and  N_18
REMARK   11  A    between atoms: C_23  and  C_24
REMARK                            x       y       z     vdW  Elec       q    Type
REMARK                         _______ _______ _______ _____ _____    ______ ____
ROOT
ATOM      1  C   UNL     1       2.482   6.769  19.240  0.00  0.00    +0.000 C 
ENDROOT
BRANCH   1   2
ATOM      2  O   UNL     1       3.694   6.069  19.615  0.00  0.00    +0.000 OA
BRANCH   2   3
ATOM      3  C   UNL     1       3.569   4.742  19.881  0.00  0.00    +0.000 C 
ATOM      4  O   UNL     1       2.599   4.226  20.419  0.00  0.00    +0.000 OA
BRANCH   3   5
ATOM      5  C   UNL     1       4.777   3.967  19.423  0.00  0.00    +0.000 C 
BRANCH   5  11
ATOM      6  C   UNL     1       6.988   4.896  14.144  0.00  0.00    +0.000 C 
ATOM      7  C   UNL     1       6.400   4.717  15.513  0.00  0.00    +0.000 A 
ATOM      8  C   UNL     1       7.048   5.160  16.655  0.00  0.00    +0.000 A 
ATOM      9  C   UNL     1       6.488   4.971  17.932  0.00  0.00    +0.000 A 
ATOM     10  C   UNL     1       7.258   5.482  19.122  0.00  0.00    +0.000 C 
ATOM     11  N   UNL     1       5.281   4.326  18.065  0.00  0.00    +0.000 N 
ATOM     12  C   UNL     1       4.591   3.935  16.944  0.00  0.00    +0.000 A 
ATOM     13  C   UNL     1       3.242   3.263  16.993  0.00  0.00    +0.000 C 
ATOM     14  C   UNL     1       5.168   4.101  15.673  0.00  0.00    +0.000 A 
ENDBRANCH   5  11
ENDBRANCH   3   5
ENDBRANCH   2   3
ENDBRANCH   1   2
BRANCH   1  15
ATOM     15  C   UNL     1       1.898   7.559  20.417  0.00  0.00    +0.000 C 
BRANCH  15  16
ATOM     16  C   UNL     1       1.201   8.838  20.007  0.00  0.00    +0.000 A 
ATOM     17  C   UNL     1       1.233   9.276  18.672  0.00  0.00    +0.000 A 
ATOM     18  C   UNL     1       0.591  10.457  18.295  0.00  0.00    +0.000 A 
ATOM     19  C   UNL     1      -0.109  11.195  19.250  0.00  0.00    +0.000 A 
ATOM     20  C   UNL     1      -0.168  10.766  20.578  0.00  0.00    +0.000 A 
ATOM     21  C   UNL     1       0.480   9.585  20.949  0.00  0.00    +0.000 A 
BRANCH  19  22
ATOM     22  S   UNL     1      -0.875  12.720  18.782  0.00  0.00    +0.000 S 
ATOM     23  O   UNL     1      -1.994  12.967  19.665  0.00  0.00    +0.000 OA
ATOM     24  O   UNL     1       0.154  13.705  18.550  0.00  0.00    +0.000 OA
BRANCH  22  25
ATOM     25  N   UNL     1      -1.526  12.340  17.285  0.00  0.00    +0.000 NA
ATOM     26  H   UNL     1      -1.283  11.380  17.027  0.00  0.00    +0.000 HD
ATOM     27  H   UNL     1      -2.530  12.520  17.281  0.00  0.00    +0.000 HD
ENDBRANCH  22  25
ENDBRANCH  19  22
ENDBRANCH  15  16
ENDBRANCH   1  15
TORSDOF 8
ENDMDL
MODEL 9
REMARK VINA RESULT:      -7.1      6.132      8.785
REMARK  Name = 
REMARK  11 active torsions:
REMARK  status: ('A' for Active; 'I' for Inactive)
REMARK    1  A    between atoms: C_1  and  C_2
REMARK    2  A    between atoms: C_4  and  C_5
REMARK    3  A    between atoms: N_6  and  C_7
REMARK    4  A    between atoms: C_7  and  C_8
REMARK    5  A    between atoms: C_8  and  O_10
REMARK    6  A    between atoms: O_10  and  C_11
REMARK    7  A    between atoms: C_11  and  C_12
REMARK    8  A    between atoms: C_12  and  C_13
REMARK    9  A    between atoms: C_16  and  S_17
REMARK   10  A    between atoms: S_17  and  N_18
REMARK   11  A    between atoms: C_23  and  C_24
REMARK                            x       y       z     vdW  Elec       q    Type
REMARK                         _______ _______ _______ _____ _____    ______ ____
ROOT
ATOM      1  C   UNL     1       1.826   8.096  20.949  0.00  0.00    +0.000 C 
ENDROOT
BRANCH   1   2
ATOM      2  O   UNL     1       0.509   8.600  21.282  0.00  0.00    +0.000 OA
BRANCH   2   3
ATOM      3  C   UNL     1       0.453   9.859  21.792  0.00  0.00    +0.000 C 
ATOM      4  O   UNL     1       0.250  10.127  22.968  0.00  0.00    +0.000 OA
BRANCH   3   5
ATOM      5  C   UNL     1       0.684  10.900  20.727  0.00  0.00    +0.000 C 
BRANCH   5  11
ATOM      6  C   UNL     1      -4.091  11.503  17.493  0.00  0.00    +0.000 C 
ATOM      7  C   UNL     1      -2.825  11.388  18.293  0.00  0.00    +0.000 A 
ATOM      8  C   UNL     1      -1.734  10.665  17.840  0.00  0.00    +0.000 A 
ATOM      9  C   UNL     1      -0.560  10.556  18.608  0.00  0.00    +0.000 A 
ATOM     10  C   UNL     1       0.581   9.750  18.043  0.00  0.00    +0.000 C 
ATOM     11  N   UNL     1      -0.485  11.164  19.839  0.00  0.00    +0.000 N 
ATOM     12  C   UNL     1      -1.530  11.938  20.280  0.00  0.00    +0.000 A 
ATOM     13  C   UNL     1      -1.517  12.678  21.594  0.00  0.00    +0.000 C 
ATOM     14  C   UNL     1      -2.711  12.020  19.521  0.00  0.00    +0.000 A 
ENDBRANCH   5  11
ENDBRANCH   3   5
ENDBRANCH   2   3
ENDBRANCH   1   2
BRANCH   1  15
ATOM     15  C   UNL     1       1.750   6.726  20.264  0.00  0.00    +0.000 C 
BRANCH  15  16
ATOM     16  C   UNL     1       2.896   6.456  19.314  0.00  0.00    +0.000 A 
ATOM     17  C   UNL     1       3.053   7.217  18.144  0.00  0.00    +0.000 A 
ATOM     18  C   UNL     1       4.111   6.966  17.267  0.00  0.00    +0.000 A 
ATOM     19  C   UNL     1       5.034   5.965  17.572  0.00  0.00    +0.000 A 
ATOM     20  C   UNL     1       4.906   5.210  18.740  0.00  0.00    +0.000 A 
ATOM     21  C   UNL     1       3.843   5.464  19.611  0.00  0.00    +0.000 A 
BRANCH  19  22
ATOM     22  S   UNL     1       6.340   5.611  16.432  0.00  0.00    +0.000 S 
ATOM     23  O   UNL     1       6.932   4.339  16.787  0.00  0.00    +0.000 OA
ATOM     24  O   UNL     1       5.882   5.901  15.095  0.00  0.00    +0.000 OA
BRANCH  22  25
ATOM     25  N   UNL     1       7.471   6.785  16.820  0.00  0.00    +0.000 NA
ATOM     26  H   UNL     1       7.567   6.862  17.835  0.00  0.00    +0.000 HD
ATOM     27  H   UNL     1       8.353   6.598  16.342  0.00  0.00    +0.000 HD
ENDBRANCH  22  25
ENDBRANCH  19  22
ENDBRANCH  15  16
ENDBRANCH   1  15
TORSDOF 8
ENDMDL
