MODEL 1
REMARK VINA RESULT:      -8.7      0.000      0.000
REMARK  Name = 
REMARK  9 active torsions:
REMARK  status: ('A' for Active; 'I' for Inactive)
REMARK    1  A    between atoms: C_1  and  O_2
REMARK    2  A    between atoms: O_2  and  C_3
REMARK    3  A    between atoms: C_6  and  C_7
REMARK    4  A    between atoms: C_12  and  C_13
REMARK    5  A    between atoms: C_21  and  N_22
REMARK    6  A    between atoms: N_22  and  C_23
REMARK    7  A    between atoms: C_23  and  C_24
REMARK    8  A    between atoms: C_24  and  C_25
REMARK    9  A    between atoms: C_25  and  N_26
REMARK                            x       y       z     vdW  Elec       q    Type
REMARK                         _______ _______ _______ _____ _____    ______ ____
ROOT
ATOM      1  C   UNL     1       3.759   6.192  17.694  0.00  0.00    +0.000 A 
ATOM      2  C   UNL     1       3.223   7.441  17.426  0.00  0.00    +0.000 A 
ATOM      3  C   UNL     1       2.422   8.061  18.350  0.00  0.00    +0.000 A 
ATOM      4  N   UNL     1       1.975   9.287  18.046  0.00  0.00    +0.000 NA
ATOM      5  C   UNL     1       1.222   9.933  18.966  0.00  0.00    +0.000 A 
ATOM      6  C   UNL     1       0.844   9.412  20.200  0.00  0.00    +0.000 A 
ATOM      7  C   UNL     1       1.311   8.115  20.470  0.00  0.00    +0.000 A 
ATOM      8  C   UNL     1       2.131   7.408  19.555  0.00  0.00    +0.000 A 
ATOM      9  C   UNL     1       2.709   6.133  19.777  0.00  0.00    +0.000 A 
ATOM     10  N   UNL     1       3.502   5.542  18.854  0.00  0.00    +0.000 NA
ENDROOT
BRANCH   1  14
ATOM     11  C   UNL     1       6.167   4.200  14.722  0.00  0.00    +0.000 A 
ATOM     12  C   UNL     1       6.019   5.583  14.701  0.00  0.00    +0.000 A 
ATOM     13  C   UNL     1       5.275   6.230  15.690  0.00  0.00    +0.000 A 
ATOM     14  C   UNL     1       4.627   5.510  16.712  0.00  0.00    +0.000 A 
ATOM     15  C   UNL     1       4.800   4.117  16.725  0.00  0.00    +0.000 A 
ATOM     16  C   UNL     1       5.557   3.465  15.738  0.00  0.00    +0.000 A 
BRANCH  11  18
ATOM     17  C   UNL     1       6.149   3.399  12.501  0.00  0.00    +0.000 C 
ATOM     18  O   UNL     1       6.886   3.685  13.682  0.00  0.00    +0.000 OA
ENDBRANCH  11  18
ENDBRANCH   1  14
BRANCH   6  19
ATOM     19  C   UNL     1       0.045  10.191  21.161  0.00  0.00    +0.000 A 
ATOM     20  C   UNL     1      -0.246   9.704  22.449  0.00  0.00    +0.000 A 
ATOM     21  C   UNL     1      -1.033  10.435  23.343  0.00  0.00    +0.000 A 
ATOM     22  C   UNL     1      -1.538  11.678  22.973  0.00  0.00    +0.000 A 
ATOM     23  C   UNL     1      -1.259  12.186  21.708  0.00  0.00    +0.000 A 
ATOM     24  C   UNL     1      -0.482  11.449  20.811  0.00  0.00    +0.000 A 
ENDBRANCH   6  19
BRANCH   9  25
ATOM     25  N   UNL     1       2.490   5.487  21.006  0.00  0.00    +0.000 N 
ATOM     26  H   UNL     1       1.927   6.055  21.631  0.00  0.00    +0.000 HD
BRANCH  25  27
ATOM     27  C   UNL     1       2.181   4.060  20.988  0.00  0.00    +0.000 C 
BRANCH  27  28
ATOM     28  C   UNL     1       0.855   3.756  20.290  0.00  0.00    +0.000 C 
BRANCH  28  29
ATOM     29  C   UNL     1       1.020   2.745  19.157  0.00  0.00    +0.000 C 
BRANCH  29  30
ATOM     30  N   UNL     1       1.322   3.429  17.901  0.00  0.00    +0.000 NA
ATOM     31  H   UNL     1       0.580   4.095  17.685  0.00  0.00    +0.000 HD
ATOM     32  H   UNL     1       1.317   2.750  17.139  0.00  0.00    +0.000 HD
ENDBRANCH  29  30
ENDBRANCH  28  29
ENDBRANCH  27  28
ENDBRANCH  25  27
ENDBRANCH   9  25
TORSDOF 8
ENDMDL
MODEL 2
REMARK VINA RESULT:      -8.3      0.730      1.220
REMARK  Name = 
REMARK  9 active torsions:
REMARK  status: ('A' for Active; 'I' for Inactive)
REMARK    1  A    between atoms: C_1  and  O_2
REMARK    2  A    between atoms: O_2  and  C_3
REMARK    3  A    between atoms: C_6  and  C_7
REMARK    4  A    between atoms: C_12  and  C_13
REMARK    5  A    between atoms: C_21  and  N_22
REMARK    6  A    between atoms: N_22  and  C_23
REMARK    7  A    between atoms: C_23  and  C_24
REMARK    8  A    between atoms: C_24  and  C_25
REMARK    9  A    between atoms: C_25  and  N_26
REMARK                            x       y       z     vdW  Elec       q    Type
REMARK                         _______ _______ _______ _____ _____    ______ ____
ROOT
ATOM      1  C   UNL     1       3.761   6.195  17.649  0.00  0.00    +0.000 A 
ATOM      2  C   UNL     1       3.265   7.464  17.401  0.00  0.00    +0.000 A 
ATOM      3  C   UNL     1       2.457   8.082  18.320  0.00  0.00    +0.000 A 
ATOM      4  N   UNL     1       2.050   9.326  18.037  0.00  0.00    +0.000 NA
ATOM      5  C   UNL     1       1.291   9.969  18.954  0.00  0.00    +0.000 A 
ATOM      6  C   UNL     1       0.868   9.427  20.164  0.00  0.00    +0.000 A 
ATOM      7  C   UNL     1       1.293   8.112  20.412  0.00  0.00    +0.000 A 
ATOM      8  C   UNL     1       2.118   7.406  19.500  0.00  0.00    +0.000 A 
ATOM      9  C   UNL     1       2.656   6.111  19.703  0.00  0.00    +0.000 A 
ATOM     10  N   UNL     1       3.457   5.523  18.785  0.00  0.00    +0.000 NA
ENDROOT
BRANCH   1  14
ATOM     11  C   UNL     1       6.188   4.201  14.694  0.00  0.00    +0.000 A 
ATOM     12  C   UNL     1       5.987   5.576  14.633  0.00  0.00    +0.000 A 
ATOM     13  C   UNL     1       5.237   6.226  15.616  0.00  0.00    +0.000 A 
ATOM     14  C   UNL     1       4.636   5.516  16.672  0.00  0.00    +0.000 A 
ATOM     15  C   UNL     1       4.863   4.130  16.725  0.00  0.00    +0.000 A 
ATOM     16  C   UNL     1       5.626   3.477  15.744  0.00  0.00    +0.000 A 
BRANCH  11  18
ATOM     17  C   UNL     1       6.191   3.484  12.444  0.00  0.00    +0.000 C 
ATOM     18  O   UNL     1       6.907   3.681  13.656  0.00  0.00    +0.000 OA
ENDBRANCH  11  18
ENDBRANCH   1  14
BRANCH   6  19
ATOM     19  C   UNL     1       0.064  10.203  21.125  0.00  0.00    +0.000 A 
ATOM     20  C   UNL     1      -0.407  11.494  20.823  0.00  0.00    +0.000 A 
ATOM     21  C   UNL     1      -1.140  12.237  21.752  0.00  0.00    +0.000 A 
ATOM     22  C   UNL     1      -1.431  11.699  23.002  0.00  0.00    +0.000 A 
ATOM     23  C   UNL     1      -0.983  10.422  23.323  0.00  0.00    +0.000 A 
ATOM     24  C   UNL     1      -0.240   9.685  22.398  0.00  0.00    +0.000 A 
ENDBRANCH   6  19
BRANCH   9  25
ATOM     25  N   UNL     1       2.389   5.440  20.909  0.00  0.00    +0.000 N 
ATOM     26  H   UNL     1       2.332   6.085  21.690  0.00  0.00    +0.000 HD
BRANCH  25  27
ATOM     27  C   UNL     1       1.400   4.366  20.894  0.00  0.00    +0.000 C 
BRANCH  27  28
ATOM     28  C   UNL     1       1.997   3.013  21.284  0.00  0.00    +0.000 C 
BRANCH  28  29
ATOM     29  C   UNL     1       2.683   2.326  20.105  0.00  0.00    +0.000 C 
BRANCH  29  30
ATOM     30  N   UNL     1       4.078   2.750  20.008  0.00  0.00    +0.000 NA
ATOM     31  H   UNL     1       4.379   3.152  20.895  0.00  0.00    +0.000 HD
ATOM     32  H   UNL     1       4.154   3.502  19.322  0.00  0.00    +0.000 HD
ENDBRANCH  29  30
ENDBRANCH  28  29
ENDBRANCH  27  28
ENDBRANCH  25  27
ENDBRANCH   9  25
TORSDOF 8
ENDMDL
MODEL 3
REMARK VINA RESULT:      -7.8      0.669      1.403
REMARK  Name = 
REMARK  9 active torsions:
REMARK  status: ('A' for Active; 'I' for Inactive)
REMARK    1  A    between atoms: C_1  and  O_2
REMARK    2  A    between atoms: O_2  and  C_3
REMARK    3  A    between atoms: C_6  and  C_7
REMARK    4  A    between atoms: C_12  and  C_13
REMARK    5  A    between atoms: C_21  and  N_22
REMARK    6  A    between atoms: N_22  and  C_23
REMARK    7  A    between atoms: C_23  and  C_24
REMARK    8  A    between atoms: C_24  and  C_25
REMARK    9  A    between atoms: C_25  and  N_26
REMARK                            x       y       z     vdW  Elec       q    Type
REMARK                         _______ _______ _______ _____ _____    ______ ____
ROOT
ATOM      1  C   UNL     1       3.473   6.557  17.736  0.00  0.00    +0.000 A 
ATOM      2  C   UNL     1       3.004   7.831  17.466  0.00  0.00    +0.000 A 
ATOM      3  C   UNL     1       2.248   8.500  18.394  0.00  0.00    +0.000 A 
ATOM      4  N   UNL     1       1.866   9.747  18.087  0.00  0.00    +0.000 NA
ATOM      5  C   UNL     1       1.161  10.439  19.011  0.00  0.00    +0.000 A 
ATOM      6  C   UNL     1       0.769   9.947  20.252  0.00  0.00    +0.000 A 
ATOM      7  C   UNL     1       1.166   8.628  20.526  0.00  0.00    +0.000 A 
ATOM      8  C   UNL     1       1.935   7.871  19.607  0.00  0.00    +0.000 A 
ATOM      9  C   UNL     1       2.445   6.568  19.831  0.00  0.00    +0.000 A 
ATOM     10  N   UNL     1       3.193   5.929  18.903  0.00  0.00    +0.000 NA
ENDROOT
BRANCH   1  14
ATOM     11  C   UNL     1       5.978   4.399  14.967  0.00  0.00    +0.000 A 
ATOM     12  C   UNL     1       5.182   3.715  15.880  0.00  0.00    +0.000 A 
ATOM     13  C   UNL     1       4.339   4.415  16.747  0.00  0.00    +0.000 A 
ATOM     14  C   UNL     1       4.291   5.822  16.749  0.00  0.00    +0.000 A 
ATOM     15  C   UNL     1       5.090   6.493  15.809  0.00  0.00    +0.000 A 
ATOM     16  C   UNL     1       5.930   5.791  14.930  0.00  0.00    +0.000 A 
BRANCH  11  18
ATOM     17  C   UNL     1       6.671   3.780  12.796  0.00  0.00    +0.000 C 
ATOM     18  O   UNL     1       6.784   3.604  14.202  0.00  0.00    +0.000 OA
ENDBRANCH  11  18
ENDBRANCH   1  14
BRANCH   6  19
ATOM     19  C   UNL     1       0.024  10.776  21.217  0.00  0.00    +0.000 A 
ATOM     20  C   UNL     1      -0.031  12.177  21.101  0.00  0.00    +0.000 A 
ATOM     21  C   UNL     1      -0.712  12.958  22.039  0.00  0.00    +0.000 A 
ATOM     22  C   UNL     1      -1.364  12.353  23.109  0.00  0.00    +0.000 A 
ATOM     23  C   UNL     1      -1.331  10.969  23.243  0.00  0.00    +0.000 A 
ATOM     24  C   UNL     1      -0.640  10.190  22.311  0.00  0.00    +0.000 A 
ENDBRANCH   6  19
BRANCH   9  25
ATOM     25  N   UNL     1       2.205   5.942  21.066  0.00  0.00    +0.000 N 
ATOM     26  H   UNL     1       1.450   6.394  21.573  0.00  0.00    +0.000 HD
BRANCH  25  27
ATOM     27  C   UNL     1       2.220   4.483  21.114  0.00  0.00    +0.000 C 
BRANCH  27  28
ATOM     28  C   UNL     1       0.956   3.863  20.517  0.00  0.00    +0.000 C 
BRANCH  28  29
ATOM     29  C   UNL     1       1.272   2.896  19.378  0.00  0.00    +0.000 C 
BRANCH  29  30
ATOM     30  N   UNL     1       2.712   2.660  19.292  0.00  0.00    +0.000 NA
ATOM     31  H   UNL     1       3.018   2.105  20.091  0.00  0.00    +0.000 HD
ATOM     32  H   UNL     1       3.203   3.551  19.368  0.00  0.00    +0.000 HD
ENDBRANCH  29  30
ENDBRANCH  28  29
ENDBRANCH  27  28
ENDBRANCH  25  27
ENDBRANCH   9  25
TORSDOF 8
ENDMDL
MODEL 4
REMARK VINA RESULT:      -7.6      2.645      5.370
REMARK  Name = 
REMARK  9 active torsions:
REMARK  status: ('A' for Active; 'I' for Inactive)
REMARK    1  A    between atoms: C_1  and  O_2
REMARK    2  A    between atoms: O_2  and  C_3
REMARK    3  A    between atoms: C_6  and  C_7
REMARK    4  A    between atoms: C_12  and  C_13
REMARK    5  A    between atoms: C_21  and  N_22
REMARK    6  A    between atoms: N_22  and  C_23
REMARK    7  A    between atoms: C_23  and  C_24
REMARK    8  A    between atoms: C_24  and  C_25
REMARK    9  A    between atoms: C_25  and  N_26
REMARK                            x       y       z     vdW  Elec       q    Type
REMARK                         _______ _______ _______ _____ _____    ______ ____
ROOT
ATOM      1  C   UNL     1       1.730   7.826  19.852  0.00  0.00    +0.000 A 
ATOM      2  C   UNL     1       1.167   7.870  21.116  0.00  0.00    +0.000 A 
ATOM      3  C   UNL     1       0.531   9.005  21.549  0.00  0.00    +0.000 A 
ATOM      4  N   UNL     1      -0.032   8.965  22.764  0.00  0.00    +0.000 NA
ATOM      5  C   UNL     1      -0.704  10.059  23.188  0.00  0.00    +0.000 A 
ATOM      6  C   UNL     1      -0.833  11.246  22.473  0.00  0.00    +0.000 A 
ATOM      7  C   UNL     1      -0.208  11.257  21.215  0.00  0.00    +0.000 A 
ATOM      8  C   UNL     1       0.480  10.126  20.710  0.00  0.00    +0.000 A 
ATOM      9  C   UNL     1       1.070  10.023  19.426  0.00  0.00    +0.000 A 
ATOM     10  N   UNL     1       1.688   8.891  19.017  0.00  0.00    +0.000 NA
ENDROOT
BRANCH   1  14
ATOM     11  C   UNL     1       3.601   4.242  18.349  0.00  0.00    +0.000 A 
ATOM     12  C   UNL     1       3.639   5.421  17.613  0.00  0.00    +0.000 A 
ATOM     13  C   UNL     1       3.071   6.592  18.122  0.00  0.00    +0.000 A 
ATOM     14  C   UNL     1       2.417   6.610  19.368  0.00  0.00    +0.000 A 
ATOM     15  C   UNL     1       2.401   5.413  20.103  0.00  0.00    +0.000 A 
ATOM     16  C   UNL     1       2.982   4.238  19.599  0.00  0.00    +0.000 A 
BRANCH  11  18
ATOM     17  C   UNL     1       3.564   1.903  18.024  0.00  0.00    +0.000 C 
ATOM     18  O   UNL     1       4.159   3.160  17.729  0.00  0.00    +0.000 OA
ENDBRANCH  11  18
ENDBRANCH   1  14
BRANCH   6  19
ATOM     19  C   UNL     1      -1.608  12.386  22.992  0.00  0.00    +0.000 A 
ATOM     20  C   UNL     1      -1.035  13.663  23.144  0.00  0.00    +0.000 A 
ATOM     21  C   UNL     1      -1.767  14.731  23.668  0.00  0.00    +0.000 A 
ATOM     22  C   UNL     1      -3.094  14.550  24.043  0.00  0.00    +0.000 A 
ATOM     23  C   UNL     1      -3.687  13.301  23.898  0.00  0.00    +0.000 A 
ATOM     24  C   UNL     1      -2.951  12.230  23.383  0.00  0.00    +0.000 A 
ENDBRANCH   6  19
BRANCH   9  25
ATOM     25  N   UNL     1       0.973  11.108  18.537  0.00  0.00    +0.000 N 
ATOM     26  H   UNL     1       0.005  11.339  18.336  0.00  0.00    +0.000 HD
BRANCH  25  27
ATOM     27  C   UNL     1       1.871  12.242  18.734  0.00  0.00    +0.000 C 
BRANCH  27  28
ATOM     28  C   UNL     1       1.252  13.565  18.281  0.00  0.00    +0.000 C 
BRANCH  28  29
ATOM     29  C   UNL     1      -0.244  13.633  18.581  0.00  0.00    +0.000 C 
BRANCH  29  30
ATOM     30  N   UNL     1      -1.008  12.984  17.518  0.00  0.00    +0.000 NA
ATOM     31  H   UNL     1      -0.478  13.012  16.647  0.00  0.00    +0.000 HD
ATOM     32  H   UNL     1      -1.860  13.518  17.342  0.00  0.00    +0.000 HD
ENDBRANCH  29  30
ENDBRANCH  28  29
ENDBRANCH  27  28
ENDBRANCH  25  27
ENDBRANCH   9  25
TORSDOF 8
ENDMDL
MODEL 5
REMARK VINA RESULT:      -7.5      1.081      1.546
REMARK  Name = 
REMARK  9 active torsions:
REMARK  status: ('A' for Active; 'I' for Inactive)
REMARK    1  A    between atoms: C_1  and  O_2
REMARK    2  A    between atoms: O_2  and  C_3
REMARK    3  A    between atoms: C_6  and  C_7
REMARK    4  A    between atoms: C_12  and  C_13
REMARK    5  A    between atoms: C_21  and  N_22
REMARK    6  A    between atoms: N_22  and  C_23
REMARK    7  A    between atoms: C_23  and  C_24
REMARK    8  A    between atoms: C_24  and  C_25
REMARK    9  A    between atoms: C_25  and  N_26
REMARK                            x       y       z     vdW  Elec       q    Type
REMARK                         _______ _______ _______ _____ _____    ______ ____
ROOT
ATOM      1  C   UNL     1       3.455   6.729  17.848  0.00  0.00    +0.000 A 
ATOM      2  C   UNL     1       3.015   7.995  17.498  0.00  0.00    +0.000 A 
ATOM      3  C   UNL     1       2.169   8.685  18.326  0.00  0.00    +0.000 A 
ATOM      4  N   UNL     1       1.820   9.923  17.948  0.00  0.00    +0.000 NA
ATOM      5  C   UNL     1       1.024  10.637  18.776  0.00  0.00    +0.000 A 
ATOM      6  C   UNL     1       0.507  10.177  19.983  0.00  0.00    +0.000 A 
ATOM      7  C   UNL     1       0.874   8.867  20.331  0.00  0.00    +0.000 A 
ATOM      8  C   UNL     1       1.733   8.088  19.516  0.00  0.00    +0.000 A 
ATOM      9  C   UNL     1       2.217   6.793  19.826  0.00  0.00    +0.000 A 
ATOM     10  N   UNL     1       3.057   6.131  18.997  0.00  0.00    +0.000 NA
ENDROOT
BRANCH   1  14
ATOM     11  C   UNL     1       6.004   4.504  15.174  0.00  0.00    +0.000 A 
ATOM     12  C   UNL     1       5.855   5.879  15.028  0.00  0.00    +0.000 A 
ATOM     13  C   UNL     1       5.063   6.604  15.921  0.00  0.00    +0.000 A 
ATOM     14  C   UNL     1       4.370   5.971  16.970  0.00  0.00    +0.000 A 
ATOM     15  C   UNL     1       4.545   4.584  17.111  0.00  0.00    +0.000 A 
ATOM     16  C   UNL     1       5.350   3.856  16.220  0.00  0.00    +0.000 A 
BRANCH  11  18
ATOM     17  C   UNL     1       7.344   4.777  13.249  0.00  0.00    +0.000 C 
ATOM     18  O   UNL     1       6.773   3.906  14.217  0.00  0.00    +0.000 OA
ENDBRANCH  11  18
ENDBRANCH   1  14
BRANCH   6  19
ATOM     19  C   UNL     1      -0.333  11.028  20.844  0.00  0.00    +0.000 A 
ATOM     20  C   UNL     1      -1.038  12.133  20.331  0.00  0.00    +0.000 A 
ATOM     21  C   UNL     1      -1.806  12.955  21.161  0.00  0.00    +0.000 A 
ATOM     22  C   UNL     1      -1.896  12.683  22.522  0.00  0.00    +0.000 A 
ATOM     23  C   UNL     1      -1.214  11.594  23.054  0.00  0.00    +0.000 A 
ATOM     24  C   UNL     1      -0.438  10.779  22.226  0.00  0.00    +0.000 A 
ENDBRANCH   6  19
BRANCH   9  25
ATOM     25  N   UNL     1       1.852   6.199  21.046  0.00  0.00    +0.000 N 
ATOM     26  H   UNL     1       0.900   6.438  21.307  0.00  0.00    +0.000 HD
BRANCH  25  27
ATOM     27  C   UNL     1       2.250   4.814  21.285  0.00  0.00    +0.000 C 
BRANCH  27  28
ATOM     28  C   UNL     1       1.186   3.812  20.833  0.00  0.00    +0.000 C 
BRANCH  28  29
ATOM     29  C   UNL     1       1.363   2.448  21.497  0.00  0.00    +0.000 C 
BRANCH  29  30
ATOM     30  N   UNL     1       2.718   2.308  22.025  0.00  0.00    +0.000 NA
ATOM     31  H   UNL     1       3.130   3.230  22.166  0.00  0.00    +0.000 HD
ATOM     32  H   UNL     1       3.304   1.845  21.330  0.00  0.00    +0.000 HD
ENDBRANCH  29  30
ENDBRANCH  28  29
ENDBRANCH  27  28
ENDBRANCH  25  27
ENDBRANCH   9  25
TORSDOF 8
ENDMDL
MODEL 6
REMARK VINA RESULT:      -7.5      2.503      4.951
REMARK  Name = 
REMARK  9 active torsions:
REMARK  status: ('A' for Active; 'I' for Inactive)
REMARK    1  A    between atoms: C_1  and  O_2
REMARK    2  A    between atoms: O_2  and  C_3
REMARK    3  A    between atoms: C_6  and  C_7
REMARK    4  A    between atoms: C_12  and  C_13
REMARK    5  A    between atoms: C_21  and  N_22
REMARK    6  A    between atoms: N_22  and  C_23
REMARK    7  A    between atoms: C_23  and  C_24
REMARK    8  A    between atoms: C_24  and  C_25
REMARK    9  A    between atoms: C_25  and  N_26
REMARK                            x       y       z     vdW  Elec       q    Type
REMARK                         _______ _______ _______ _____ _____    ______ ____
ROOT
ATOM      1  C   UNL     1       1.666   8.278  19.327  0.00  0.00    +0.000 A 
ATOM      2  C   UNL     1       1.430   8.294  20.691  0.00  0.00    +0.000 A 
ATOM      3  C   UNL     1       0.680   9.297  21.249  0.00  0.00    +0.000 A 
ATOM      4  N   UNL     1       0.451   9.227  22.568  0.00  0.00    +0.000 NA
ATOM      5  C   UNL     1      -0.327  10.181  23.128  0.00  0.00    +0.000 A 
ATOM      6  C   UNL     1      -0.887  11.258  22.446  0.00  0.00    +0.000 A 
ATOM      7  C   UNL     1      -0.603  11.310  21.072  0.00  0.00    +0.000 A 
ATOM      8  C   UNL     1       0.178  10.317  20.430  0.00  0.00    +0.000 A 
ATOM      9  C   UNL     1       0.449  10.248  19.041  0.00  0.00    +0.000 A 
ATOM     10  N   UNL     1       1.186   9.245  18.510  0.00  0.00    +0.000 NA
ENDROOT
BRANCH   1  14
ATOM     11  C   UNL     1       4.118   5.156  17.641  0.00  0.00    +0.000 A 
ATOM     12  C   UNL     1       3.185   4.865  18.631  0.00  0.00    +0.000 A 
ATOM     13  C   UNL     1       2.362   5.870  19.144  0.00  0.00    +0.000 A 
ATOM     14  C   UNL     1       2.470   7.203  18.707  0.00  0.00    +0.000 A 
ATOM     15  C   UNL     1       3.406   7.474  17.696  0.00  0.00    +0.000 A 
ATOM     16  C   UNL     1       4.227   6.463  17.171  0.00  0.00    +0.000 A 
BRANCH  11  18
ATOM     17  C   UNL     1       5.515   4.225  15.980  0.00  0.00    +0.000 C 
ATOM     18  O   UNL     1       4.885   4.096  17.248  0.00  0.00    +0.000 OA
ENDBRANCH  11  18
ENDBRANCH   1  14
BRANCH   6  19
ATOM     19  C   UNL     1      -1.749  12.243  23.124  0.00  0.00    +0.000 A 
ATOM     20  C   UNL     1      -3.051  11.920  23.547  0.00  0.00    +0.000 A 
ATOM     21  C   UNL     1      -3.874  12.870  24.160  0.00  0.00    +0.000 A 
ATOM     22  C   UNL     1      -3.407  14.163  24.374  0.00  0.00    +0.000 A 
ATOM     23  C   UNL     1      -2.121  14.506  23.971  0.00  0.00    +0.000 A 
ATOM     24  C   UNL     1      -1.303  13.560  23.349  0.00  0.00    +0.000 A 
ENDBRANCH   6  19
BRANCH   9  25
ATOM     25  N   UNL     1      -0.101  11.219  18.187  0.00  0.00    +0.000 N 
ATOM     26  H   UNL     1       0.471  11.354  17.359  0.00  0.00    +0.000 HD
BRANCH  25  27
ATOM     27  C   UNL     1      -1.545  11.208  17.970  0.00  0.00    +0.000 C 
BRANCH  27  28
ATOM     28  C   UNL     1      -1.966  10.228  16.874  0.00  0.00    +0.000 C 
BRANCH  28  29
ATOM     29  C   UNL     1      -2.777  10.909  15.774  0.00  0.00    +0.000 C 
BRANCH  29  30
ATOM     30  N   UNL     1      -2.917  10.024  14.619  0.00  0.00    +0.000 NA
ATOM     31  H   UNL     1      -2.002   9.666  14.347  0.00  0.00    +0.000 HD
ATOM     32  H   UNL     1      -3.252  10.564  13.821  0.00  0.00    +0.000 HD
ENDBRANCH  29  30
ENDBRANCH  28  29
ENDBRANCH  27  28
ENDBRANCH  25  27
ENDBRANCH   9  25
TORSDOF 8
ENDMDL
MODEL 7
REMARK VINA RESULT:      -7.5      2.669      5.151
REMARK  Name = 
REMARK  9 active torsions:
REMARK  status: ('A' for Active; 'I' for Inactive)
REMARK    1  A    between atoms: C_1  and  O_2
REMARK    2  A    between atoms: O_2  and  C_3
REMARK    3  A    between atoms: C_6  and  C_7
REMARK    4  A    between atoms: C_12  and  C_13
REMARK    5  A    between atoms: C_21  and  N_22
REMARK    6  A    between atoms: N_22  and  C_23
REMARK    7  A    between atoms: C_23  and  C_24
REMARK    8  A    between atoms: C_24  and  C_25
REMARK    9  A    between atoms: C_25  and  N_26
REMARK                            x       y       z     vdW  Elec       q    Type
REMARK                         _______ _______ _______ _____ _____    ______ ____
ROOT
ATOM      1  C   UNL     1       1.580   8.198  19.829  0.00  0.00    +0.000 A 
ATOM      2  C   UNL     1       1.181   8.268  21.153  0.00  0.00    +0.000 A 
ATOM      3  C   UNL     1       0.447   9.338  21.597  0.00  0.00    +0.000 A 
ATOM      4  N   UNL     1       0.055   9.320  22.878  0.00  0.00    +0.000 NA
ATOM      5  C   UNL     1      -0.711  10.343  23.321  0.00  0.00    +0.000 A 
ATOM      6  C   UNL     1      -1.101  11.440  22.557  0.00  0.00    +0.000 A 
ATOM      7  C   UNL     1      -0.648  11.434  21.228  0.00  0.00    +0.000 A 
ATOM      8  C   UNL     1       0.127  10.370  20.704  0.00  0.00    +0.000 A 
ATOM      9  C   UNL     1       0.559  10.243  19.361  0.00  0.00    +0.000 A 
ATOM     10  N   UNL     1       1.278   9.176  18.942  0.00  0.00    +0.000 NA
ENDROOT
BRANCH   1  14
ATOM     11  C   UNL     1       3.755   4.809  18.285  0.00  0.00    +0.000 A 
ATOM     12  C   UNL     1       3.725   6.009  17.583  0.00  0.00    +0.000 A 
ATOM     13  C   UNL     1       3.056   7.118  18.106  0.00  0.00    +0.000 A 
ATOM     14  C   UNL     1       2.369   7.051  19.332  0.00  0.00    +0.000 A 
ATOM     15  C   UNL     1       2.425   5.836  20.034  0.00  0.00    +0.000 A 
ATOM     16  C   UNL     1       3.106   4.723  19.516  0.00  0.00    +0.000 A 
BRANCH  11  18
ATOM     17  C   UNL     1       3.790   2.514  17.731  0.00  0.00    +0.000 C 
ATOM     18  O   UNL     1       4.410   3.791  17.652  0.00  0.00    +0.000 OA
ENDBRANCH  11  18
ENDBRANCH   1  14
BRANCH   6  19
ATOM     19  C   UNL     1      -1.961  12.503  23.106  0.00  0.00    +0.000 A 
ATOM     20  C   UNL     1      -1.505  13.827  23.241  0.00  0.00    +0.000 A 
ATOM     21  C   UNL     1      -2.316  14.823  23.793  0.00  0.00    +0.000 A 
ATOM     22  C   UNL     1      -3.608  14.518  24.211  0.00  0.00    +0.000 A 
ATOM     23  C   UNL     1      -4.085  13.218  24.083  0.00  0.00    +0.000 A 
ATOM     24  C   UNL     1      -3.270  12.221  23.542  0.00  0.00    +0.000 A 
ENDBRANCH   6  19
BRANCH   9  25
ATOM     25  N   UNL     1       0.193  11.229  18.428  0.00  0.00    +0.000 N 
ATOM     26  H   UNL     1       0.894  11.333  17.701  0.00  0.00    +0.000 HD
BRANCH  25  27
ATOM     27  C   UNL     1      -1.198  11.276  17.985  0.00  0.00    +0.000 C 
BRANCH  27  28
ATOM     28  C   UNL     1      -1.648   9.971  17.328  0.00  0.00    +0.000 C 
BRANCH  28  29
ATOM     29  C   UNL     1      -2.894  10.162  16.465  0.00  0.00    +0.000 C 
BRANCH  29  30
ATOM     30  N   UNL     1      -2.860  11.462  15.800  0.00  0.00    +0.000 NA
ATOM     31  H   UNL     1      -3.764  11.924  15.901  0.00  0.00    +0.000 HD
ATOM     32  H   UNL     1      -2.730  11.324  14.797  0.00  0.00    +0.000 HD
ENDBRANCH  29  30
ENDBRANCH  28  29
ENDBRANCH  27  28
ENDBRANCH  25  27
ENDBRANCH   9  25
TORSDOF 8
ENDMDL
MODEL 8
REMARK VINA RESULT:      -7.4      2.427      4.738
REMARK  Name = 
REMARK  9 active torsions:
REMARK  status: ('A' for Active; 'I' for Inactive)
REMARK    1  A    between atoms: C_1  and  O_2
REMARK    2  A    between atoms: O_2  and  C_3
REMARK    3  A    between atoms: C_6  and  C_7
REMARK    4  A    between atoms: C_12  and  C_13
REMARK    5  A    between atoms: C_21  and  N_22
REMARK    6  A    between atoms: N_22  and  C_23
REMARK    7  A    between atoms: C_23  and  C_24
REMARK    8  A    between atoms: C_24  and  C_25
REMARK    9  A    between atoms: C_25  and  N_26
REMARK                            x       y       z     vdW  Elec       q    Type
REMARK                         _______ _______ _______ _____ _____    ______ ____
ROOT
ATOM      1  C   UNL     1       1.763   8.125  19.032  0.00  0.00    +0.000 A 
ATOM      2  C   UNL     1       1.709   8.259  20.409  0.00  0.00    +0.000 A 
ATOM      3  C   UNL     1       0.927   9.231  20.977  0.00  0.00    +0.000 A 
ATOM      4  N   UNL     1       0.885   9.275  22.316  0.00  0.00    +0.000 NA
ATOM      5  C   UNL     1       0.080  10.196  22.894  0.00  0.00    +0.000 A 
ATOM      6  C   UNL     1      -0.690  11.130  22.208  0.00  0.00    +0.000 A 
ATOM      7  C   UNL     1      -0.599  11.067  20.808  0.00  0.00    +0.000 A 
ATOM      8  C   UNL     1       0.202  10.100  20.151  0.00  0.00    +0.000 A 
ATOM      9  C   UNL     1       0.292   9.914  18.749  0.00  0.00    +0.000 A 
ATOM     10  N   UNL     1       1.066   8.945  18.209  0.00  0.00    +0.000 NA
ENDROOT
BRANCH   1  14
ATOM     11  C   UNL     1       4.123   5.107  17.051  0.00  0.00    +0.000 A 
ATOM     12  C   UNL     1       4.476   6.449  16.965  0.00  0.00    +0.000 A 
ATOM     13  C   UNL     1       3.736   7.421  17.644  0.00  0.00    +0.000 A 
ATOM     14  C   UNL     1       2.599   7.082  18.401  0.00  0.00    +0.000 A 
ATOM     15  C   UNL     1       2.267   5.720  18.488  0.00  0.00    +0.000 A 
ATOM     16  C   UNL     1       3.017   4.741  17.816  0.00  0.00    +0.000 A 
BRANCH  11  18
ATOM     17  C   UNL     1       6.239   4.691  16.089  0.00  0.00    +0.000 C 
ATOM     18  O   UNL     1       4.903   4.261  16.314  0.00  0.00    +0.000 OA
ENDBRANCH  11  18
ENDBRANCH   1  14
BRANCH   6  19
ATOM     19  C   UNL     1      -1.565  12.084  22.911  0.00  0.00    +0.000 A 
ATOM     20  C   UNL     1      -1.168  13.413  23.153  0.00  0.00    +0.000 A 
ATOM     21  C   UNL     1      -1.990  14.302  23.850  0.00  0.00    +0.000 A 
ATOM     22  C   UNL     1      -3.235  13.886  24.312  0.00  0.00    +0.000 A 
ATOM     23  C   UNL     1      -3.654  12.581  24.080  0.00  0.00    +0.000 A 
ATOM     24  C   UNL     1      -2.827  11.689  23.393  0.00  0.00    +0.000 A 
ENDBRANCH   6  19
BRANCH   9  25
ATOM     25  N   UNL     1      -0.479  10.727  17.900  0.00  0.00    +0.000 N 
ATOM     26  H   UNL     1       0.097  11.404  17.410  0.00  0.00    +0.000 HD
BRANCH  25  27
ATOM     27  C   UNL     1      -1.532  10.095  17.110  0.00  0.00    +0.000 C 
BRANCH  27  28
ATOM     28  C   UNL     1      -2.763   9.746  17.948  0.00  0.00    +0.000 C 
BRANCH  28  29
ATOM     29  C   UNL     1      -3.936  10.682  17.664  0.00  0.00    +0.000 C 
BRANCH  29  30
ATOM     30  N   UNL     1      -3.466  11.913  17.033  0.00  0.00    +0.000 NA
ATOM     31  H   UNL     1      -4.264  12.460  16.710  0.00  0.00    +0.000 HD
ATOM     32  H   UNL     1      -2.932  11.679  16.195  0.00  0.00    +0.000 HD
ENDBRANCH  29  30
ENDBRANCH  28  29
ENDBRANCH  27  28
ENDBRANCH  25  27
ENDBRANCH   9  25
TORSDOF 8
ENDMDL
MODEL 9
REMARK VINA RESULT:      -7.4      2.879      5.446
REMARK  Name = 
REMARK  9 active torsions:
REMARK  status: ('A' for Active; 'I' for Inactive)
REMARK    1  A    between atoms: C_1  and  O_2
REMARK    2  A    between atoms: O_2  and  C_3
REMARK    3  A    between atoms: C_6  and  C_7
REMARK    4  A    between atoms: C_12  and  C_13
REMARK    5  A    between atoms: C_21  and  N_22
REMARK    6  A    between atoms: N_22  and  C_23
REMARK    7  A    between atoms: C_23  and  C_24
REMARK    8  A    between atoms: C_24  and  C_25
REMARK    9  A    between atoms: C_25  and  N_26
REMARK                            x       y       z     vdW  Elec       q    Type
REMARK                         _______ _______ _______ _____ _____    ______ ____
ROOT
ATOM      1  C   UNL     1       1.395   8.691  19.406  0.00  0.00    +0.000 A 
ATOM      2  C   UNL     1       1.224   8.943  20.757  0.00  0.00    +0.000 A 
ATOM      3  C   UNL     1       0.314   9.878  21.175  0.00  0.00    +0.000 A 
ATOM      4  N   UNL     1       0.166  10.038  22.497  0.00  0.00    +0.000 NA
ATOM      5  C   UNL     1      -0.762  10.923  22.929  0.00  0.00    +0.000 A 
ATOM      6  C   UNL     1      -1.560  11.711  22.105  0.00  0.00    +0.000 A 
ATOM      7  C   UNL     1      -1.357  11.533  20.727  0.00  0.00    +0.000 A 
ATOM      8  C   UNL     1      -0.422  10.595  20.222  0.00  0.00    +0.000 A 
ATOM      9  C   UNL     1      -0.208  10.294  18.854  0.00  0.00    +0.000 A 
ATOM     10  N   UNL     1       0.691   9.362  18.463  0.00  0.00    +0.000 NA
ENDROOT
BRANCH   1  14
ATOM     11  C   UNL     1       4.351   5.819  18.135  0.00  0.00    +0.000 A 
ATOM     12  C   UNL     1       3.615   5.609  19.297  0.00  0.00    +0.000 A 
ATOM     13  C   UNL     1       2.628   6.519  19.683  0.00  0.00    +0.000 A 
ATOM     14  C   UNL     1       2.370   7.684  18.937  0.00  0.00    +0.000 A 
ATOM     15  C   UNL     1       3.112   7.870  17.759  0.00  0.00    +0.000 A 
ATOM     16  C   UNL     1       4.097   6.951  17.363  0.00  0.00    +0.000 A 
BRANCH  11  18
ATOM     17  C   UNL     1       6.572   5.104  18.499  0.00  0.00    +0.000 C 
ATOM     18  O   UNL     1       5.309   4.878  17.886  0.00  0.00    +0.000 OA
ENDBRANCH  11  18
ENDBRANCH   1  14
BRANCH   6  19
ATOM     19  C   UNL     1      -2.570  12.633  22.653  0.00  0.00    +0.000 A 
ATOM     20  C   UNL     1      -2.764  13.921  22.118  0.00  0.00    +0.000 A 
ATOM     21  C   UNL     1      -3.702  14.801  22.665  0.00  0.00    +0.000 A 
ATOM     22  C   UNL     1      -4.476  14.410  23.752  0.00  0.00    +0.000 A 
ATOM     23  C   UNL     1      -4.309  13.140  24.295  0.00  0.00    +0.000 A 
ATOM     24  C   UNL     1      -3.364  12.264  23.756  0.00  0.00    +0.000 A 
ENDBRANCH   6  19
BRANCH   9  25
ATOM     25  N   UNL     1      -0.983  10.948  17.880  0.00  0.00    +0.000 N 
ATOM     26  H   UNL     1      -0.464  11.696  17.432  0.00  0.00    +0.000 HD
BRANCH  25  27
ATOM     27  C   UNL     1      -1.814  10.132  16.999  0.00  0.00    +0.000 C 
BRANCH  27  28
ATOM     28  C   UNL     1      -3.131   9.716  17.655  0.00  0.00    +0.000 C 
BRANCH  28  29
ATOM     29  C   UNL     1      -4.054  10.908  17.900  0.00  0.00    +0.000 C 
BRANCH  29  30
ATOM     30  N   UNL     1      -3.950  11.869  16.804  0.00  0.00    +0.000 NA
ATOM     31  H   UNL     1      -3.610  11.399  15.965  0.00  0.00    +0.000 HD
ATOM     32  H   UNL     1      -3.243  12.568  17.036  0.00  0.00    +0.000 HD
ENDBRANCH  29  30
ENDBRANCH  28  29
ENDBRANCH  27  28
ENDBRANCH  25  27
ENDBRANCH   9  25
TORSDOF 8
ENDMDL
