MODEL 1
REMARK VINA RESULT:      -7.8      0.000      0.000
REMARK  Name = 
REMARK  10 active torsions:
REMARK  status: ('A' for Active; 'I' for Inactive)
REMARK    1  A    between atoms: C_1  and  O_2
REMARK    2  A    between atoms: O_2  and  C_3
REMARK    3  A    between atoms: C_3  and  C_4
REMARK    4  A    between atoms: C_4  and  C_5
REMARK    5  A    between atoms: C_5  and  N_6
REMARK    6  A    between atoms: N_6  and  S_7
REMARK    7  A    between atoms: S_7  and  C_10
REMARK    8  A    between atoms: C_12  and  C_13
REMARK    9  A    between atoms: C_15  and  C_16
REMARK   10  A    between atoms: C_23  and  C_24
REMARK                            x       y       z     vdW  Elec       q    Type
REMARK                         _______ _______ _______ _____ _____    ______ ____
ROOT
ATOM      1  C   UNL     1       3.239   4.088  19.908  0.00  0.00    +0.000 A 
ATOM      2  C   UNL     1       3.156   5.444  19.511  0.00  0.00    +0.000 A 
ATOM      3  C   UNL     1       2.175   6.024  20.288  0.00  0.00    +0.000 A 
ATOM      4  O   UNL     1       1.653   5.082  21.141  0.00  0.00    +0.000 OA
ATOM      5  C   UNL     1       2.273   3.896  20.871  0.00  0.00    +0.000 A 
ATOM      6  C   UNL     1       1.757   2.718  21.604  0.00  0.00    +0.000 C 
ENDROOT
BRANCH   3   7
ATOM      7  C   UNL     1       1.734   7.440  20.219  0.00  0.00    +0.000 A 
ATOM      8  C   UNL     1       1.095   8.153  21.251  0.00  0.00    +0.000 A 
ATOM      9  C   UNL     1       0.899   9.408  20.720  0.00  0.00    +0.000 A 
ATOM     10  O   UNL     1       1.370   9.433  19.446  0.00  0.00    +0.000 OA
ATOM     11  N   UNL     1       1.906   8.197  19.132  0.00  0.00    +0.000 NA
BRANCH   9  12
ATOM     12  C   UNL     1       0.325  10.664  21.229  0.00  0.00    +0.000 C 
ATOM     13  F   UNL     1      -0.818  10.996  20.570  0.00  0.00    +0.000 F 
ATOM     14  F   UNL     1       0.001  10.580  22.544  0.00  0.00    +0.000 F 
ATOM     15  F   UNL     1       1.172  11.715  21.093  0.00  0.00    +0.000 F 
ENDBRANCH   9  12
ENDBRANCH   3   7
BRANCH   1  16
ATOM     16  S   UNL     1       4.295   2.908  19.237  0.00  0.00    +0.000 S 
ATOM     17  O   UNL     1       3.468   2.174  18.307  0.00  0.00    +0.000 OA
ATOM     18  O   UNL     1       4.898   2.296  20.404  0.00  0.00    +0.000 OA
BRANCH  16  19
ATOM     19  N   UNL     1       5.506   3.702  18.375  0.00  0.00    +0.000 NA
ATOM     20  H   UNL     1       5.885   4.524  18.858  0.00  0.00    +0.000 HD
BRANCH  19  21
ATOM     21  C   UNL     1       5.232   3.945  16.942  0.00  0.00    +0.000 C 
BRANCH  21  22
ATOM     22  C   UNL     1       6.015   5.140  16.362  0.00  0.00    +0.000 C 
ATOM     23  C   UNL     1       6.506   6.115  17.482  0.00  0.00    +0.000 C 
ATOM     24  C   UNL     1       5.280   7.003  17.199  0.00  0.00    +0.000 C 
ATOM     25  C   UNL     1       5.177   6.340  15.815  0.00  0.00    +0.000 C 
BRANCH  22  26
ATOM     26  C   UNL     1       7.134   4.696  15.416  0.00  0.00    +0.000 C 
BRANCH  26  28
ATOM     27  C   UNL     1       6.301   3.901  13.345  0.00  0.00    +0.000 C 
ATOM     28  O   UNL     1       6.745   5.030  14.082  0.00  0.00    +0.000 OA
ENDBRANCH  26  28
ENDBRANCH  22  26
ENDBRANCH  21  22
ENDBRANCH  19  21
ENDBRANCH  16  19
ENDBRANCH   1  16
TORSDOF 8
ENDMDL
MODEL 2
REMARK VINA RESULT:      -7.8      5.458      8.605
REMARK  Name = 
REMARK  10 active torsions:
REMARK  status: ('A' for Active; 'I' for Inactive)
REMARK    1  A    between atoms: C_1  and  O_2
REMARK    2  A    between atoms: O_2  and  C_3
REMARK    3  A    between atoms: C_3  and  C_4
REMARK    4  A    between atoms: C_4  and  C_5
REMARK    5  A    between atoms: C_5  and  N_6
REMARK    6  A    between atoms: N_6  and  S_7
REMARK    7  A    between atoms: S_7  and  C_10
REMARK    8  A    between atoms: C_12  and  C_13
REMARK    9  A    between atoms: C_15  and  C_16
REMARK   10  A    between atoms: C_23  and  C_24
REMARK                            x       y       z     vdW  Elec       q    Type
REMARK                         _______ _______ _______ _____ _____    ______ ____
ROOT
ATOM      1  C   UNL     1       6.544   5.241  17.685  0.00  0.00    +0.000 A 
ATOM      2  C   UNL     1       6.270   4.357  16.613  0.00  0.00    +0.000 A 
ATOM      3  C   UNL     1       6.789   4.942  15.477  0.00  0.00    +0.000 A 
ATOM      4  O   UNL     1       7.367   6.144  15.806  0.00  0.00    +0.000 OA
ATOM      5  C   UNL     1       7.172   6.340  17.143  0.00  0.00    +0.000 A 
ATOM      6  C   UNL     1       7.615   7.650  17.673  0.00  0.00    +0.000 C 
ENDROOT
BRANCH   3   7
ATOM      7  C   UNL     1       6.733   4.377  14.105  0.00  0.00    +0.000 A 
ATOM      8  C   UNL     1       5.989   3.249  13.710  0.00  0.00    +0.000 A 
ATOM      9  C   UNL     1       6.250   3.130  12.363  0.00  0.00    +0.000 A 
ATOM     10  O   UNL     1       7.112   4.110  11.987  0.00  0.00    +0.000 OA
ATOM     11  N   UNL     1       7.410   4.903  13.080  0.00  0.00    +0.000 NA
BRANCH   9  12
ATOM     12  C   UNL     1       5.799   2.214  11.303  0.00  0.00    +0.000 C 
ATOM     13  F   UNL     1       5.555   0.967  11.789  0.00  0.00    +0.000 F 
ATOM     14  F   UNL     1       4.646   2.635  10.723  0.00  0.00    +0.000 F 
ATOM     15  F   UNL     1       6.716   2.074  10.313  0.00  0.00    +0.000 F 
ENDBRANCH   9  12
ENDBRANCH   3   7
BRANCH   1  16
ATOM     16  S   UNL     1       6.090   5.000  19.326  0.00  0.00    +0.000 S 
ATOM     17  O   UNL     1       7.157   5.608  20.087  0.00  0.00    +0.000 OA
ATOM     18  O   UNL     1       5.792   3.582  19.385  0.00  0.00    +0.000 OA
BRANCH  16  19
ATOM     19  N   UNL     1       4.664   5.850  19.617  0.00  0.00    +0.000 NA
ATOM     20  H   UNL     1       4.286   5.710  20.560  0.00  0.00    +0.000 HD
BRANCH  19  21
ATOM     21  C   UNL     1       3.634   5.774  18.559  0.00  0.00    +0.000 C 
BRANCH  21  22
ATOM     22  C   UNL     1       2.553   4.708  18.831  0.00  0.00    +0.000 C 
ATOM     23  C   UNL     1       3.053   3.268  18.483  0.00  0.00    +0.000 C 
ATOM     24  C   UNL     1       2.344   3.389  17.121  0.00  0.00    +0.000 C 
ATOM     25  C   UNL     1       1.468   4.499  17.728  0.00  0.00    +0.000 C 
BRANCH  22  26
ATOM     26  C   UNL     1       1.972   4.819  20.244  0.00  0.00    +0.000 C 
BRANCH  26  28
ATOM     27  C   UNL     1       1.600   2.900  21.585  0.00  0.00    +0.000 C 
ATOM     28  O   UNL     1       2.562   3.794  21.047  0.00  0.00    +0.000 OA
ENDBRANCH  26  28
ENDBRANCH  22  26
ENDBRANCH  21  22
ENDBRANCH  19  21
ENDBRANCH  16  19
ENDBRANCH   1  16
TORSDOF 8
ENDMDL
MODEL 3
REMARK VINA RESULT:      -7.8      2.269      3.341
REMARK  Name = 
REMARK  10 active torsions:
REMARK  status: ('A' for Active; 'I' for Inactive)
REMARK    1  A    between atoms: C_1  and  O_2
REMARK    2  A    between atoms: O_2  and  C_3
REMARK    3  A    between atoms: C_3  and  C_4
REMARK    4  A    between atoms: C_4  and  C_5
REMARK    5  A    between atoms: C_5  and  N_6
REMARK    6  A    between atoms: N_6  and  S_7
REMARK    7  A    between atoms: S_7  and  C_10
REMARK    8  A    between atoms: C_12  and  C_13
REMARK    9  A    between atoms: C_15  and  C_16
REMARK   10  A    between atoms: C_23  and  C_24
REMARK                            x       y       z     vdW  Elec       q    Type
REMARK                         _______ _______ _______ _____ _____    ______ ____
ROOT
ATOM      1  C   UNL     1       2.139   6.909  19.880  0.00  0.00    +0.000 A 
ATOM      2  C   UNL     1       1.482   7.374  21.045  0.00  0.00    +0.000 A 
ATOM      3  C   UNL     1       1.089   8.670  20.786  0.00  0.00    +0.000 A 
ATOM      4  O   UNL     1       1.477   9.019  19.516  0.00  0.00    +0.000 OA
ATOM      5  C   UNL     1       2.156   7.959  18.989  0.00  0.00    +0.000 A 
ATOM      6  C   UNL     1       2.771   8.184  17.661  0.00  0.00    +0.000 C 
ENDROOT
BRANCH   3   7
ATOM      7  C   UNL     1       0.365   9.564  21.726  0.00  0.00    +0.000 A 
ATOM      8  C   UNL     1      -0.563  10.558  21.365  0.00  0.00    +0.000 A 
ATOM      9  C   UNL     1      -0.959  11.101  22.567  0.00  0.00    +0.000 A 
ATOM     10  O   UNL     1      -0.291  10.484  23.576  0.00  0.00    +0.000 OA
ATOM     11  N   UNL     1       0.536   9.508  23.050  0.00  0.00    +0.000 NA
BRANCH   9  12
ATOM     12  C   UNL     1      -1.916  12.147  22.960  0.00  0.00    +0.000 C 
ATOM     13  F   UNL     1      -1.301  13.164  23.622  0.00  0.00    +0.000 F 
ATOM     14  F   UNL     1      -2.533  12.702  21.886  0.00  0.00    +0.000 F 
ATOM     15  F   UNL     1      -2.889  11.679  23.782  0.00  0.00    +0.000 F 
ENDBRANCH   9  12
ENDBRANCH   3   7
BRANCH   1  16
ATOM     16  S   UNL     1       2.846   5.355  19.678  0.00  0.00    +0.000 S 
ATOM     17  O   UNL     1       2.385   4.915  18.382  0.00  0.00    +0.000 OA
ATOM     18  O   UNL     1       2.502   4.669  20.908  0.00  0.00    +0.000 OA
BRANCH  16  19
ATOM     19  N   UNL     1       4.521   5.532  19.626  0.00  0.00    +0.000 NA
ATOM     20  H   UNL     1       4.828   6.465  19.332  0.00  0.00    +0.000 HD
BRANCH  19  21
ATOM     21  C   UNL     1       5.271   4.439  18.969  0.00  0.00    +0.000 C 
BRANCH  21  22
ATOM     22  C   UNL     1       5.965   4.872  17.662  0.00  0.00    +0.000 C 
ATOM     23  C   UNL     1       7.515   4.674  17.731  0.00  0.00    +0.000 C 
ATOM     24  C   UNL     1       7.654   6.164  18.095  0.00  0.00    +0.000 C 
ATOM     25  C   UNL     1       6.260   6.395  17.485  0.00  0.00    +0.000 C 
BRANCH  22  26
ATOM     26  C   UNL     1       5.330   4.227  16.426  0.00  0.00    +0.000 C 
BRANCH  26  28
ATOM     27  C   UNL     1       6.067   4.035  14.182  0.00  0.00    +0.000 C 
ATOM     28  O   UNL     1       6.382   3.820  15.549  0.00  0.00    +0.000 OA
ENDBRANCH  26  28
ENDBRANCH  22  26
ENDBRANCH  21  22
ENDBRANCH  19  21
ENDBRANCH  16  19
ENDBRANCH   1  16
TORSDOF 8
ENDMDL
MODEL 4
REMARK VINA RESULT:      -7.8      5.442      8.709
REMARK  Name = 
REMARK  10 active torsions:
REMARK  status: ('A' for Active; 'I' for Inactive)
REMARK    1  A    between atoms: C_1  and  O_2
REMARK    2  A    between atoms: O_2  and  C_3
REMARK    3  A    between atoms: C_3  and  C_4
REMARK    4  A    between atoms: C_4  and  C_5
REMARK    5  A    between atoms: C_5  and  N_6
REMARK    6  A    between atoms: N_6  and  S_7
REMARK    7  A    between atoms: S_7  and  C_10
REMARK    8  A    between atoms: C_12  and  C_13
REMARK    9  A    between atoms: C_15  and  C_16
REMARK   10  A    between atoms: C_23  and  C_24
REMARK                            x       y       z     vdW  Elec       q    Type
REMARK                         _______ _______ _______ _____ _____    ______ ____
ROOT
ATOM      1  C   UNL     1       6.376   5.273  17.590  0.00  0.00    +0.000 A 
ATOM      2  C   UNL     1       6.099   4.408  16.504  0.00  0.00    +0.000 A 
ATOM      3  C   UNL     1       6.744   4.935  15.404  0.00  0.00    +0.000 A 
ATOM      4  O   UNL     1       7.401   6.086  15.769  0.00  0.00    +0.000 OA
ATOM      5  C   UNL     1       7.132   6.309  17.089  0.00  0.00    +0.000 A 
ATOM      6  C   UNL     1       7.650   7.581  17.645  0.00  0.00    +0.000 C 
ENDROOT
BRANCH   3   7
ATOM      7  C   UNL     1       6.733   4.366  14.033  0.00  0.00    +0.000 A 
ATOM      8  C   UNL     1       6.061   3.195  13.634  0.00  0.00    +0.000 A 
ATOM      9  C   UNL     1       6.339   3.089  12.290  0.00  0.00    +0.000 A 
ATOM     10  O   UNL     1       7.144   4.118  11.918  0.00  0.00    +0.000 OA
ATOM     11  N   UNL     1       7.385   4.930  13.012  0.00  0.00    +0.000 NA
BRANCH   9  12
ATOM     12  C   UNL     1       5.953   2.146  11.229  0.00  0.00    +0.000 C 
ATOM     13  F   UNL     1       6.972   1.932  10.354  0.00  0.00    +0.000 F 
ATOM     14  F   UNL     1       5.610   0.930  11.727  0.00  0.00    +0.000 F 
ATOM     15  F   UNL     1       4.899   2.589  10.499  0.00  0.00    +0.000 F 
ENDBRANCH   9  12
ENDBRANCH   3   7
BRANCH   1  16
ATOM     16  S   UNL     1       5.791   5.086  19.196  0.00  0.00    +0.000 S 
ATOM     17  O   UNL     1       4.766   6.096  19.325  0.00  0.00    +0.000 OA
ATOM     18  O   UNL     1       7.002   5.090  19.994  0.00  0.00    +0.000 OA
BRANCH  16  19
ATOM     19  N   UNL     1       5.076   3.567  19.331  0.00  0.00    +0.000 NA
ATOM     20  H   UNL     1       4.964   3.082  18.434  0.00  0.00    +0.000 HD
BRANCH  19  21
ATOM     21  C   UNL     1       3.873   3.488  20.189  0.00  0.00    +0.000 C 
BRANCH  21  22
ATOM     22  C   UNL     1       2.555   3.427  19.391  0.00  0.00    +0.000 C 
ATOM     23  C   UNL     1       2.174   1.960  19.005  0.00  0.00    +0.000 C 
ATOM     24  C   UNL     1       2.800   2.198  17.619  0.00  0.00    +0.000 C 
ATOM     25  C   UNL     1       2.639   3.710  17.857  0.00  0.00    +0.000 C 
BRANCH  22  26
ATOM     26  C   UNL     1       1.419   4.181  20.089  0.00  0.00    +0.000 C 
BRANCH  26  28
ATOM     27  C   UNL     1       1.626   6.483  20.611  0.00  0.00    +0.000 C 
ATOM     28  O   UNL     1       2.001   5.158  20.954  0.00  0.00    +0.000 OA
ENDBRANCH  26  28
ENDBRANCH  22  26
ENDBRANCH  21  22
ENDBRANCH  19  21
ENDBRANCH  16  19
ENDBRANCH   1  16
TORSDOF 8
ENDMDL
MODEL 5
REMARK VINA RESULT:      -7.7      0.999      1.893
REMARK  Name = 
REMARK  10 active torsions:
REMARK  status: ('A' for Active; 'I' for Inactive)
REMARK    1  A    between atoms: C_1  and  O_2
REMARK    2  A    between atoms: O_2  and  C_3
REMARK    3  A    between atoms: C_3  and  C_4
REMARK    4  A    between atoms: C_4  and  C_5
REMARK    5  A    between atoms: C_5  and  N_6
REMARK    6  A    between atoms: N_6  and  S_7
REMARK    7  A    between atoms: S_7  and  C_10
REMARK    8  A    between atoms: C_12  and  C_13
REMARK    9  A    between atoms: C_15  and  C_16
REMARK   10  A    between atoms: C_23  and  C_24
REMARK                            x       y       z     vdW  Elec       q    Type
REMARK                         _______ _______ _______ _____ _____    ______ ____
ROOT
ATOM      1  C   UNL     1       3.153   3.943  19.890  0.00  0.00    +0.000 A 
ATOM      2  C   UNL     1       3.098   5.297  19.477  0.00  0.00    +0.000 A 
ATOM      3  C   UNL     1       2.155   5.914  20.272  0.00  0.00    +0.000 A 
ATOM      4  O   UNL     1       1.630   4.999  21.152  0.00  0.00    +0.000 OA
ATOM      5  C   UNL     1       2.209   3.792  20.881  0.00  0.00    +0.000 A 
ATOM      6  C   UNL     1       1.679   2.639  21.644  0.00  0.00    +0.000 C 
ENDROOT
BRANCH   3   7
ATOM      7  C   UNL     1       1.753   7.342  20.196  0.00  0.00    +0.000 A 
ATOM      8  C   UNL     1       0.994   8.035  21.158  0.00  0.00    +0.000 A 
ATOM      9  C   UNL     1       0.894   9.311  20.651  0.00  0.00    +0.000 A 
ATOM     10  O   UNL     1       1.533   9.367  19.453  0.00  0.00    +0.000 OA
ATOM     11  N   UNL     1       2.084   8.130  19.169  0.00  0.00    +0.000 NA
BRANCH   9  12
ATOM     12  C   UNL     1       0.280  10.562  21.122  0.00  0.00    +0.000 C 
ATOM     13  F   UNL     1      -0.987  10.709  20.647  0.00  0.00    +0.000 F 
ATOM     14  F   UNL     1       0.192  10.607  22.476  0.00  0.00    +0.000 F 
ATOM     15  F   UNL     1       0.972  11.661  20.731  0.00  0.00    +0.000 F 
ENDBRANCH   9  12
ENDBRANCH   3   7
BRANCH   1  16
ATOM     16  S   UNL     1       4.156   2.725  19.207  0.00  0.00    +0.000 S 
ATOM     17  O   UNL     1       3.257   1.929  18.404  0.00  0.00    +0.000 OA
ATOM     18  O   UNL     1       4.864   2.193  20.355  0.00  0.00    +0.000 OA
BRANCH  16  19
ATOM     19  N   UNL     1       5.279   3.465  18.191  0.00  0.00    +0.000 NA
ATOM     20  H   UNL     1       5.913   4.109  18.677  0.00  0.00    +0.000 HD
BRANCH  19  21
ATOM     21  C   UNL     1       4.748   4.015  16.925  0.00  0.00    +0.000 C 
BRANCH  21  22
ATOM     22  C   UNL     1       5.729   4.966  16.211  0.00  0.00    +0.000 C 
ATOM     23  C   UNL     1       5.371   5.148  14.700  0.00  0.00    +0.000 C 
ATOM     24  C   UNL     1       6.425   4.080  14.356  0.00  0.00    +0.000 C 
ATOM     25  C   UNL     1       7.081   4.355  15.721  0.00  0.00    +0.000 C 
BRANCH  22  26
ATOM     26  C   UNL     1       5.895   6.294  16.955  0.00  0.00    +0.000 C 
BRANCH  26  28
ATOM     27  C   UNL     1       7.731   6.606  18.421  0.00  0.00    +0.000 C 
ATOM     28  O   UNL     1       6.454   6.015  18.241  0.00  0.00    +0.000 OA
ENDBRANCH  26  28
ENDBRANCH  22  26
ENDBRANCH  21  22
ENDBRANCH  19  21
ENDBRANCH  16  19
ENDBRANCH   1  16
TORSDOF 8
ENDMDL
MODEL 6
REMARK VINA RESULT:      -7.7      4.982      7.031
REMARK  Name = 
REMARK  10 active torsions:
REMARK  status: ('A' for Active; 'I' for Inactive)
REMARK    1  A    between atoms: C_1  and  O_2
REMARK    2  A    between atoms: O_2  and  C_3
REMARK    3  A    between atoms: C_3  and  C_4
REMARK    4  A    between atoms: C_4  and  C_5
REMARK    5  A    between atoms: C_5  and  N_6
REMARK    6  A    between atoms: N_6  and  S_7
REMARK    7  A    between atoms: S_7  and  C_10
REMARK    8  A    between atoms: C_12  and  C_13
REMARK    9  A    between atoms: C_15  and  C_16
REMARK   10  A    between atoms: C_23  and  C_24
REMARK                            x       y       z     vdW  Elec       q    Type
REMARK                         _______ _______ _______ _____ _____    ______ ____
ROOT
ATOM      1  C   UNL     1       7.456   6.481  17.775  0.00  0.00    +0.000 A 
ATOM      2  C   UNL     1       8.335   7.395  18.406  0.00  0.00    +0.000 A 
ATOM      3  C   UNL     1       7.945   8.656  18.005  0.00  0.00    +0.000 A 
ATOM      4  O   UNL     1       6.870   8.554  17.156  0.00  0.00    +0.000 OA
ATOM      5  C   UNL     1       6.609   7.225  16.985  0.00  0.00    +0.000 A 
ATOM      6  C   UNL     1       5.556   6.898  15.996  0.00  0.00    +0.000 C 
ENDROOT
BRANCH   3   7
ATOM      7  C   UNL     1       8.584   9.934  18.412  0.00  0.00    +0.000 A 
ATOM      8  C   UNL     1       9.359  10.134  19.570  0.00  0.00    +0.000 A 
ATOM      9  C   UNL     1       9.730  11.458  19.501  0.00  0.00    +0.000 A 
ATOM     10  O   UNL     1       9.191  12.015  18.386  0.00  0.00    +0.000 OA
ATOM     11  N   UNL     1       8.477  11.055  17.692  0.00  0.00    +0.000 NA
BRANCH   9  12
ATOM     12  C   UNL     1      10.557  12.341  20.339  0.00  0.00    +0.000 C 
ATOM     13  F   UNL     1      10.199  12.268  21.649  0.00  0.00    +0.000 F 
ATOM     14  F   UNL     1      11.873  12.014  20.279  0.00  0.00    +0.000 F 
ATOM     15  F   UNL     1      10.454  13.645  19.979  0.00  0.00    +0.000 F 
ENDBRANCH   9  12
ENDBRANCH   3   7
BRANCH   1  16
ATOM     16  S   UNL     1       7.517   4.768  17.920  0.00  0.00    +0.000 S 
ATOM     17  O   UNL     1       8.431   4.533  19.013  0.00  0.00    +0.000 OA
ATOM     18  O   UNL     1       7.783   4.328  16.564  0.00  0.00    +0.000 OA
BRANCH  16  19
ATOM     19  N   UNL     1       5.989   4.214  18.363  0.00  0.00    +0.000 NA
ATOM     20  H   UNL     1       5.427   3.877  17.574  0.00  0.00    +0.000 HD
BRANCH  19  21
ATOM     21  C   UNL     1       5.227   5.079  19.291  0.00  0.00    +0.000 C 
BRANCH  21  22
ATOM     22  C   UNL     1       3.707   4.821  19.261  0.00  0.00    +0.000 C 
ATOM     23  C   UNL     1       3.102   5.064  17.840  0.00  0.00    +0.000 C 
ATOM     24  C   UNL     1       2.680   6.473  18.298  0.00  0.00    +0.000 C 
ATOM     25  C   UNL     1       2.781   5.979  19.752  0.00  0.00    +0.000 C 
BRANCH  22  26
ATOM     26  C   UNL     1       3.338   3.455  19.847  0.00  0.00    +0.000 C 
BRANCH  26  28
ATOM     27  C   UNL     1       3.490   1.517  18.491  0.00  0.00    +0.000 C 
ATOM     28  O   UNL     1       2.736   2.677  18.811  0.00  0.00    +0.000 OA
ENDBRANCH  26  28
ENDBRANCH  22  26
ENDBRANCH  21  22
ENDBRANCH  19  21
ENDBRANCH  16  19
ENDBRANCH   1  16
TORSDOF 8
ENDMDL
MODEL 7
REMARK VINA RESULT:      -7.6      0.981      1.977
REMARK  Name = 
REMARK  10 active torsions:
REMARK  status: ('A' for Active; 'I' for Inactive)
REMARK    1  A    between atoms: C_1  and  O_2
REMARK    2  A    between atoms: O_2  and  C_3
REMARK    3  A    between atoms: C_3  and  C_4
REMARK    4  A    between atoms: C_4  and  C_5
REMARK    5  A    between atoms: C_5  and  N_6
REMARK    6  A    between atoms: N_6  and  S_7
REMARK    7  A    between atoms: S_7  and  C_10
REMARK    8  A    between atoms: C_12  and  C_13
REMARK    9  A    between atoms: C_15  and  C_16
REMARK   10  A    between atoms: C_23  and  C_24
REMARK                            x       y       z     vdW  Elec       q    Type
REMARK                         _______ _______ _______ _____ _____    ______ ____
ROOT
ATOM      1  C   UNL     1       3.349   4.410  19.735  0.00  0.00    +0.000 A 
ATOM      2  C   UNL     1       3.277   5.800  19.474  0.00  0.00    +0.000 A 
ATOM      3  C   UNL     1       2.162   6.268  20.136  0.00  0.00    +0.000 A 
ATOM      4  O   UNL     1       1.548   5.227  20.789  0.00  0.00    +0.000 OA
ATOM      5  C   UNL     1       2.250   4.092  20.500  0.00  0.00    +0.000 A 
ATOM      6  C   UNL     1       1.670   2.829  21.012  0.00  0.00    +0.000 C 
ENDROOT
BRANCH   3   7
ATOM      7  C   UNL     1       1.682   7.674  20.146  0.00  0.00    +0.000 A 
ATOM      8  C   UNL     1       1.035   8.314  21.220  0.00  0.00    +0.000 A 
ATOM      9  C   UNL     1       0.799   9.589  20.756  0.00  0.00    +0.000 A 
ATOM     10  O   UNL     1       1.255   9.693  19.481  0.00  0.00    +0.000 OA
ATOM     11  N   UNL     1       1.821   8.490  19.098  0.00  0.00    +0.000 NA
BRANCH   9  12
ATOM     12  C   UNL     1       0.197  10.800  21.335  0.00  0.00    +0.000 C 
ATOM     13  F   UNL     1       1.004  11.884  21.180  0.00  0.00    +0.000 F 
ATOM     14  F   UNL     1      -0.986  11.113  20.746  0.00  0.00    +0.000 F 
ATOM     15  F   UNL     1      -0.041  10.678  22.665  0.00  0.00    +0.000 F 
ENDBRANCH   9  12
ENDBRANCH   3   7
BRANCH   1  16
ATOM     16  S   UNL     1       4.545   3.335  19.125  0.00  0.00    +0.000 S 
ATOM     17  O   UNL     1       3.963   2.797  17.917  0.00  0.00    +0.000 OA
ATOM     18  O   UNL     1       4.872   2.512  20.273  0.00  0.00    +0.000 OA
BRANCH  16  19
ATOM     19  N   UNL     1       5.911   4.232  18.714  0.00  0.00    +0.000 NA
ATOM     20  H   UNL     1       5.827   5.232  18.926  0.00  0.00    +0.000 HD
BRANCH  19  21
ATOM     21  C   UNL     1       6.486   3.967  17.377  0.00  0.00    +0.000 C 
BRANCH  21  22
ATOM     22  C   UNL     1       6.228   5.100  16.364  0.00  0.00    +0.000 C 
ATOM     23  C   UNL     1       5.036   4.768  15.408  0.00  0.00    +0.000 C 
ATOM     24  C   UNL     1       6.056   4.294  14.356  0.00  0.00    +0.000 C 
ATOM     25  C   UNL     1       7.124   5.127  15.085  0.00  0.00    +0.000 C 
BRANCH  22  26
ATOM     26  C   UNL     1       6.093   6.466  17.043  0.00  0.00    +0.000 C 
BRANCH  26  28
ATOM     27  C   UNL     1       7.834   7.911  17.749  0.00  0.00    +0.000 C 
ATOM     28  O   UNL     1       7.208   7.268  16.649  0.00  0.00    +0.000 OA
ENDBRANCH  26  28
ENDBRANCH  22  26
ENDBRANCH  21  22
ENDBRANCH  19  21
ENDBRANCH  16  19
ENDBRANCH   1  16
TORSDOF 8
ENDMDL
MODEL 8
REMARK VINA RESULT:      -7.6      4.908      7.212
REMARK  Name = 
REMARK  10 active torsions:
REMARK  status: ('A' for Active; 'I' for Inactive)
REMARK    1  A    between atoms: C_1  and  O_2
REMARK    2  A    between atoms: O_2  and  C_3
REMARK    3  A    between atoms: C_3  and  C_4
REMARK    4  A    between atoms: C_4  and  C_5
REMARK    5  A    between atoms: C_5  and  N_6
REMARK    6  A    between atoms: N_6  and  S_7
REMARK    7  A    between atoms: S_7  and  C_10
REMARK    8  A    between atoms: C_12  and  C_13
REMARK    9  A    between atoms: C_15  and  C_16
REMARK   10  A    between atoms: C_23  and  C_24
REMARK                            x       y       z     vdW  Elec       q    Type
REMARK                         _______ _______ _______ _____ _____    ______ ____
ROOT
ATOM      1  C   UNL     1       7.170   6.361  17.698  0.00  0.00    +0.000 A 
ATOM      2  C   UNL     1       8.115   7.274  18.226  0.00  0.00    +0.000 A 
ATOM      3  C   UNL     1       7.696   8.534  17.854  0.00  0.00    +0.000 A 
ATOM      4  O   UNL     1       6.539   8.433  17.121  0.00  0.00    +0.000 OA
ATOM      5  C   UNL     1       6.252   7.104  16.991  0.00  0.00    +0.000 A 
ATOM      6  C   UNL     1       5.100   6.777  16.120  0.00  0.00    +0.000 C 
ENDROOT
BRANCH   3   7
ATOM      7  C   UNL     1       8.383   9.811  18.179  0.00  0.00    +0.000 A 
ATOM      8  C   UNL     1       9.316  10.001  19.215  0.00  0.00    +0.000 A 
ATOM      9  C   UNL     1       9.669  11.327  19.110  0.00  0.00    +0.000 A 
ATOM     10  O   UNL     1       8.973  11.895  18.091  0.00  0.00    +0.000 OA
ATOM     11  N   UNL     1       8.169  10.939  17.496  0.00  0.00    +0.000 NA
BRANCH   9  12
ATOM     12  C   UNL     1      10.606  12.205  19.829  0.00  0.00    +0.000 C 
ATOM     13  F   UNL     1      11.451  11.493  20.622  0.00  0.00    +0.000 F 
ATOM     14  F   UNL     1      11.386  12.922  18.980  0.00  0.00    +0.000 F 
ATOM     15  F   UNL     1       9.972  13.094  20.634  0.00  0.00    +0.000 F 
ENDBRANCH   9  12
ENDBRANCH   3   7
BRANCH   1  16
ATOM     16  S   UNL     1       7.232   4.649  17.855  0.00  0.00    +0.000 S 
ATOM     17  O   UNL     1       8.410   4.405  18.655  0.00  0.00    +0.000 OA
ATOM     18  O   UNL     1       7.101   4.184  16.488  0.00  0.00    +0.000 OA
BRANCH  16  19
ATOM     19  N   UNL     1       5.877   4.141  18.717  0.00  0.00    +0.000 NA
ATOM     20  H   UNL     1       6.093   3.495  19.483  0.00  0.00    +0.000 HD
BRANCH  19  21
ATOM     21  C   UNL     1       4.713   3.715  17.908  0.00  0.00    +0.000 C 
BRANCH  21  22
ATOM     22  C   UNL     1       3.399   3.650  18.711  0.00  0.00    +0.000 C 
ATOM     23  C   UNL     1       2.222   3.071  17.860  0.00  0.00    +0.000 C 
ATOM     24  C   UNL     1       1.770   4.513  17.567  0.00  0.00    +0.000 C 
ATOM     25  C   UNL     1       2.560   4.964  18.808  0.00  0.00    +0.000 C 
BRANCH  22  26
ATOM     26  C   UNL     1       3.576   2.940  20.057  0.00  0.00    +0.000 C 
BRANCH  26  28
ATOM     27  C   UNL     1       1.774   2.628  21.564  0.00  0.00    +0.000 C 
ATOM     28  O   UNL     1       2.693   3.551  21.000  0.00  0.00    +0.000 OA
ENDBRANCH  26  28
ENDBRANCH  22  26
ENDBRANCH  21  22
ENDBRANCH  19  21
ENDBRANCH  16  19
ENDBRANCH   1  16
TORSDOF 8
ENDMDL
MODEL 9
REMARK VINA RESULT:      -7.6      1.494      2.253
REMARK  Name = 
REMARK  10 active torsions:
REMARK  status: ('A' for Active; 'I' for Inactive)
REMARK    1  A    between atoms: C_1  and  O_2
REMARK    2  A    between atoms: O_2  and  C_3
REMARK    3  A    between atoms: C_3  and  C_4
REMARK    4  A    between atoms: C_4  and  C_5
REMARK    5  A    between atoms: C_5  and  N_6
REMARK    6  A    between atoms: N_6  and  S_7
REMARK    7  A    between atoms: S_7  and  C_10
REMARK    8  A    between atoms: C_12  and  C_13
REMARK    9  A    between atoms: C_15  and  C_16
REMARK   10  A    between atoms: C_23  and  C_24
REMARK                            x       y       z     vdW  Elec       q    Type
REMARK                         _______ _______ _______ _____ _____    ______ ____
ROOT
ATOM      1  C   UNL     1       3.403   4.439  19.640  0.00  0.00    +0.000 A 
ATOM      2  C   UNL     1       3.348   5.837  19.418  0.00  0.00    +0.000 A 
ATOM      3  C   UNL     1       2.224   6.296  20.073  0.00  0.00    +0.000 A 
ATOM      4  O   UNL     1       1.589   5.242  20.684  0.00  0.00    +0.000 OA
ATOM      5  C   UNL     1       2.287   4.110  20.375  0.00  0.00    +0.000 A 
ATOM      6  C   UNL     1       1.686   2.838  20.839  0.00  0.00    +0.000 C 
ENDROOT
BRANCH   3   7
ATOM      7  C   UNL     1       1.756   7.705  20.114  0.00  0.00    +0.000 A 
ATOM      8  C   UNL     1       1.730   8.595  19.023  0.00  0.00    +0.000 A 
ATOM      9  C   UNL     1       1.214   9.757  19.550  0.00  0.00    +0.000 A 
ATOM     10  O   UNL     1       0.971   9.577  20.875  0.00  0.00    +0.000 OA
ATOM     11  N   UNL     1       1.301   8.282  21.230  0.00  0.00    +0.000 NA
BRANCH   9  12
ATOM     12  C   UNL     1       0.879  11.079  18.998  0.00  0.00    +0.000 C 
ATOM     13  F   UNL     1      -0.261  11.038  18.258  0.00  0.00    +0.000 F 
ATOM     14  F   UNL     1       0.673  12.001  19.974  0.00  0.00    +0.000 F 
ATOM     15  F   UNL     1       1.853  11.566  18.189  0.00  0.00    +0.000 F 
ENDBRANCH   9  12
ENDBRANCH   3   7
BRANCH   1  16
ATOM     16  S   UNL     1       4.601   3.371  19.022  0.00  0.00    +0.000 S 
ATOM     17  O   UNL     1       4.011   2.827  17.820  0.00  0.00    +0.000 OA
ATOM     18  O   UNL     1       4.943   2.554  20.169  0.00  0.00    +0.000 OA
BRANCH  16  19
ATOM     19  N   UNL     1       5.957   4.277  18.597  0.00  0.00    +0.000 NA
ATOM     20  H   UNL     1       5.851   5.283  18.767  0.00  0.00    +0.000 HD
BRANCH  19  21
ATOM     21  C   UNL     1       6.559   3.970  17.282  0.00  0.00    +0.000 C 
BRANCH  21  22
ATOM     22  C   UNL     1       6.312   5.064  16.224  0.00  0.00    +0.000 C 
ATOM     23  C   UNL     1       5.049   4.761  15.354  0.00  0.00    +0.000 C 
ATOM     24  C   UNL     1       5.975   4.170  14.276  0.00  0.00    +0.000 C 
ATOM     25  C   UNL     1       7.133   4.969  14.899  0.00  0.00    +0.000 C 
BRANCH  22  26
ATOM     26  C   UNL     1       6.301   6.469  16.834  0.00  0.00    +0.000 C 
BRANCH  26  28
ATOM     27  C   UNL     1       7.835   8.092  17.629  0.00  0.00    +0.000 C 
ATOM     28  O   UNL     1       7.625   7.001  16.745  0.00  0.00    +0.000 OA
ENDBRANCH  26  28
ENDBRANCH  22  26
ENDBRANCH  21  22
ENDBRANCH  19  21
ENDBRANCH  16  19
ENDBRANCH   1  16
TORSDOF 8
ENDMDL
