MODEL 1
REMARK VINA RESULT:      -6.7      0.000      0.000
REMARK  Name = 
REMARK  5 active torsions:
REMARK  status: ('A' for Active; 'I' for Inactive)
REMARK    1  A    between atoms: N_1  and  C_2
REMARK    2  A    between atoms: C_2  and  C_3
REMARK    3  A    between atoms: C_2  and  C_11
REMARK    4  A    between atoms: C_3  and  C_4
REMARK    5  A    between atoms: C_11  and  C_12
REMARK                            x       y       z     vdW  Elec       q    Type
REMARK                         _______ _______ _______ _____ _____    ______ ____
ROOT
ATOM      1  C   UNL     1       3.938   3.313  17.950  0.00  0.00    +0.000 C 
ENDROOT
BRANCH   1   2
ATOM      2  N   UNL     1       3.769   1.850  17.915  0.00  0.00    +0.000 NA
ATOM      3  H   UNL     1       4.467   1.409  18.513  0.00  0.00    +0.000 HD
ATOM      4  H   UNL     1       3.951   1.501  16.976  0.00  0.00    +0.000 HD
ENDBRANCH   1   2
BRANCH   1   5
ATOM      5  C   UNL     1       4.980   3.783  16.898  0.00  0.00    +0.000 C 
BRANCH   5   6
ATOM      6  C   UNL     1       5.832   4.990  17.249  0.00  0.00    +0.000 A 
ATOM      7  C   UNL     1       6.805   4.866  18.256  0.00  0.00    +0.000 A 
ATOM      8  C   UNL     1       7.618   5.948  18.605  0.00  0.00    +0.000 A 
ATOM      9  C   UNL     1       7.473   7.162  17.942  0.00  0.00    +0.000 A 
ATOM     10 CL   UNL     1       8.462   8.500  18.378  0.00  0.00    +0.000 Cl
ATOM     11  C   UNL     1       6.532   7.298  16.923  0.00  0.00    +0.000 A 
ATOM     12  C   UNL     1       5.724   6.213  16.570  0.00  0.00    +0.000 A 
ENDBRANCH   5   6
ENDBRANCH   1   5
BRANCH   1  13
ATOM     13  C   UNL     1       2.588   4.030  17.689  0.00  0.00    +0.000 C 
BRANCH  13  14
ATOM     14  C   UNL     1       2.310   5.199  18.611  0.00  0.00    +0.000 A 
ATOM     15  C   UNL     1       2.500   6.518  18.174  0.00  0.00    +0.000 A 
ATOM     16  C   UNL     1       2.249   7.589  19.036  0.00  0.00    +0.000 A 
ATOM     17  C   UNL     1       1.813   7.347  20.338  0.00  0.00    +0.000 A 
ATOM     18 CL   UNL     1       1.510   8.668  21.398  0.00  0.00    +0.000 Cl
ATOM     19  C   UNL     1       1.624   6.044  20.786  0.00  0.00    +0.000 A 
ATOM     20  C   UNL     1       1.871   4.974  19.923  0.00  0.00    +0.000 A 
ENDBRANCH  13  14
ENDBRANCH   1  13
TORSDOF 5
ENDMDL
MODEL 2
REMARK VINA RESULT:      -6.6      0.553      1.686
REMARK  Name = 
REMARK  5 active torsions:
REMARK  status: ('A' for Active; 'I' for Inactive)
REMARK    1  A    between atoms: N_1  and  C_2
REMARK    2  A    between atoms: C_2  and  C_3
REMARK    3  A    between atoms: C_2  and  C_11
REMARK    4  A    between atoms: C_3  and  C_4
REMARK    5  A    between atoms: C_11  and  C_12
REMARK                            x       y       z     vdW  Elec       q    Type
REMARK                         _______ _______ _______ _____ _____    ______ ____
ROOT
ATOM      1  C   UNL     1       3.719   2.850  18.124  0.00  0.00    +0.000 C 
ENDROOT
BRANCH   1   2
ATOM      2  N   UNL     1       3.661   1.377  18.106  0.00  0.00    +0.000 NA
ATOM      3  H   UNL     1       2.724   1.068  18.364  0.00  0.00    +0.000 HD
ATOM      4  H   UNL     1       4.283   0.997  18.816  0.00  0.00    +0.000 HD
ENDBRANCH   1   2
BRANCH   1   5
ATOM      5  C   UNL     1       4.552   3.393  16.931  0.00  0.00    +0.000 C 
BRANCH   5   6
ATOM      6  C   UNL     1       5.448   4.590  17.192  0.00  0.00    +0.000 A 
ATOM      7  C   UNL     1       5.444   5.656  16.276  0.00  0.00    +0.000 A 
ATOM      8  C   UNL     1       6.247   6.782  16.482  0.00  0.00    +0.000 A 
ATOM      9  C   UNL     1       7.054   6.857  17.611  0.00  0.00    +0.000 A 
ATOM     10 CL   UNL     1       8.054   8.234  17.861  0.00  0.00    +0.000 Cl
ATOM     11  C   UNL     1       7.054   5.822  18.545  0.00  0.00    +0.000 A 
ATOM     12  C   UNL     1       6.245   4.699  18.342  0.00  0.00    +0.000 A 
ENDBRANCH   5   6
ENDBRANCH   1   5
BRANCH   1  13
ATOM     13  C   UNL     1       2.294   3.458  18.072  0.00  0.00    +0.000 C 
BRANCH  13  14
ATOM     14  C   UNL     1       2.131   4.741  18.861  0.00  0.00    +0.000 A 
ATOM     15  C   UNL     1       1.660   4.716  20.182  0.00  0.00    +0.000 A 
ATOM     16  C   UNL     1       1.505   5.906  20.898  0.00  0.00    +0.000 A 
ATOM     17  C   UNL     1       1.814   7.125  20.295  0.00  0.00    +0.000 A 
ATOM     18 CL   UNL     1       1.617   8.589  21.178  0.00  0.00    +0.000 Cl
ATOM     19  C   UNL     1       2.277   7.165  18.985  0.00  0.00    +0.000 A 
ATOM     20  C   UNL     1       2.436   5.976  18.271  0.00  0.00    +0.000 A 
ENDBRANCH  13  14
ENDBRANCH   1  13
TORSDOF 5
ENDMDL
MODEL 3
REMARK VINA RESULT:      -6.5      0.807      1.415
REMARK  Name = 
REMARK  5 active torsions:
REMARK  status: ('A' for Active; 'I' for Inactive)
REMARK    1  A    between atoms: N_1  and  C_2
REMARK    2  A    between atoms: C_2  and  C_3
REMARK    3  A    between atoms: C_2  and  C_11
REMARK    4  A    between atoms: C_3  and  C_4
REMARK    5  A    between atoms: C_11  and  C_12
REMARK                            x       y       z     vdW  Elec       q    Type
REMARK                         _______ _______ _______ _____ _____    ______ ____
ROOT
ATOM      1  C   UNL     1       3.024   2.823  18.231  0.00  0.00    +0.000 C 
ENDROOT
BRANCH   1   2
ATOM      2  N   UNL     1       2.388   1.494  18.185  0.00  0.00    +0.000 NA
ATOM      3  H   UNL     1       3.048   0.787  18.509  0.00  0.00    +0.000 HD
ATOM      4  H   UNL     1       2.168   1.248  17.223  0.00  0.00    +0.000 HD
ENDBRANCH   1   2
BRANCH   1   5
ATOM      5  C   UNL     1       4.293   2.869  17.337  0.00  0.00    +0.000 C 
BRANCH   5   6
ATOM      6  C   UNL     1       5.161   4.112  17.417  0.00  0.00    +0.000 A 
ATOM      7  C   UNL     1       5.337   4.894  16.263  0.00  0.00    +0.000 A 
ATOM      8  C   UNL     1       6.119   6.052  16.293  0.00  0.00    +0.000 A 
ATOM      9  C   UNL     1       6.724   6.445  17.482  0.00  0.00    +0.000 A 
ATOM     10 CL   UNL     1       7.699   7.862  17.519  0.00  0.00    +0.000 Cl
ATOM     11  C   UNL     1       6.541   5.698  18.644  0.00  0.00    +0.000 A 
ATOM     12  C   UNL     1       5.752   4.544  18.613  0.00  0.00    +0.000 A 
ENDBRANCH   5   6
ENDBRANCH   1   5
BRANCH   1  13
ATOM     13  C   UNL     1       2.034   3.924  17.772  0.00  0.00    +0.000 C 
BRANCH  13  14
ATOM     14  C   UNL     1       1.948   5.117  18.701  0.00  0.00    +0.000 A 
ATOM     15  C   UNL     1       2.313   6.398  18.260  0.00  0.00    +0.000 A 
ATOM     16  C   UNL     1       2.238   7.490  19.128  0.00  0.00    +0.000 A 
ATOM     17  C   UNL     1       1.803   7.307  20.441  0.00  0.00    +0.000 A 
ATOM     18 CL   UNL     1       1.717   8.654  21.508  0.00  0.00    +0.000 Cl
ATOM     19  C   UNL     1       1.442   6.042  20.893  0.00  0.00    +0.000 A 
ATOM     20  C   UNL     1       1.514   4.952  20.024  0.00  0.00    +0.000 A 
ENDBRANCH  13  14
ENDBRANCH   1  13
TORSDOF 5
ENDMDL
MODEL 4
REMARK VINA RESULT:      -6.4      2.139      5.243
REMARK  Name = 
REMARK  5 active torsions:
REMARK  status: ('A' for Active; 'I' for Inactive)
REMARK    1  A    between atoms: N_1  and  C_2
REMARK    2  A    between atoms: C_2  and  C_3
REMARK    3  A    between atoms: C_2  and  C_11
REMARK    4  A    between atoms: C_3  and  C_4
REMARK    5  A    between atoms: C_11  and  C_12
REMARK                            x       y       z     vdW  Elec       q    Type
REMARK                         _______ _______ _______ _____ _____    ______ ____
ROOT
ATOM      1  C   UNL     1       1.744   3.834  19.853  0.00  0.00    +0.000 C 
ENDROOT
BRANCH   1   2
ATOM      2  N   UNL     1       0.728   3.117  20.644  0.00  0.00    +0.000 NA
ATOM      3  H   UNL     1      -0.204   3.374  20.318  0.00  0.00    +0.000 HD
ATOM      4  H   UNL     1       0.772   3.414  21.616  0.00  0.00    +0.000 HD
ENDBRANCH   1   2
BRANCH   1   5
ATOM      5  C   UNL     1       2.319   5.043  20.640  0.00  0.00    +0.000 C 
BRANCH   5   6
ATOM      6  C   UNL     1       2.081   6.428  20.067  0.00  0.00    +0.000 A 
ATOM      7  C   UNL     1       1.434   7.390  20.860  0.00  0.00    +0.000 A 
ATOM      8  C   UNL     1       1.203   8.681  20.377  0.00  0.00    +0.000 A 
ATOM      9  C   UNL     1       1.626   9.025  19.097  0.00  0.00    +0.000 A 
ATOM     10 CL   UNL     1       1.330  10.608  18.494  0.00  0.00    +0.000 Cl
ATOM     11  C   UNL     1       2.292   8.093  18.304  0.00  0.00    +0.000 A 
ATOM     12  C   UNL     1       2.530   6.804  18.793  0.00  0.00    +0.000 A 
ENDBRANCH   5   6
ENDBRANCH   1   5
BRANCH   1  13
ATOM     13  C   UNL     1       2.904   2.884  19.455  0.00  0.00    +0.000 C 
BRANCH  13  14
ATOM     14  C   UNL     1       3.930   3.501  18.529  0.00  0.00    +0.000 A 
ATOM     15  C   UNL     1       3.693   3.586  17.149  0.00  0.00    +0.000 A 
ATOM     16  C   UNL     1       4.651   4.150  16.302  0.00  0.00    +0.000 A 
ATOM     17  C   UNL     1       5.851   4.626  16.830  0.00  0.00    +0.000 A 
ATOM     18 CL   UNL     1       7.031   5.315  15.783  0.00  0.00    +0.000 Cl
ATOM     19  C   UNL     1       6.102   4.545  18.195  0.00  0.00    +0.000 A 
ATOM     20  C   UNL     1       5.143   3.985  19.041  0.00  0.00    +0.000 A 
ENDBRANCH  13  14
ENDBRANCH   1  13
TORSDOF 5
ENDMDL
MODEL 5
REMARK VINA RESULT:      -6.3      0.569      5.043
REMARK  Name = 
REMARK  5 active torsions:
REMARK  status: ('A' for Active; 'I' for Inactive)
REMARK    1  A    between atoms: N_1  and  C_2
REMARK    2  A    between atoms: C_2  and  C_3
REMARK    3  A    between atoms: C_2  and  C_11
REMARK    4  A    between atoms: C_3  and  C_4
REMARK    5  A    between atoms: C_11  and  C_12
REMARK                            x       y       z     vdW  Elec       q    Type
REMARK                         _______ _______ _______ _____ _____    ______ ____
ROOT
ATOM      1  C   UNL     1       4.027   3.089  17.561  0.00  0.00    +0.000 C 
ENDROOT
BRANCH   1   2
ATOM      2  N   UNL     1       4.616   3.225  18.905  0.00  0.00    +0.000 NA
ATOM      3  H   UNL     1       4.110   3.937  19.431  0.00  0.00    +0.000 HD
ATOM      4  H   UNL     1       5.574   3.564  18.831  0.00  0.00    +0.000 HD
ENDBRANCH   1   2
BRANCH   1   5
ATOM      5  C   UNL     1       2.646   3.796  17.480  0.00  0.00    +0.000 C 
BRANCH   5   6
ATOM      6  C   UNL     1       2.370   4.908  18.477  0.00  0.00    +0.000 A 
ATOM      7  C   UNL     1       2.577   6.241  18.084  0.00  0.00    +0.000 A 
ATOM      8  C   UNL     1       2.327   7.296  18.966  0.00  0.00    +0.000 A 
ATOM      9  C   UNL     1       1.857   7.028  20.247  0.00  0.00    +0.000 A 
ATOM     10 CL   UNL     1       1.561   8.322  21.340  0.00  0.00    +0.000 Cl
ATOM     11  C   UNL     1       1.621   5.714  20.648  0.00  0.00    +0.000 A 
ATOM     12  C   UNL     1       1.864   4.660  19.762  0.00  0.00    +0.000 A 
ENDBRANCH   5   6
ENDBRANCH   1   5
BRANCH   1  13
ATOM     13  C   UNL     1       4.969   3.681  16.483  0.00  0.00    +0.000 C 
BRANCH  13  14
ATOM     14  C   UNL     1       5.816   4.843  16.959  0.00  0.00    +0.000 A 
ATOM     15  C   UNL     1       5.489   6.160  16.606  0.00  0.00    +0.000 A 
ATOM     16  C   UNL     1       6.282   7.225  17.043  0.00  0.00    +0.000 A 
ATOM     17  C   UNL     1       7.406   6.976  17.830  0.00  0.00    +0.000 A 
ATOM     18 CL   UNL     1       8.383   8.289  18.363  0.00  0.00    +0.000 Cl
ATOM     19  C   UNL     1       7.744   5.675  18.185  0.00  0.00    +0.000 A 
ATOM     20  C   UNL     1       6.950   4.612  17.751  0.00  0.00    +0.000 A 
ENDBRANCH  13  14
ENDBRANCH   1  13
TORSDOF 5
ENDMDL
MODEL 6
REMARK VINA RESULT:      -6.2      1.236      5.166
REMARK  Name = 
REMARK  5 active torsions:
REMARK  status: ('A' for Active; 'I' for Inactive)
REMARK    1  A    between atoms: N_1  and  C_2
REMARK    2  A    between atoms: C_2  and  C_3
REMARK    3  A    between atoms: C_2  and  C_11
REMARK    4  A    between atoms: C_3  and  C_4
REMARK    5  A    between atoms: C_11  and  C_12
REMARK                            x       y       z     vdW  Elec       q    Type
REMARK                         _______ _______ _______ _____ _____    ______ ____
ROOT
ATOM      1  C   UNL     1       2.430   4.115  17.883  0.00  0.00    +0.000 C 
ENDROOT
BRANCH   1   2
ATOM      2  N   UNL     1       1.480   2.988  17.882  0.00  0.00    +0.000 NA
ATOM      3  H   UNL     1       0.730   3.172  17.215  0.00  0.00    +0.000 HD
ATOM      4  H   UNL     1       1.029   2.912  18.791  0.00  0.00    +0.000 HD
ENDBRANCH   1   2
BRANCH   1   5
ATOM      5  C   UNL     1       2.542   4.752  19.296  0.00  0.00    +0.000 C 
BRANCH   5   6
ATOM      6  C   UNL     1       2.176   6.218  19.432  0.00  0.00    +0.000 A 
ATOM      7  C   UNL     1       2.299   7.058  18.313  0.00  0.00    +0.000 A 
ATOM      8  C   UNL     1       1.964   8.412  18.391  0.00  0.00    +0.000 A 
ATOM      9  C   UNL     1       1.492   8.939  19.588  0.00  0.00    +0.000 A 
ATOM     10 CL   UNL     1       1.092  10.608  19.692  0.00  0.00    +0.000 Cl
ATOM     11  C   UNL     1       1.338   8.118  20.704  0.00  0.00    +0.000 A 
ATOM     12  C   UNL     1       1.666   6.761  20.622  0.00  0.00    +0.000 A 
ENDBRANCH   5   6
ENDBRANCH   1   5
BRANCH   1  13
ATOM     13  C   UNL     1       3.834   3.653  17.416  0.00  0.00    +0.000 C 
BRANCH  13  14
ATOM     14  C   UNL     1       4.897   4.731  17.466  0.00  0.00    +0.000 A 
ATOM     15  C   UNL     1       5.873   4.730  18.473  0.00  0.00    +0.000 A 
ATOM     16  C   UNL     1       6.844   5.734  18.514  0.00  0.00    +0.000 A 
ATOM     17  C   UNL     1       6.841   6.745  17.553  0.00  0.00    +0.000 A 
ATOM     18 CL   UNL     1       8.035   7.982  17.610  0.00  0.00    +0.000 Cl
ATOM     19  C   UNL     1       5.877   6.760  16.551  0.00  0.00    +0.000 A 
ATOM     20  C   UNL     1       4.909   5.755  16.508  0.00  0.00    +0.000 A 
ENDBRANCH  13  14
ENDBRANCH   1  13
TORSDOF 5
ENDMDL
MODEL 7
REMARK VINA RESULT:      -6.2      3.314      6.221
REMARK  Name = 
REMARK  5 active torsions:
REMARK  status: ('A' for Active; 'I' for Inactive)
REMARK    1  A    between atoms: N_1  and  C_2
REMARK    2  A    between atoms: C_2  and  C_3
REMARK    3  A    between atoms: C_2  and  C_11
REMARK    4  A    between atoms: C_3  and  C_4
REMARK    5  A    between atoms: C_11  and  C_12
REMARK                            x       y       z     vdW  Elec       q    Type
REMARK                         _______ _______ _______ _____ _____    ______ ____
ROOT
ATOM      1  C   UNL     1       6.806   5.302  19.083  0.00  0.00    +0.000 C 
ENDROOT
BRANCH   1   2
ATOM      2  N   UNL     1       7.768   5.512  20.179  0.00  0.00    +0.000 NA
ATOM      3  H   UNL     1       7.267   5.605  21.063  0.00  0.00    +0.000 HD
ATOM      4  H   UNL     1       8.259   6.393  20.046  0.00  0.00    +0.000 HD
ENDBRANCH   1   2
BRANCH   1   5
ATOM      5  C   UNL     1       5.390   5.809  19.475  0.00  0.00    +0.000 C 
BRANCH   5   6
ATOM      6  C   UNL     1       4.224   4.860  19.263  0.00  0.00    +0.000 A 
ATOM      7  C   UNL     1       3.042   5.353  18.685  0.00  0.00    +0.000 A 
ATOM      8  C   UNL     1       1.948   4.513  18.462  0.00  0.00    +0.000 A 
ATOM      9  C   UNL     1       2.028   3.168  18.807  0.00  0.00    +0.000 A 
ATOM     10 CL   UNL     1       0.679   2.134  18.548  0.00  0.00    +0.000 Cl
ATOM     11  C   UNL     1       3.201   2.653  19.358  0.00  0.00    +0.000 A 
ATOM     12  C   UNL     1       4.298   3.494  19.572  0.00  0.00    +0.000 A 
ENDBRANCH   5   6
ENDBRANCH   1   5
BRANCH   1  13
ATOM     13  C   UNL     1       7.271   6.027  17.794  0.00  0.00    +0.000 C 
BRANCH  13  14
ATOM     14  C   UNL     1       6.685   5.468  16.514  0.00  0.00    +0.000 A 
ATOM     15  C   UNL     1       5.703   6.176  15.806  0.00  0.00    +0.000 A 
ATOM     16  C   UNL     1       5.164   5.647  14.630  0.00  0.00    +0.000 A 
ATOM     17  C   UNL     1       5.598   4.408  14.162  0.00  0.00    +0.000 A 
ATOM     18 CL   UNL     1       4.927   3.757  12.716  0.00  0.00    +0.000 Cl
ATOM     19  C   UNL     1       6.568   3.693  14.856  0.00  0.00    +0.000 A 
ATOM     20  C   UNL     1       7.110   4.223  16.028  0.00  0.00    +0.000 A 
ENDBRANCH  13  14
ENDBRANCH   1  13
TORSDOF 5
ENDMDL
MODEL 8
REMARK VINA RESULT:      -6.2      2.209      5.594
REMARK  Name = 
REMARK  5 active torsions:
REMARK  status: ('A' for Active; 'I' for Inactive)
REMARK    1  A    between atoms: N_1  and  C_2
REMARK    2  A    between atoms: C_2  and  C_3
REMARK    3  A    between atoms: C_2  and  C_11
REMARK    4  A    between atoms: C_3  and  C_4
REMARK    5  A    between atoms: C_11  and  C_12
REMARK                            x       y       z     vdW  Elec       q    Type
REMARK                         _______ _______ _______ _____ _____    ______ ____
ROOT
ATOM      1  C   UNL     1       3.319   3.919  19.291  0.00  0.00    +0.000 C 
ENDROOT
BRANCH   1   2
ATOM      2  N   UNL     1       2.996   2.524  19.638  0.00  0.00    +0.000 NA
ATOM      3  H   UNL     1       2.359   2.136  18.942  0.00  0.00    +0.000 HD
ATOM      4  H   UNL     1       2.491   2.494  20.521  0.00  0.00    +0.000 HD
ENDBRANCH   1   2
BRANCH   1   5
ATOM      5  C   UNL     1       2.674   4.912  20.296  0.00  0.00    +0.000 C 
BRANCH   5   6
ATOM      6  C   UNL     1       2.317   6.295  19.782  0.00  0.00    +0.000 A 
ATOM      7  C   UNL     1       1.737   7.221  20.666  0.00  0.00    +0.000 A 
ATOM      8  C   UNL     1       1.401   8.508  20.238  0.00  0.00    +0.000 A 
ATOM      9  C   UNL     1       1.652   8.886  18.923  0.00  0.00    +0.000 A 
ATOM     10 CL   UNL     1       1.227  10.464  18.390  0.00  0.00    +0.000 Cl
ATOM     11  C   UNL     1       2.250   7.991  18.038  0.00  0.00    +0.000 A 
ATOM     12  C   UNL     1       2.592   6.706  18.470  0.00  0.00    +0.000 A 
ENDBRANCH   5   6
ENDBRANCH   1   5
BRANCH   1  13
ATOM     13  C   UNL     1       4.854   4.140  19.266  0.00  0.00    +0.000 C 
BRANCH  13  14
ATOM     14  C   UNL     1       5.439   4.325  17.882  0.00  0.00    +0.000 A 
ATOM     15  C   UNL     1       4.638   4.181  16.740  0.00  0.00    +0.000 A 
ATOM     16  C   UNL     1       5.190   4.346  15.466  0.00  0.00    +0.000 A 
ATOM     17  C   UNL     1       6.545   4.648  15.330  0.00  0.00    +0.000 A 
ATOM     18 CL   UNL     1       7.222   4.845  13.760  0.00  0.00    +0.000 Cl
ATOM     19  C   UNL     1       7.351   4.790  16.453  0.00  0.00    +0.000 A 
ATOM     20  C   UNL     1       6.799   4.630  17.725  0.00  0.00    +0.000 A 
ENDBRANCH  13  14
ENDBRANCH   1  13
TORSDOF 5
ENDMDL
MODEL 9
REMARK VINA RESULT:      -6.2      2.016      5.865
REMARK  Name = 
REMARK  5 active torsions:
REMARK  status: ('A' for Active; 'I' for Inactive)
REMARK    1  A    between atoms: N_1  and  C_2
REMARK    2  A    between atoms: C_2  and  C_3
REMARK    3  A    between atoms: C_2  and  C_11
REMARK    4  A    between atoms: C_3  and  C_4
REMARK    5  A    between atoms: C_11  and  C_12
REMARK                            x       y       z     vdW  Elec       q    Type
REMARK                         _______ _______ _______ _____ _____    ______ ____
ROOT
ATOM      1  C   UNL     1       3.735   2.712  17.623  0.00  0.00    +0.000 C 
ENDROOT
BRANCH   1   2
ATOM      2  N   UNL     1       3.846   1.643  18.631  0.00  0.00    +0.000 NA
ATOM      3  H   UNL     1       3.462   0.776  18.256  0.00  0.00    +0.000 HD
ATOM      4  H   UNL     1       3.274   1.870  19.442  0.00  0.00    +0.000 HD
ENDBRANCH   1   2
BRANCH   1   5
ATOM      5  C   UNL     1       2.335   3.384  17.668  0.00  0.00    +0.000 C 
BRANCH   5   6
ATOM      6  C   UNL     1       2.169   4.593  18.571  0.00  0.00    +0.000 A 
ATOM      7  C   UNL     1       2.399   5.874  18.042  0.00  0.00    +0.000 A 
ATOM      8  C   UNL     1       2.248   7.015  18.834  0.00  0.00    +0.000 A 
ATOM      9  C   UNL     1       1.855   6.887  20.162  0.00  0.00    +0.000 A 
ATOM     10 CL   UNL     1       1.682   8.289  21.143  0.00  0.00    +0.000 Cl
ATOM     11  C   UNL     1       1.597   5.628  20.699  0.00  0.00    +0.000 A 
ATOM     12  C   UNL     1       1.741   4.487  19.903  0.00  0.00    +0.000 A 
ENDBRANCH   5   6
ENDBRANCH   1   5
BRANCH   1  13
ATOM     13  C   UNL     1       4.828   3.790  17.841  0.00  0.00    +0.000 C 
BRANCH  13  14
ATOM     14  C   UNL     1       5.588   4.174  16.588  0.00  0.00    +0.000 A 
ATOM     15  C   UNL     1       5.023   3.984  15.319  0.00  0.00    +0.000 A 
ATOM     16  C   UNL     1       5.736   4.334  14.170  0.00  0.00    +0.000 A 
ATOM     17  C   UNL     1       7.019   4.870  14.284  0.00  0.00    +0.000 A 
ATOM     18 CL   UNL     1       7.897   5.295  12.866  0.00  0.00    +0.000 Cl
ATOM     19  C   UNL     1       7.594   5.060  15.536  0.00  0.00    +0.000 A 
ATOM     20  C   UNL     1       6.879   4.714  16.684  0.00  0.00    +0.000 A 
ENDBRANCH  13  14
ENDBRANCH   1  13
TORSDOF 5
ENDMDL
