MODEL 1
REMARK VINA RESULT:      -6.2      0.000      0.000
REMARK  Name = 
REMARK  3 active torsions:
REMARK  status: ('A' for Active; 'I' for Inactive)
REMARK    1  A    between atoms: C_2  and  OXT_3
REMARK    2  A    between atoms: C_2  and  CA_4
REMARK    3  A    between atoms: C_10  and  O_11
REMARK                            x       y       z     vdW  Elec       q    Type
REMARK                         _______ _______ _______ _____ _____    ______ ____
ROOT
ATOM      1  CA  UNL     1       5.607   4.728  17.775  0.00  0.00    +0.000 C 
ATOM      2  C   UNL     1       4.126   4.751  17.427  0.00  0.00    +0.000 C 
ATOM      3  C   UNL     1       3.438   3.801  18.394  0.00  0.00    +0.000 C 
ATOM      4  C   UNL     1       4.546   3.189  19.254  0.00  0.00    +0.000 C 
ATOM      5  N   UNL     1       5.819   3.872  18.966  0.00  0.00    +0.000 NA
ATOM      6  C   UNL     1       2.312   4.451  19.181  0.00  0.00    +0.000 C 
ATOM      7  C   UNL     1       1.409   3.290  19.211  0.00  0.00    +0.000 C 
ATOM      8  N   UNL     1       1.647   2.344  18.374  0.00  0.00    +0.000 NA
ATOM      9  O   UNL     1       2.795   2.748  17.648  0.00  0.00    +0.000 OA
ATOM     10  H   UNL     1       6.494   3.132  18.750  0.00  0.00    +0.000 HD
ENDROOT
BRANCH   1  12
ATOM     11  O   UNL     1       7.640   4.711  16.389  0.00  0.00    +0.000 OA
ATOM     12  C   UNL     1       6.523   4.286  16.624  0.00  0.00    +0.000 C 
BRANCH  12  13
ATOM     13  OXT UNL     1       5.942   3.307  15.878  0.00  0.00    +0.000 OA
ATOM     14  HXT UNL     1       6.593   2.872  15.288  0.00  0.00    +0.000 HD
ENDBRANCH  12  13
ENDBRANCH   1  12
BRANCH   7  15
ATOM     15  O   UNL     1       0.382   3.274  20.058  0.00  0.00    +0.000 OA
ATOM     16  H   UNL     1       0.200   4.139  20.453  0.00  0.00    +0.000 HD
ENDBRANCH   7  15
TORSDOF 3
ENDMDL
MODEL 2
REMARK VINA RESULT:      -6.0      1.288      1.386
REMARK  Name = 
REMARK  3 active torsions:
REMARK  status: ('A' for Active; 'I' for Inactive)
REMARK    1  A    between atoms: C_2  and  OXT_3
REMARK    2  A    between atoms: C_2  and  CA_4
REMARK    3  A    between atoms: C_10  and  O_11
REMARK                            x       y       z     vdW  Elec       q    Type
REMARK                         _______ _______ _______ _____ _____    ______ ____
ROOT
ATOM      1  CA  UNL     1       5.770   5.128  17.503  0.00  0.00    +0.000 C 
ATOM      2  C   UNL     1       4.769   4.214  16.813  0.00  0.00    +0.000 C 
ATOM      3  C   UNL     1       3.852   3.676  17.899  0.00  0.00    +0.000 C 
ATOM      4  C   UNL     1       4.376   4.240  19.221  0.00  0.00    +0.000 C 
ATOM      5  N   UNL     1       5.433   5.227  18.943  0.00  0.00    +0.000 NA
ATOM      6  C   UNL     1       2.380   3.946  17.634  0.00  0.00    +0.000 C 
ATOM      7  C   UNL     1       1.855   2.685  18.181  0.00  0.00    +0.000 C 
ATOM      8  N   UNL     1       2.697   1.727  18.348  0.00  0.00    +0.000 NA
ATOM      9  O   UNL     1       3.953   2.238  17.935  0.00  0.00    +0.000 OA
ATOM     10  H   UNL     1       6.239   4.946  19.511  0.00  0.00    +0.000 HD
ENDROOT
BRANCH   1  12
ATOM     11  O   UNL     1       8.009   4.385  18.204  0.00  0.00    +0.000 OA
ATOM     12  C   UNL     1       7.238   4.716  17.320  0.00  0.00    +0.000 C 
BRANCH  12  13
ATOM     13  OXT UNL     1       7.596   4.731  16.007  0.00  0.00    +0.000 OA
ATOM     14  HXT UNL     1       6.847   4.993  15.434  0.00  0.00    +0.000 HD
ENDBRANCH  12  13
ENDBRANCH   1  12
BRANCH   7  15
ATOM     15  O   UNL     1       0.556   2.568  18.444  0.00  0.00    +0.000 OA
ATOM     16  H   UNL     1       0.308   2.927  19.308  0.00  0.00    +0.000 HD
ENDBRANCH   7  15
TORSDOF 3
ENDMDL
MODEL 3
REMARK VINA RESULT:      -6.0      2.580      3.199
REMARK  Name = 
REMARK  3 active torsions:
REMARK  status: ('A' for Active; 'I' for Inactive)
REMARK    1  A    between atoms: C_2  and  OXT_3
REMARK    2  A    between atoms: C_2  and  CA_4
REMARK    3  A    between atoms: C_10  and  O_11
REMARK                            x       y       z     vdW  Elec       q    Type
REMARK                         _______ _______ _______ _____ _____    ______ ____
ROOT
ATOM      1  CA  UNL     1       5.351   5.130  14.992  0.00  0.00    +0.000 C 
ATOM      2  C   UNL     1       4.948   4.296  16.198  0.00  0.00    +0.000 C 
ATOM      3  C   UNL     1       4.831   5.256  17.370  0.00  0.00    +0.000 C 
ATOM      4  C   UNL     1       5.231   6.633  16.838  0.00  0.00    +0.000 C 
ATOM      5  N   UNL     1       5.393   6.561  15.376  0.00  0.00    +0.000 NA
ATOM      6  C   UNL     1       3.474   5.212  18.054  0.00  0.00    +0.000 C 
ATOM      7  C   UNL     1       3.951   5.414  19.431  0.00  0.00    +0.000 C 
ATOM      8  N   UNL     1       5.203   5.223  19.649  0.00  0.00    +0.000 NA
ATOM      9  O   UNL     1       5.765   4.866  18.398  0.00  0.00    +0.000 OA
ATOM     10  H   UNL     1       6.320   6.951  15.174  0.00  0.00    +0.000 HD
ENDROOT
BRANCH   1  12
ATOM     11  O   UNL     1       7.729   5.320  14.389  0.00  0.00    +0.000 OA
ATOM     12  C   UNL     1       6.678   4.708  14.342  0.00  0.00    +0.000 C 
BRANCH  12  13
ATOM     13  OXT UNL     1       6.557   3.512  13.704  0.00  0.00    +0.000 OA
ATOM     14  HXT UNL     1       6.287   3.629  12.770  0.00  0.00    +0.000 HD
ENDBRANCH  12  13
ENDBRANCH   1  12
BRANCH   7  15
ATOM     15  O   UNL     1       3.086   5.745  20.387  0.00  0.00    +0.000 OA
ATOM     16  H   UNL     1       3.513   5.971  21.227  0.00  0.00    +0.000 HD
ENDBRANCH   7  15
TORSDOF 3
ENDMDL
MODEL 4
REMARK VINA RESULT:      -5.9      0.933      1.008
REMARK  Name = 
REMARK  3 active torsions:
REMARK  status: ('A' for Active; 'I' for Inactive)
REMARK    1  A    between atoms: C_2  and  OXT_3
REMARK    2  A    between atoms: C_2  and  CA_4
REMARK    3  A    between atoms: C_10  and  O_11
REMARK                            x       y       z     vdW  Elec       q    Type
REMARK                         _______ _______ _______ _____ _____    ______ ____
ROOT
ATOM      1  CA  UNL     1       5.890   5.241  18.032  0.00  0.00    +0.000 C 
ATOM      2  C   UNL     1       4.425   5.565  17.781  0.00  0.00    +0.000 C 
ATOM      3  C   UNL     1       3.621   4.407  18.351  0.00  0.00    +0.000 C 
ATOM      4  C   UNL     1       4.640   3.393  18.871  0.00  0.00    +0.000 C 
ATOM      5  N   UNL     1       5.989   3.981  18.806  0.00  0.00    +0.000 NA
ATOM      6  C   UNL     1       2.581   4.840  19.371  0.00  0.00    +0.000 C 
ATOM      7  C   UNL     1       1.541   3.867  19.004  0.00  0.00    +0.000 C 
ATOM      8  N   UNL     1       1.663   3.285  17.864  0.00  0.00    +0.000 NA
ATOM      9  O   UNL     1       2.856   3.796  17.293  0.00  0.00    +0.000 OA
ATOM     10  H   UNL     1       6.569   3.303  18.299  0.00  0.00    +0.000 HD
ENDROOT
BRANCH   1  12
ATOM     11  O   UNL     1       7.746   4.479  16.607  0.00  0.00    +0.000 OA
ATOM     12  C   UNL     1       6.750   5.161  16.760  0.00  0.00    +0.000 C 
BRANCH  12  13
ATOM     13  OXT UNL     1       6.242   5.945  15.771  0.00  0.00    +0.000 OA
ATOM     14  HXT UNL     1       6.639   6.841  15.782  0.00  0.00    +0.000 HD
ENDBRANCH  12  13
ENDBRANCH   1  12
BRANCH   7  15
ATOM     15  O   UNL     1       0.516   3.653  19.826  0.00  0.00    +0.000 OA
ATOM     16  H   UNL     1       0.160   4.467  20.211  0.00  0.00    +0.000 HD
ENDBRANCH   7  15
TORSDOF 3
ENDMDL
MODEL 5
REMARK VINA RESULT:      -5.9      1.475      1.634
REMARK  Name = 
REMARK  3 active torsions:
REMARK  status: ('A' for Active; 'I' for Inactive)
REMARK    1  A    between atoms: C_2  and  OXT_3
REMARK    2  A    between atoms: C_2  and  CA_4
REMARK    3  A    between atoms: C_10  and  O_11
REMARK                            x       y       z     vdW  Elec       q    Type
REMARK                         _______ _______ _______ _____ _____    ______ ____
ROOT
ATOM      1  CA  UNL     1       5.217   4.855  16.934  0.00  0.00    +0.000 C 
ATOM      2  C   UNL     1       4.358   3.653  17.296  0.00  0.00    +0.000 C 
ATOM      3  C   UNL     1       3.570   4.041  18.537  0.00  0.00    +0.000 C 
ATOM      4  C   UNL     1       4.033   5.449  18.916  0.00  0.00    +0.000 C 
ATOM      5  N   UNL     1       4.909   5.975  17.854  0.00  0.00    +0.000 NA
ATOM      6  C   UNL     1       2.067   3.893  18.368  0.00  0.00    +0.000 C 
ATOM      7  C   UNL     1       1.768   3.437  19.734  0.00  0.00    +0.000 C 
ATOM      8  N   UNL     1       2.756   3.009  20.436  0.00  0.00    +0.000 NA
ATOM      9  O   UNL     1       3.902   3.138  19.611  0.00  0.00    +0.000 OA
ATOM     10  H   UNL     1       5.766   6.288  18.324  0.00  0.00    +0.000 HD
ENDROOT
BRANCH   1  12
ATOM     11  O   UNL     1       7.470   4.694  15.957  0.00  0.00    +0.000 OA
ATOM     12  C   UNL     1       6.727   4.573  16.914  0.00  0.00    +0.000 C 
BRANCH  12  13
ATOM     13  OXT UNL     1       7.174   4.185  18.140  0.00  0.00    +0.000 OA
ATOM     14  HXT UNL     1       7.990   4.663  18.392  0.00  0.00    +0.000 HD
ENDBRANCH  12  13
ENDBRANCH   1  12
BRANCH   7  15
ATOM     15  O   UNL     1       0.512   3.448  20.175  0.00  0.00    +0.000 OA
ATOM     16  H   UNL     1       0.402   3.936  21.004  0.00  0.00    +0.000 HD
ENDBRANCH   7  15
TORSDOF 3
ENDMDL
MODEL 6
REMARK VINA RESULT:      -5.8      1.365      1.543
REMARK  Name = 
REMARK  3 active torsions:
REMARK  status: ('A' for Active; 'I' for Inactive)
REMARK    1  A    between atoms: C_2  and  OXT_3
REMARK    2  A    between atoms: C_2  and  CA_4
REMARK    3  A    between atoms: C_10  and  O_11
REMARK                            x       y       z     vdW  Elec       q    Type
REMARK                         _______ _______ _______ _____ _____    ______ ____
ROOT
ATOM      1  CA  UNL     1       4.955   5.149  17.237  0.00  0.00    +0.000 C 
ATOM      2  C   UNL     1       3.503   5.445  17.577  0.00  0.00    +0.000 C 
ATOM      3  C   UNL     1       2.929   4.172  18.177  0.00  0.00    +0.000 C 
ATOM      4  C   UNL     1       4.046   3.129  18.118  0.00  0.00    +0.000 C 
ATOM      5  N   UNL     1       5.297   3.780  17.691  0.00  0.00    +0.000 NA
ATOM      6  C   UNL     1       2.323   4.374  19.557  0.00  0.00    +0.000 C 
ATOM      7  C   UNL     1       1.202   3.433  19.409  0.00  0.00    +0.000 C 
ATOM      8  N   UNL     1       0.903   3.064  18.215  0.00  0.00    +0.000 NA
ATOM      9  O   UNL     1       1.828   3.719  17.363  0.00  0.00    +0.000 OA
ATOM     10  H   UNL     1       5.648   3.227  16.902  0.00  0.00    +0.000 HD
ENDROOT
BRANCH   1  12
ATOM     11  O   UNL     1       5.519   4.439  14.950  0.00  0.00    +0.000 OA
ATOM     12  C   UNL     1       5.310   5.329  15.754  0.00  0.00    +0.000 C 
BRANCH  12  13
ATOM     13  OXT UNL     1       5.340   6.646  15.409  0.00  0.00    +0.000 OA
ATOM     14  HXT UNL     1       5.162   7.223  16.180  0.00  0.00    +0.000 HD
ENDBRANCH  12  13
ENDBRANCH   1  12
BRANCH   7  15
ATOM     15  O   UNL     1       0.528   3.034  20.486  0.00  0.00    +0.000 OA
ATOM     16  H   UNL     1       0.445   3.724  21.161  0.00  0.00    +0.000 HD
ENDBRANCH   7  15
TORSDOF 3
ENDMDL
MODEL 7
REMARK VINA RESULT:      -5.8      2.257      2.885
REMARK  Name = 
REMARK  3 active torsions:
REMARK  status: ('A' for Active; 'I' for Inactive)
REMARK    1  A    between atoms: C_2  and  OXT_3
REMARK    2  A    between atoms: C_2  and  CA_4
REMARK    3  A    between atoms: C_10  and  O_11
REMARK                            x       y       z     vdW  Elec       q    Type
REMARK                         _______ _______ _______ _____ _____    ______ ____
ROOT
ATOM      1  CA  UNL     1       5.605   5.187  15.291  0.00  0.00    +0.000 C 
ATOM      2  C   UNL     1       5.059   4.308  16.406  0.00  0.00    +0.000 C 
ATOM      3  C   UNL     1       4.434   5.241  17.430  0.00  0.00    +0.000 C 
ATOM      4  C   UNL     1       4.683   6.662  16.922  0.00  0.00    +0.000 C 
ATOM      5  N   UNL     1       5.253   6.601  15.565  0.00  0.00    +0.000 NA
ATOM      6  C   UNL     1       2.978   4.922  17.729  0.00  0.00    +0.000 C 
ATOM      7  C   UNL     1       3.006   5.244  19.164  0.00  0.00    +0.000 C 
ATOM      8  N   UNL     1       4.161   5.326  19.721  0.00  0.00    +0.000 NA
ATOM      9  O   UNL     1       5.106   5.075  18.695  0.00  0.00    +0.000 OA
ATOM     10  H   UNL     1       6.103   7.175  15.589  0.00  0.00    +0.000 HD
ENDROOT
BRANCH   1  12
ATOM     11  O   UNL     1       7.720   5.380  14.049  0.00  0.00    +0.000 OA
ATOM     12  C   UNL     1       7.115   5.044  15.051  0.00  0.00    +0.000 C 
BRANCH  12  13
ATOM     13  OXT UNL     1       7.739   4.506  16.135  0.00  0.00    +0.000 OA
ATOM     14  HXT UNL     1       8.385   3.818  15.872  0.00  0.00    +0.000 HD
ENDBRANCH  12  13
ENDBRANCH   1  12
BRANCH   7  15
ATOM     15  O   UNL     1       1.863   5.401  19.828  0.00  0.00    +0.000 OA
ATOM     16  H   UNL     1       1.688   6.321  20.074  0.00  0.00    +0.000 HD
ENDBRANCH   7  15
TORSDOF 3
ENDMDL
MODEL 8
REMARK VINA RESULT:      -5.8      1.915      5.016
REMARK  Name = 
REMARK  3 active torsions:
REMARK  status: ('A' for Active; 'I' for Inactive)
REMARK    1  A    between atoms: C_2  and  OXT_3
REMARK    2  A    between atoms: C_2  and  CA_4
REMARK    3  A    between atoms: C_10  and  O_11
REMARK                            x       y       z     vdW  Elec       q    Type
REMARK                         _______ _______ _______ _____ _____    ______ ____
ROOT
ATOM      1  CA  UNL     1       4.018   3.051  18.537  0.00  0.00    +0.000 C 
ATOM      2  C   UNL     1       3.985   3.545  17.099  0.00  0.00    +0.000 C 
ATOM      3  C   UNL     1       5.232   4.392  16.902  0.00  0.00    +0.000 C 
ATOM      4  C   UNL     1       5.942   4.430  18.256  0.00  0.00    +0.000 C 
ATOM      5  N   UNL     1       5.276   3.496  19.181  0.00  0.00    +0.000 NA
ATOM      6  C   UNL     1       6.101   3.928  15.744  0.00  0.00    +0.000 C 
ATOM      7  C   UNL     1       6.531   5.259  15.287  0.00  0.00    +0.000 C 
ATOM      8  N   UNL     1       5.851   6.267  15.705  0.00  0.00    +0.000 NA
ATOM      9  O   UNL     1       4.842   5.734  16.545  0.00  0.00    +0.000 OA
ATOM     10  H   UNL     1       5.066   4.037  20.026  0.00  0.00    +0.000 HD
ENDROOT
BRANCH   1  12
ATOM     11  O   UNL     1       2.166   2.754  20.130  0.00  0.00    +0.000 OA
ATOM     12  C   UNL     1       2.804   3.471  19.380  0.00  0.00    +0.000 C 
BRANCH  12  13
ATOM     13  OXT UNL     1       2.521   4.792  19.217  0.00  0.00    +0.000 OA
ATOM     14  HXT UNL     1       1.645   5.020  19.590  0.00  0.00    +0.000 HD
ENDBRANCH  12  13
ENDBRANCH   1  12
BRANCH   7  15
ATOM     15  O   UNL     1       7.559   5.370  14.449  0.00  0.00    +0.000 OA
ATOM     16  H   UNL     1       8.291   4.771  14.663  0.00  0.00    +0.000 HD
ENDBRANCH   7  15
TORSDOF 3
ENDMDL
MODEL 9
REMARK VINA RESULT:      -5.8      1.947      4.848
REMARK  Name = 
REMARK  3 active torsions:
REMARK  status: ('A' for Active; 'I' for Inactive)
REMARK    1  A    between atoms: C_2  and  OXT_3
REMARK    2  A    between atoms: C_2  and  CA_4
REMARK    3  A    between atoms: C_10  and  O_11
REMARK                            x       y       z     vdW  Elec       q    Type
REMARK                         _______ _______ _______ _____ _____    ______ ____
ROOT
ATOM      1  CA  UNL     1       3.701   2.649  17.766  0.00  0.00    +0.000 C 
ATOM      2  C   UNL     1       4.047   3.691  16.713  0.00  0.00    +0.000 C 
ATOM      3  C   UNL     1       5.021   4.659  17.363  0.00  0.00    +0.000 C 
ATOM      4  C   UNL     1       5.180   4.199  18.813  0.00  0.00    +0.000 C 
ATOM      5  N   UNL     1       4.497   2.906  18.990  0.00  0.00    +0.000 NA
ATOM      6  C   UNL     1       6.327   4.806  16.598  0.00  0.00    +0.000 C 
ATOM      7  C   UNL     1       6.532   6.241  16.850  0.00  0.00    +0.000 C 
ATOM      8  N   UNL     1       5.515   6.913  17.258  0.00  0.00    +0.000 NA
ATOM      9  O   UNL     1       4.449   5.983  17.356  0.00  0.00    +0.000 OA
ATOM     10  H   UNL     1       3.873   3.023  19.795  0.00  0.00    +0.000 HD
ENDROOT
BRANCH   1  12
ATOM     11  O   UNL     1       1.344   3.356  17.776  0.00  0.00    +0.000 OA
ATOM     12  C   UNL     1       2.205   2.561  18.105  0.00  0.00    +0.000 C 
BRANCH  12  13
ATOM     13  OXT UNL     1       1.926   1.436  18.818  0.00  0.00    +0.000 OA
ATOM     14  HXT UNL     1       2.202   1.526  19.753  0.00  0.00    +0.000 HD
ENDBRANCH  12  13
ENDBRANCH   1  12
BRANCH   7  15
ATOM     15  O   UNL     1       7.723   6.789  16.618  0.00  0.00    +0.000 OA
ATOM     16  H   UNL     1       7.747   7.321  15.808  0.00  0.00    +0.000 HD
ENDBRANCH   7  15
TORSDOF 3
ENDMDL
