MODEL 1
REMARK VINA RESULT:      -6.6      0.000      0.000
REMARK  Name = 
REMARK  8 active torsions:
REMARK  status: ('A' for Active; 'I' for Inactive)
REMARK    1  A    between atoms: C_2  and  C_3
REMARK    2  A    between atoms: C_3  and  N_4
REMARK    3  A    between atoms: C_12  and  O_13
REMARK    4  A    between atoms: O_13  and  C_14
REMARK    5  A    between atoms: N_18  and  C_19
REMARK    6  A    between atoms: N_25  and  C_26
REMARK    7  A    between atoms: C_26  and  C_27
REMARK    8  A    between atoms: N_30  and  C_31
REMARK                            x       y       z     vdW  Elec       q    Type
REMARK                         _______ _______ _______ _____ _____    ______ ____
ROOT
ATOM      1  N   UNL     1       0.984  12.095  19.340  0.00  0.00    +0.000 N 
ATOM      2  C   UNL     1       1.625  10.958  18.738  0.00  0.00    +0.000 A 
ATOM      3  O   UNL     1       2.179  10.954  17.636  0.00  0.00    +0.000 OA
ATOM      4  C   UNL     1       1.462   9.726  19.595  0.00  0.00    +0.000 A 
ATOM      5  C   UNL     1       1.822   8.405  19.504  0.00  0.00    +0.000 C 
ATOM      6  S   UNL     1       1.225   7.366  20.908  0.00  0.00    +0.000 S 
ATOM      7  C   UNL     1       2.017   5.982  20.230  0.00  0.00    +0.000 A 
ATOM      8  C   UNL     1       1.981   4.761  20.877  0.00  0.00    +0.000 A 
ATOM      9  C   UNL     1       2.621   3.682  20.332  0.00  0.00    +0.000 A 
ATOM     10  C   UNL     1       3.307   3.860  19.125  0.00  0.00    +0.000 A 
ATOM     11  C   UNL     1       3.343   5.141  18.470  0.00  0.00    +0.000 A 
ATOM     12  C   UNL     1       2.690   6.242  19.027  0.00  0.00    +0.000 A 
ATOM     13  N   UNL     1       2.583   7.600  18.594  0.00  0.00    +0.000 N 
ATOM     14  C   UNL     1       3.214   8.044  17.366  0.00  0.00    +0.000 C 
ATOM     15  S   UNL     1       0.512  10.234  20.976  0.00  0.00    +0.000 S 
ATOM     16  C   UNL     1       0.339  11.897  20.578  0.00  0.00    +0.000 A 
ATOM     17  C   UNL     1      -0.411  12.668  21.423  0.00  0.00    +0.000 C 
ATOM     18  C   UNL     1      -1.108  12.044  22.649  0.00  0.00    +0.000 C 
ATOM     19  O   UNL     1      -0.858  11.002  23.241  0.00  0.00    +0.000 OA
ATOM     20  N   UNL     1      -2.057  12.932  23.055  0.00  0.00    +0.000 N 
ATOM     21  C   UNL     1      -1.825  14.163  22.496  0.00  0.00    +0.000 C 
ATOM     22  S   UNL     1      -2.582  15.585  22.947  0.00  0.00    +0.000 S 
ATOM     23  N   UNL     1      -0.827  14.008  21.489  0.00  0.00    +0.000 N 
ATOM     24  C   UNL     1      -0.308  15.146  20.776  0.00  0.00    +0.000 C 
ENDROOT
BRANCH   9  25
ATOM     25  O   UNL     1       2.482   2.561  21.092  0.00  0.00    +0.000 OA
ATOM     26  C   UNL     1       1.382   2.431  21.956  0.00  0.00    +0.000 C 
ENDBRANCH   9  25
BRANCH  20  27
ATOM     27  C   UNL     1      -3.087  12.550  24.017  0.00  0.00    +0.000 C 
ATOM     28  C   UNL     1      -4.508  12.640  23.488  0.00  0.00    +0.000 C 
ENDBRANCH  20  27
BRANCH   1  29
ATOM     29  C   UNL     1       0.818  13.289  18.546  0.00  0.00    +0.000 C 
BRANCH  29  31
ATOM     30  C   UNL     1       3.062  14.245  19.310  0.00  0.00    +0.000 C 
ATOM     31  C   UNL     1       2.052  14.140  18.425  0.00  0.00    +0.000 C 
ENDBRANCH  29  31
ENDBRANCH   1  29
TORSDOF 4
ENDMDL
MODEL 2
REMARK VINA RESULT:      -6.5      0.616      1.069
REMARK  Name = 
REMARK  8 active torsions:
REMARK  status: ('A' for Active; 'I' for Inactive)
REMARK    1  A    between atoms: C_2  and  C_3
REMARK    2  A    between atoms: C_3  and  N_4
REMARK    3  A    between atoms: C_12  and  O_13
REMARK    4  A    between atoms: O_13  and  C_14
REMARK    5  A    between atoms: N_18  and  C_19
REMARK    6  A    between atoms: N_25  and  C_26
REMARK    7  A    between atoms: C_26  and  C_27
REMARK    8  A    between atoms: N_30  and  C_31
REMARK                            x       y       z     vdW  Elec       q    Type
REMARK                         _______ _______ _______ _____ _____    ______ ____
ROOT
ATOM      1  N   UNL     1       0.878  12.084  19.658  0.00  0.00    +0.000 N 
ATOM      2  C   UNL     1       1.549  10.983  19.023  0.00  0.00    +0.000 A 
ATOM      3  O   UNL     1       2.140  11.037  17.941  0.00  0.00    +0.000 OA
ATOM      4  C   UNL     1       1.369   9.709  19.813  0.00  0.00    +0.000 A 
ATOM      5  C   UNL     1       1.744   8.397  19.669  0.00  0.00    +0.000 C 
ATOM      6  S   UNL     1       1.110   7.286  21.000  0.00  0.00    +0.000 S 
ATOM      7  C   UNL     1       1.937   5.943  20.282  0.00  0.00    +0.000 A 
ATOM      8  C   UNL     1       1.891   4.691  20.868  0.00  0.00    +0.000 A 
ATOM      9  C   UNL     1       2.559   3.645  20.292  0.00  0.00    +0.000 A 
ATOM     10  C   UNL     1       3.284   3.888  19.120  0.00  0.00    +0.000 A 
ATOM     11  C   UNL     1       3.330   5.199  18.529  0.00  0.00    +0.000 A 
ATOM     12  C   UNL     1       2.648   6.266  19.117  0.00  0.00    +0.000 A 
ATOM     13  N   UNL     1       2.543   7.644  18.747  0.00  0.00    +0.000 N 
ATOM     14  C   UNL     1       3.211   8.152  17.565  0.00  0.00    +0.000 C 
ATOM     15  S   UNL     1       0.369  10.141  21.183  0.00  0.00    +0.000 S 
ATOM     16  C   UNL     1       0.193  11.820  20.862  0.00  0.00    +0.000 A 
ATOM     17  C   UNL     1      -0.592  12.542  21.717  0.00  0.00    +0.000 C 
ATOM     18  C   UNL     1      -1.324  11.854  22.887  0.00  0.00    +0.000 C 
ATOM     19  O   UNL     1      -1.084  10.786  23.436  0.00  0.00    +0.000 OA
ATOM     20  N   UNL     1      -2.294  12.714  23.303  0.00  0.00    +0.000 N 
ATOM     21  C   UNL     1      -2.056  13.972  22.813  0.00  0.00    +0.000 C 
ATOM     22  S   UNL     1      -2.841  15.365  23.307  0.00  0.00    +0.000 S 
ATOM     23  N   UNL     1      -1.023  13.875  21.834  0.00  0.00    +0.000 N 
ATOM     24  C   UNL     1      -0.490  15.050  21.197  0.00  0.00    +0.000 C 
ENDROOT
BRANCH   9  25
ATOM     25  O   UNL     1       2.405   2.487  20.991  0.00  0.00    +0.000 OA
ATOM     26  C   UNL     1       1.431   2.400  22.000  0.00  0.00    +0.000 C 
ENDBRANCH   9  25
BRANCH  20  27
ATOM     27  C   UNL     1      -3.352  12.276  24.209  0.00  0.00    +0.000 C 
ATOM     28  C   UNL     1      -4.758  12.629  23.755  0.00  0.00    +0.000 C 
ENDBRANCH  20  27
BRANCH   1  29
ATOM     29  C   UNL     1       0.727  13.314  18.918  0.00  0.00    +0.000 C 
BRANCH  29  31
ATOM     30  C   UNL     1      -1.420  12.414  17.862  0.00  0.00    +0.000 C 
ATOM     31  C   UNL     1      -0.511  13.387  18.067  0.00  0.00    +0.000 C 
ENDBRANCH  29  31
ENDBRANCH   1  29
TORSDOF 4
ENDMDL
MODEL 3
REMARK VINA RESULT:      -6.3      6.084     10.377
REMARK  Name = 
REMARK  8 active torsions:
REMARK  status: ('A' for Active; 'I' for Inactive)
REMARK    1  A    between atoms: C_2  and  C_3
REMARK    2  A    between atoms: C_3  and  N_4
REMARK    3  A    between atoms: C_12  and  O_13
REMARK    4  A    between atoms: O_13  and  C_14
REMARK    5  A    between atoms: N_18  and  C_19
REMARK    6  A    between atoms: N_25  and  C_26
REMARK    7  A    between atoms: C_26  and  C_27
REMARK    8  A    between atoms: N_30  and  C_31
REMARK                            x       y       z     vdW  Elec       q    Type
REMARK                         _______ _______ _______ _____ _____    ______ ____
ROOT
ATOM      1  N   UNL     1       7.153  17.061  19.161  0.00  0.00    +0.000 N 
ATOM      2  C   UNL     1       5.788  17.329  19.523  0.00  0.00    +0.000 A 
ATOM      3  O   UNL     1       5.385  18.359  20.070  0.00  0.00    +0.000 OA
ATOM      4  C   UNL     1       4.904  16.142  19.225  0.00  0.00    +0.000 A 
ATOM      5  C   UNL     1       3.577  15.833  19.390  0.00  0.00    +0.000 C 
ATOM      6  S   UNL     1       3.137  14.118  18.869  0.00  0.00    +0.000 S 
ATOM      7  C   UNL     1       1.476  14.418  19.260  0.00  0.00    +0.000 A 
ATOM      8  C   UNL     1       0.515  13.446  19.051  0.00  0.00    +0.000 A 
ATOM      9  C   UNL     1      -0.793  13.706  19.356  0.00  0.00    +0.000 A 
ATOM     10  C   UNL     1      -1.116  14.968  19.867  0.00  0.00    +0.000 A 
ATOM     11  C   UNL     1      -0.104  15.971  20.069  0.00  0.00    +0.000 A 
ATOM     12  C   UNL     1       1.230  15.707  19.757  0.00  0.00    +0.000 A 
ATOM     13  N   UNL     1       2.405  16.517  19.849  0.00  0.00    +0.000 N 
ATOM     14  C   UNL     1       2.335  17.877  20.348  0.00  0.00    +0.000 C 
ATOM     15  S   UNL     1       5.968  14.913  18.573  0.00  0.00    +0.000 S 
ATOM     16  C   UNL     1       7.442  15.798  18.606  0.00  0.00    +0.000 A 
ATOM     17  C   UNL     1       8.572  15.144  18.200  0.00  0.00    +0.000 C 
ATOM     18  C   UNL     1       8.518  13.661  17.781  0.00  0.00    +0.000 C 
ATOM     19  O   UNL     1       7.564  12.990  17.409  0.00  0.00    +0.000 OA
ATOM     20  N   UNL     1       9.800  13.200  17.807  0.00  0.00    +0.000 N 
ATOM     21  C   UNL     1      10.682  14.249  17.832  0.00  0.00    +0.000 C 
ATOM     22  S   UNL     1      12.333  14.127  17.590  0.00  0.00    +0.000 S 
ATOM     23  N   UNL     1       9.941  15.441  18.083  0.00  0.00    +0.000 N 
ATOM     24  C   UNL     1      10.583  16.730  18.083  0.00  0.00    +0.000 C 
ENDROOT
BRANCH   9  25
ATOM     25  O   UNL     1      -1.605  12.644  19.094  0.00  0.00    +0.000 OA
ATOM     26  C   UNL     1      -1.399  11.423  19.759  0.00  0.00    +0.000 C 
ENDBRANCH   9  25
BRANCH  20  27
ATOM     27  C   UNL     1      10.088  11.770  17.733  0.00  0.00    +0.000 C 
ATOM     28  C   UNL     1      10.095  11.058  19.074  0.00  0.00    +0.000 C 
ENDBRANCH  20  27
BRANCH   1  29
ATOM     29  C   UNL     1       8.174  17.978  19.608  0.00  0.00    +0.000 C 
BRANCH  29  31
ATOM     30  C   UNL     1       8.873  16.679  21.696  0.00  0.00    +0.000 C 
ATOM     31  C   UNL     1       8.570  17.822  21.051  0.00  0.00    +0.000 C 
ENDBRANCH  29  31
ENDBRANCH   1  29
TORSDOF 4
ENDMDL
MODEL 4
REMARK VINA RESULT:      -6.3      2.379      4.880
REMARK  Name = 
REMARK  8 active torsions:
REMARK  status: ('A' for Active; 'I' for Inactive)
REMARK    1  A    between atoms: C_2  and  C_3
REMARK    2  A    between atoms: C_3  and  N_4
REMARK    3  A    between atoms: C_12  and  O_13
REMARK    4  A    between atoms: O_13  and  C_14
REMARK    5  A    between atoms: N_18  and  C_19
REMARK    6  A    between atoms: N_25  and  C_26
REMARK    7  A    between atoms: C_26  and  C_27
REMARK    8  A    between atoms: N_30  and  C_31
REMARK                            x       y       z     vdW  Elec       q    Type
REMARK                         _______ _______ _______ _____ _____    ______ ____
ROOT
ATOM      1  N   UNL     1       0.568  10.619  20.831  0.00  0.00    +0.000 N 
ATOM      2  C   UNL     1       0.808   9.202  20.870  0.00  0.00    +0.000 A 
ATOM      3  O   UNL     1       0.411   8.437  21.752  0.00  0.00    +0.000 OA
ATOM      4  C   UNL     1       1.691   8.770  19.725  0.00  0.00    +0.000 A 
ATOM      5  C   UNL     1       2.251   7.591  19.301  0.00  0.00    +0.000 C 
ATOM      6  S   UNL     1       3.334   7.766  17.816  0.00  0.00    +0.000 S 
ATOM      7  C   UNL     1       3.616   6.057  17.811  0.00  0.00    +0.000 A 
ATOM      8  C   UNL     1       4.400   5.474  16.832  0.00  0.00    +0.000 A 
ATOM      9  C   UNL     1       4.602   4.121  16.838  0.00  0.00    +0.000 A 
ATOM     10  C   UNL     1       3.990   3.365  17.844  0.00  0.00    +0.000 A 
ATOM     11  C   UNL     1       3.168   3.987  18.849  0.00  0.00    +0.000 A 
ATOM     12  C   UNL     1       2.962   5.367  18.843  0.00  0.00    +0.000 A 
ATOM     13  N   UNL     1       2.196   6.216  19.702  0.00  0.00    +0.000 N 
ATOM     14  C   UNL     1       1.459   5.670  20.826  0.00  0.00    +0.000 C 
ATOM     15  S   UNL     1       2.068  10.233  18.841  0.00  0.00    +0.000 S 
ATOM     16  C   UNL     1       1.159  11.349  19.781  0.00  0.00    +0.000 A 
ATOM     17  C   UNL     1       1.230  12.668  19.426  0.00  0.00    +0.000 C 
ATOM     18  C   UNL     1       2.132  13.124  18.261  0.00  0.00    +0.000 C 
ATOM     19  O   UNL     1       2.582  12.477  17.325  0.00  0.00    +0.000 OA
ATOM     20  N   UNL     1       2.292  14.470  18.395  0.00  0.00    +0.000 N 
ATOM     21  C   UNL     1       1.349  14.980  19.249  0.00  0.00    +0.000 C 
ATOM     22  S   UNL     1       1.022  16.606  19.468  0.00  0.00    +0.000 S 
ATOM     23  N   UNL     1       0.702  13.884  19.893  0.00  0.00    +0.000 N 
ATOM     24  C   UNL     1      -0.402  14.097  20.792  0.00  0.00    +0.000 C 
ENDROOT
BRANCH   9  25
ATOM     25  O   UNL     1       5.399   3.714  15.812  0.00  0.00    +0.000 OA
ATOM     26  C   UNL     1       6.619   4.367  15.570  0.00  0.00    +0.000 C 
ENDBRANCH   9  25
BRANCH  20  27
ATOM     27  C   UNL     1       3.306  15.188  17.627  0.00  0.00    +0.000 C 
ATOM     28  C   UNL     1       4.681  15.218  18.272  0.00  0.00    +0.000 C 
ENDBRANCH  20  27
BRANCH   1  29
ATOM     29  C   UNL     1      -0.039  11.244  21.982  0.00  0.00    +0.000 C 
BRANCH  29  31
ATOM     30  C   UNL     1      -2.364  11.855  22.850  0.00  0.00    +0.000 C 
ATOM     31  C   UNL     1      -1.543  11.228  21.987  0.00  0.00    +0.000 C 
ENDBRANCH  29  31
ENDBRANCH   1  29
TORSDOF 4
ENDMDL
MODEL 5
REMARK VINA RESULT:      -6.3      1.372      1.534
REMARK  Name = 
REMARK  8 active torsions:
REMARK  status: ('A' for Active; 'I' for Inactive)
REMARK    1  A    between atoms: C_2  and  C_3
REMARK    2  A    between atoms: C_3  and  N_4
REMARK    3  A    between atoms: C_12  and  O_13
REMARK    4  A    between atoms: O_13  and  C_14
REMARK    5  A    between atoms: N_18  and  C_19
REMARK    6  A    between atoms: N_25  and  C_26
REMARK    7  A    between atoms: C_26  and  C_27
REMARK    8  A    between atoms: N_30  and  C_31
REMARK                            x       y       z     vdW  Elec       q    Type
REMARK                         _______ _______ _______ _____ _____    ______ ____
ROOT
ATOM      1  N   UNL     1      -0.174  13.004  19.904  0.00  0.00    +0.000 N 
ATOM      2  C   UNL     1       0.607  11.996  19.243  0.00  0.00    +0.000 A 
ATOM      3  O   UNL     1       1.176  12.134  18.157  0.00  0.00    +0.000 OA
ATOM      4  C   UNL     1       0.577  10.696  20.009  0.00  0.00    +0.000 A 
ATOM      5  C   UNL     1       1.094   9.436  19.837  0.00  0.00    +0.000 C 
ATOM      6  S   UNL     1       0.602   8.238  21.152  0.00  0.00    +0.000 S 
ATOM      7  C   UNL     1       1.564   7.008  20.401  0.00  0.00    +0.000 A 
ATOM      8  C   UNL     1       1.662   5.748  20.963  0.00  0.00    +0.000 A 
ATOM      9  C   UNL     1       2.436   4.793  20.361  0.00  0.00    +0.000 A 
ATOM     10  C   UNL     1       3.116   5.136  19.187  0.00  0.00    +0.000 A 
ATOM     11  C   UNL     1       3.010   6.455  18.622  0.00  0.00    +0.000 A 
ATOM     12  C   UNL     1       2.221   7.429  19.236  0.00  0.00    +0.000 A 
ATOM     13  N   UNL     1       1.961   8.793  18.894  0.00  0.00    +0.000 N 
ATOM     14  C   UNL     1       2.556   9.393  17.715  0.00  0.00    +0.000 C 
ATOM     15  S   UNL     1      -0.449  10.989  21.397  0.00  0.00    +0.000 S 
ATOM     16  C   UNL     1      -0.812  12.645  21.109  0.00  0.00    +0.000 A 
ATOM     17  C   UNL     1      -1.663  13.260  21.986  0.00  0.00    +0.000 C 
ATOM     18  C   UNL     1      -2.301  12.473  23.149  0.00  0.00    +0.000 C 
ATOM     19  O   UNL     1      -1.939  11.429  23.675  0.00  0.00    +0.000 OA
ATOM     20  N   UNL     1      -3.356  13.213  23.590  0.00  0.00    +0.000 N 
ATOM     21  C   UNL     1      -3.264  14.499  23.122  0.00  0.00    +0.000 C 
ATOM     22  S   UNL     1      -4.192  15.787  23.650  0.00  0.00    +0.000 S 
ATOM     23  N   UNL     1      -2.237  14.534  22.132  0.00  0.00    +0.000 N 
ATOM     24  C   UNL     1      -1.845  15.773  21.513  0.00  0.00    +0.000 C 
ENDROOT
BRANCH   9  25
ATOM     25  O   UNL     1       2.419   3.613  21.039  0.00  0.00    +0.000 OA
ATOM     26  C   UNL     1       1.578   2.571  20.613  0.00  0.00    +0.000 C 
ENDBRANCH   9  25
BRANCH  20  27
ATOM     27  C   UNL     1      -4.349  12.645  24.497  0.00  0.00    +0.000 C 
ATOM     28  C   UNL     1      -5.768  12.639  23.955  0.00  0.00    +0.000 C 
ENDBRANCH  20  27
BRANCH   1  29
ATOM     29  C   UNL     1      -0.469  14.223  19.190  0.00  0.00    +0.000 C 
BRANCH  29  31
ATOM     30  C   UNL     1       0.643  16.456  18.628  0.00  0.00    +0.000 C 
ATOM     31  C   UNL     1       0.668  15.207  19.131  0.00  0.00    +0.000 C 
ENDBRANCH  29  31
ENDBRANCH   1  29
TORSDOF 4
ENDMDL
MODEL 6
REMARK VINA RESULT:      -6.1      2.093      8.698
REMARK  Name = 
REMARK  8 active torsions:
REMARK  status: ('A' for Active; 'I' for Inactive)
REMARK    1  A    between atoms: C_2  and  C_3
REMARK    2  A    between atoms: C_3  and  N_4
REMARK    3  A    between atoms: C_12  and  O_13
REMARK    4  A    between atoms: O_13  and  C_14
REMARK    5  A    between atoms: N_18  and  C_19
REMARK    6  A    between atoms: N_25  and  C_26
REMARK    7  A    between atoms: C_26  and  C_27
REMARK    8  A    between atoms: N_30  and  C_31
REMARK                            x       y       z     vdW  Elec       q    Type
REMARK                         _______ _______ _______ _____ _____    ______ ____
ROOT
ATOM      1  N   UNL     1       2.908   7.480  17.838  0.00  0.00    +0.000 N 
ATOM      2  C   UNL     1       2.497   8.843  18.035  0.00  0.00    +0.000 A 
ATOM      3  O   UNL     1       2.854   9.801  17.344  0.00  0.00    +0.000 OA
ATOM      4  C   UNL     1       1.629   8.977  19.262  0.00  0.00    +0.000 A 
ATOM      5  C   UNL     1       1.007  10.006  19.925  0.00  0.00    +0.000 C 
ATOM      6  S   UNL     1       0.132   9.486  21.464  0.00  0.00    +0.000 S 
ATOM      7  C   UNL     1      -0.412  11.112  21.713  0.00  0.00    +0.000 A 
ATOM      8  C   UNL     1      -1.223  11.428  22.787  0.00  0.00    +0.000 A 
ATOM      9  C   UNL     1      -1.651  12.716  22.961  0.00  0.00    +0.000 A 
ATOM     10  C   UNL     1      -1.253  13.677  22.025  0.00  0.00    +0.000 A 
ATOM     11  C   UNL     1      -0.417  13.329  20.907  0.00  0.00    +0.000 A 
ATOM     12  C   UNL     1       0.020  12.015  20.730  0.00  0.00    +0.000 A 
ATOM     13  N   UNL     1       0.831  11.413  19.718  0.00  0.00    +0.000 N 
ATOM     14  C   UNL     1       1.368  12.202  18.626  0.00  0.00    +0.000 C 
ATOM     15  S   UNL     1       1.521   7.367  19.942  0.00  0.00    +0.000 S 
ATOM     16  C   UNL     1       2.455   6.524  18.771  0.00  0.00    +0.000 A 
ATOM     17  C   UNL     1       2.656   5.187  18.975  0.00  0.00    +0.000 C 
ATOM     18  C   UNL     1       2.104   4.490  20.235  0.00  0.00    +0.000 C 
ATOM     19  O   UNL     1       1.196   4.834  20.981  0.00  0.00    +0.000 OA
ATOM     20  N   UNL     1       2.768   3.307  20.351  0.00  0.00    +0.000 N 
ATOM     21  C   UNL     1       3.393   2.995  19.172  0.00  0.00    +0.000 C 
ATOM     22  S   UNL     1       4.077   1.512  18.805  0.00  0.00    +0.000 S 
ATOM     23  N   UNL     1       3.338   4.143  18.328  0.00  0.00    +0.000 N 
ATOM     24  C   UNL     1       3.841   4.099  16.979  0.00  0.00    +0.000 C 
ENDROOT
BRANCH   9  25
ATOM     25  O   UNL     1      -2.435  12.855  24.065  0.00  0.00    +0.000 OA
ATOM     26  C   UNL     1      -3.816  12.612  23.980  0.00  0.00    +0.000 C 
ENDBRANCH   9  25
BRANCH  20  27
ATOM     27  C   UNL     1       2.695   2.519  21.578  0.00  0.00    +0.000 C 
ATOM     28  C   UNL     1       1.283   2.223  22.054  0.00  0.00    +0.000 C 
ENDBRANCH  20  27
BRANCH   1  29
ATOM     29  C   UNL     1       3.943   7.208  16.870  0.00  0.00    +0.000 C 
BRANCH  29  31
ATOM     30  C   UNL     1       6.425   6.612  17.017  0.00  0.00    +0.000 C 
ATOM     31  C   UNL     1       5.346   7.320  17.402  0.00  0.00    +0.000 C 
ENDBRANCH  29  31
ENDBRANCH   1  29
TORSDOF 4
ENDMDL
MODEL 7
REMARK VINA RESULT:      -6.1      2.792      5.028
REMARK  Name = 
REMARK  8 active torsions:
REMARK  status: ('A' for Active; 'I' for Inactive)
REMARK    1  A    between atoms: C_2  and  C_3
REMARK    2  A    between atoms: C_3  and  N_4
REMARK    3  A    between atoms: C_12  and  O_13
REMARK    4  A    between atoms: O_13  and  C_14
REMARK    5  A    between atoms: N_18  and  C_19
REMARK    6  A    between atoms: N_25  and  C_26
REMARK    7  A    between atoms: C_26  and  C_27
REMARK    8  A    between atoms: N_30  and  C_31
REMARK                            x       y       z     vdW  Elec       q    Type
REMARK                         _______ _______ _______ _____ _____    ______ ____
ROOT
ATOM      1  N   UNL     1       0.329   9.909  20.214  0.00  0.00    +0.000 N 
ATOM      2  C   UNL     1       0.724   8.533  20.094  0.00  0.00    +0.000 A 
ATOM      3  O   UNL     1       0.292   7.605  20.784  0.00  0.00    +0.000 OA
ATOM      4  C   UNL     1       1.814   8.369  19.063  0.00  0.00    +0.000 A 
ATOM      5  C   UNL     1       2.565   7.328  18.577  0.00  0.00    +0.000 C 
ATOM      6  S   UNL     1       3.829   7.834  17.330  0.00  0.00    +0.000 S 
ATOM      7  C   UNL     1       4.306   6.180  17.133  0.00  0.00    +0.000 A 
ATOM      8  C   UNL     1       5.291   5.833  16.226  0.00  0.00    +0.000 A 
ATOM      9  C   UNL     1       5.647   4.521  16.077  0.00  0.00    +0.000 A 
ATOM     10  C   UNL     1       4.984   3.563  16.853  0.00  0.00    +0.000 A 
ATOM     11  C   UNL     1       3.955   3.940  17.785  0.00  0.00    +0.000 A 
ATOM     12  C   UNL     1       3.592   5.279  17.937  0.00  0.00    +0.000 A 
ATOM     13  N   UNL     1       2.612   5.908  18.767  0.00  0.00    +0.000 N 
ATOM     14  C   UNL     1       1.784   5.127  19.666  0.00  0.00    +0.000 C 
ATOM     15  S   UNL     1       2.145   9.981  18.465  0.00  0.00    +0.000 S 
ATOM     16  C   UNL     1       0.981  10.847  19.388  0.00  0.00    +0.000 A 
ATOM     17  C   UNL     1       0.949  12.205  19.237  0.00  0.00    +0.000 C 
ATOM     18  C   UNL     1       1.955  12.920  18.313  0.00  0.00    +0.000 C 
ATOM     19  O   UNL     1       2.613  12.472  17.383  0.00  0.00    +0.000 OA
ATOM     20  N   UNL     1       1.935  14.238  18.657  0.00  0.00    +0.000 N 
ATOM     21  C   UNL     1       0.822  14.517  19.406  0.00  0.00    +0.000 C 
ATOM     22  S   UNL     1       0.278  16.052  19.792  0.00  0.00    +0.000 S 
ATOM     23  N   UNL     1       0.218  13.279  19.775  0.00  0.00    +0.000 N 
ATOM     24  C   UNL     1      -1.025  13.245  20.501  0.00  0.00    +0.000 C 
ENDROOT
BRANCH   9  25
ATOM     25  O   UNL     1       6.630   4.355  15.150  0.00  0.00    +0.000 OA
ATOM     26  C   UNL     1       6.302   3.966  13.841  0.00  0.00    +0.000 C 
ENDBRANCH   9  25
BRANCH  20  27
ATOM     27  C   UNL     1       2.962  15.159  18.175  0.00  0.00    +0.000 C 
ATOM     28  C   UNL     1       4.214  15.211  19.032  0.00  0.00    +0.000 C 
ENDBRANCH  20  27
BRANCH   1  29
ATOM     29  C   UNL     1      -0.512  10.288  21.325  0.00  0.00    +0.000 C 
BRANCH  29  31
ATOM     30  C   UNL     1      -0.011   9.485  23.700  0.00  0.00    +0.000 C 
ATOM     31  C   UNL     1       0.185  10.316  22.658  0.00  0.00    +0.000 C 
ENDBRANCH  29  31
ENDBRANCH   1  29
TORSDOF 4
ENDMDL
MODEL 8
REMARK VINA RESULT:      -6.0      2.545      4.929
REMARK  Name = 
REMARK  8 active torsions:
REMARK  status: ('A' for Active; 'I' for Inactive)
REMARK    1  A    between atoms: C_2  and  C_3
REMARK    2  A    between atoms: C_3  and  N_4
REMARK    3  A    between atoms: C_12  and  O_13
REMARK    4  A    between atoms: O_13  and  C_14
REMARK    5  A    between atoms: N_18  and  C_19
REMARK    6  A    between atoms: N_25  and  C_26
REMARK    7  A    between atoms: C_26  and  C_27
REMARK    8  A    between atoms: N_30  and  C_31
REMARK                            x       y       z     vdW  Elec       q    Type
REMARK                         _______ _______ _______ _____ _____    ______ ____
ROOT
ATOM      1  N   UNL     1      -1.326  12.582  21.925  0.00  0.00    +0.000 N 
ATOM      2  C   UNL     1      -0.827  11.234  21.953  0.00  0.00    +0.000 A 
ATOM      3  O   UNL     1      -1.015  10.424  22.864  0.00  0.00    +0.000 OA
ATOM      4  C   UNL     1       0.040  10.951  20.750  0.00  0.00    +0.000 A 
ATOM      5  C   UNL     1       0.777   9.888  20.292  0.00  0.00    +0.000 C 
ATOM      6  S   UNL     1       1.704  10.233  18.734  0.00  0.00    +0.000 S 
ATOM      7  C   UNL     1       2.294   8.605  18.716  0.00  0.00    +0.000 A 
ATOM      8  C   UNL     1       3.103   8.159  17.687  0.00  0.00    +0.000 A 
ATOM      9  C   UNL     1       3.550   6.866  17.684  0.00  0.00    +0.000 A 
ATOM     10  C   UNL     1       3.158   6.028  18.734  0.00  0.00    +0.000 A 
ATOM     11  C   UNL     1       2.308   6.506  19.792  0.00  0.00    +0.000 A 
ATOM     12  C   UNL     1       1.851   7.824  19.794  0.00  0.00    +0.000 A 
ATOM     13  N   UNL     1       1.003   8.533  20.702  0.00  0.00    +0.000 N 
ATOM     14  C   UNL     1       0.458   7.881  21.877  0.00  0.00    +0.000 C 
ATOM     15  S   UNL     1       0.080  12.444  19.835  0.00  0.00    +0.000 S 
ATOM     16  C   UNL     1      -0.952  13.391  20.833  0.00  0.00    +0.000 A 
ATOM     17  C   UNL     1      -1.150  14.694  20.468  0.00  0.00    +0.000 C 
ATOM     18  C   UNL     1      -0.430  15.288  19.241  0.00  0.00    +0.000 C 
ATOM     19  O   UNL     1       0.067  14.718  18.278  0.00  0.00    +0.000 OA
ATOM     20  N   UNL     1      -0.510  16.642  19.357  0.00  0.00    +0.000 N 
ATOM     21  C   UNL     1      -1.470  16.985  20.274  0.00  0.00    +0.000 C 
ATOM     22  S   UNL     1      -2.075  18.527  20.508  0.00  0.00    +0.000 S 
ATOM     23  N   UNL     1      -1.859  15.800  20.966  0.00  0.00    +0.000 N 
ATOM     24  C   UNL     1      -2.919  15.823  21.941  0.00  0.00    +0.000 C 
ENDROOT
BRANCH   9  25
ATOM     25  O   UNL     1       4.336   6.594  16.605  0.00  0.00    +0.000 OA
ATOM     26  C   UNL     1       5.723   6.438  16.770  0.00  0.00    +0.000 C 
ENDBRANCH   9  25
BRANCH  20  27
ATOM     27  C   UNL     1       0.299  17.521  18.517  0.00  0.00    +0.000 C 
ATOM     28  C   UNL     1      -0.444  18.126  17.338  0.00  0.00    +0.000 C 
ENDBRANCH  20  27
BRANCH   1  29
ATOM     29  C   UNL     1      -1.956  13.105  23.114  0.00  0.00    +0.000 C 
BRANCH  29  31
ATOM     30  C   UNL     1      -4.054  12.508  24.447  0.00  0.00    +0.000 C 
ATOM     31  C   UNL     1      -3.396  12.707  23.288  0.00  0.00    +0.000 C 
ENDBRANCH  29  31
ENDBRANCH   1  29
TORSDOF 4
ENDMDL
MODEL 9
REMARK VINA RESULT:      -5.9      5.388      9.267
REMARK  Name = 
REMARK  8 active torsions:
REMARK  status: ('A' for Active; 'I' for Inactive)
REMARK    1  A    between atoms: C_2  and  C_3
REMARK    2  A    between atoms: C_3  and  N_4
REMARK    3  A    between atoms: C_12  and  O_13
REMARK    4  A    between atoms: O_13  and  C_14
REMARK    5  A    between atoms: N_18  and  C_19
REMARK    6  A    between atoms: N_25  and  C_26
REMARK    7  A    between atoms: C_26  and  C_27
REMARK    8  A    between atoms: N_30  and  C_31
REMARK                            x       y       z     vdW  Elec       q    Type
REMARK                         _______ _______ _______ _____ _____    ______ ____
ROOT
ATOM      1  N   UNL     1       5.299  16.917  19.498  0.00  0.00    +0.000 N 
ATOM      2  C   UNL     1       3.911  16.713  19.809  0.00  0.00    +0.000 A 
ATOM      3  O   UNL     1       3.202  17.493  20.450  0.00  0.00    +0.000 OA
ATOM      4  C   UNL     1       3.437  15.366  19.319  0.00  0.00    +0.000 A 
ATOM      5  C   UNL     1       2.265  14.654  19.367  0.00  0.00    +0.000 C 
ATOM      6  S   UNL     1       2.378  12.971  18.618  0.00  0.00    +0.000 S 
ATOM      7  C   UNL     1       0.697  12.705  18.944  0.00  0.00    +0.000 A 
ATOM      8  C   UNL     1       0.083  11.526  18.564  0.00  0.00    +0.000 A 
ATOM      9  C   UNL     1      -1.248  11.339  18.819  0.00  0.00    +0.000 A 
ATOM     10  C   UNL     1      -1.950  12.367  19.458  0.00  0.00    +0.000 A 
ATOM     11  C   UNL     1      -1.297  13.592  19.839  0.00  0.00    +0.000 A 
ATOM     12  C   UNL     1       0.061  13.783  19.577  0.00  0.00    +0.000 A 
ATOM     13  N   UNL     1       0.930  14.889  19.835  0.00  0.00    +0.000 N 
ATOM     14  C   UNL     1       0.440  16.087  20.488  0.00  0.00    +0.000 C 
ATOM     15  S   UNL     1       4.838  14.611  18.588  0.00  0.00    +0.000 S 
ATOM     16  C   UNL     1       5.970  15.883  18.814  0.00  0.00    +0.000 A 
ATOM     17  C   UNL     1       7.254  15.659  18.399  0.00  0.00    +0.000 C 
ATOM     18  C   UNL     1       7.663  14.297  17.804  0.00  0.00    +0.000 C 
ATOM     19  O   UNL     1       6.966  13.426  17.298  0.00  0.00    +0.000 OA
ATOM     20  N   UNL     1       9.023  14.242  17.850  0.00  0.00    +0.000 N 
ATOM     21  C   UNL     1       9.543  15.494  18.052  0.00  0.00    +0.000 C 
ATOM     22  S   UNL     1      11.158  15.906  17.896  0.00  0.00    +0.000 S 
ATOM     23  N   UNL     1       8.469  16.365  18.400  0.00  0.00    +0.000 N 
ATOM     24  C   UNL     1       8.688  17.775  18.593  0.00  0.00    +0.000 C 
ENDROOT
BRANCH   9  25
ATOM     25  O   UNL     1      -1.691  10.127  18.385  0.00  0.00    +0.000 OA
ATOM     26  C   UNL     1      -2.104   9.968  17.052  0.00  0.00    +0.000 C 
ENDBRANCH   9  25
BRANCH  20  27
ATOM     27  C   UNL     1       9.735  12.987  17.622  0.00  0.00    +0.000 C 
ATOM     28  C   UNL     1       9.875  12.109  18.853  0.00  0.00    +0.000 C 
ENDBRANCH  20  27
BRANCH   1  29
ATOM     29  C   UNL     1       5.983  18.030  20.111  0.00  0.00    +0.000 C 
BRANCH  29  31
ATOM     30  C   UNL     1       7.445  18.450  22.166  0.00  0.00    +0.000 C 
ATOM     31  C   UNL     1       6.496  17.764  21.501  0.00  0.00    +0.000 C 
ENDBRANCH  29  31
ENDBRANCH   1  29
TORSDOF 4
ENDMDL
