MODEL 1
REMARK VINA RESULT:      -5.7      0.000      0.000
REMARK  Name = 
REMARK  16 active torsions:
REMARK  status: ('A' for Active; 'I' for Inactive)
REMARK    1  A    between atoms: C_1  and  C_2
REMARK    2  A    between atoms: C_2  and  C_3
REMARK    3  A    between atoms: C_3  and  C_4
REMARK    4  A    between atoms: C_4  and  C_5
REMARK    5  A    between atoms: C_5  and  C_6
REMARK    6  A    between atoms: C_7  and  C_8
REMARK    7  A    between atoms: C_8  and  C_9
REMARK    8  A    between atoms: C_10  and  C_11
REMARK    9  A    between atoms: C_11  and  C_12
REMARK   10  A    between atoms: C_13  and  C_14
REMARK   11  A    between atoms: C_14  and  C_15
REMARK   12  A    between atoms: C_16  and  C_17
REMARK   13  A    between atoms: C_17  and  C_18
REMARK   14  A    between atoms: C_18  and  C_19
REMARK   15  A    between atoms: C_19  and  C_20
REMARK   16  A    between atoms: C_20  and  O_22
REMARK                            x       y       z     vdW  Elec       q    Type
REMARK                         _______ _______ _______ _____ _____    ______ ____
ROOT
ATOM      1  C   UNL     1       0.855   9.420  19.776  0.00  0.00    +0.000 C 
ATOM      2  C   UNL     1       0.534   9.389  20.960  0.00  0.00    +0.000 C 
ENDROOT
BRANCH   1   3
ATOM      3  C   UNL     1       1.260   9.431  18.270  0.00  0.00    +0.000 C 
BRANCH   3   5
ATOM      4  C   UNL     1       3.236   7.479  17.764  0.00  0.00    +0.000 C 
ATOM      5  C   UNL     1       2.323   8.380  17.997  0.00  0.00    +0.000 C 
BRANCH   4   6
ATOM      6  C   UNL     1       4.300   6.429  17.492  0.00  0.00    +0.000 C 
BRANCH   6   8
ATOM      7  C   UNL     1       3.120   3.864  17.517  0.00  0.00    +0.000 C 
ATOM      8  C   UNL     1       3.665   5.048  17.506  0.00  0.00    +0.000 C 
BRANCH   7   9
ATOM      9  C   UNL     1       2.485   2.483  17.531  0.00  0.00    +0.000 C 
BRANCH   9  10
ATOM     10  C   UNL     1       2.065   2.130  18.945  0.00  0.00    +0.000 C 
BRANCH  10  11
ATOM     11  C   UNL     1       0.845   2.944  19.349  0.00  0.00    +0.000 C 
BRANCH  11  13
ATOM     12  C   UNL     1       2.019   2.986  21.548  0.00  0.00    +0.000 C 
ATOM     13  C   UNL     1       1.139   3.769  20.595  0.00  0.00    +0.000 C 
ENDBRANCH  11  13
ENDBRANCH  10  11
ENDBRANCH   9  10
ENDBRANCH   7   9
ENDBRANCH   6   8
ENDBRANCH   4   6
ENDBRANCH   3   5
ENDBRANCH   1   3
BRANCH   2  14
ATOM     14  C   UNL     1       0.113   9.324  22.459  0.00  0.00    +0.000 C 
BRANCH  14  15
ATOM     15  C   UNL     1      -0.855  10.449  22.787  0.00  0.00    +0.000 C 
ATOM     16  C   UNL     1      -1.685  11.413  23.069  0.00  0.00    +0.000 C 
BRANCH  16  17
ATOM     17  C   UNL     1      -2.626  12.501  23.383  0.00  0.00    +0.000 C 
BRANCH  17  18
ATOM     18  C   UNL     1      -2.894  13.386  22.162  0.00  0.00    +0.000 C 
BRANCH  18  19
ATOM     19  C   UNL     1      -1.623  13.781  21.414  0.00  0.00    +0.000 C 
BRANCH  19  20
ATOM     20  C   UNL     1      -1.686  13.335  19.967  0.00  0.00    +0.000 C 
ATOM     21  O   UNL     1      -0.744  13.383  19.199  0.00  0.00    +0.000 OA
BRANCH  20  22
ATOM     22  O   UNL     1      -2.886  12.836  19.590  0.00  0.00    +0.000 OA
ATOM     23  H   UNL     1      -2.877  12.241  18.816  0.00  0.00    +0.000 HD
ENDBRANCH  20  22
ENDBRANCH  19  20
ENDBRANCH  18  19
ENDBRANCH  17  18
ENDBRANCH  16  17
ENDBRANCH  14  15
ENDBRANCH   2  14
TORSDOF 15
ENDMDL
MODEL 2
REMARK VINA RESULT:      -5.6      5.373     10.434
REMARK  Name = 
REMARK  16 active torsions:
REMARK  status: ('A' for Active; 'I' for Inactive)
REMARK    1  A    between atoms: C_1  and  C_2
REMARK    2  A    between atoms: C_2  and  C_3
REMARK    3  A    between atoms: C_3  and  C_4
REMARK    4  A    between atoms: C_4  and  C_5
REMARK    5  A    between atoms: C_5  and  C_6
REMARK    6  A    between atoms: C_7  and  C_8
REMARK    7  A    between atoms: C_8  and  C_9
REMARK    8  A    between atoms: C_10  and  C_11
REMARK    9  A    between atoms: C_11  and  C_12
REMARK   10  A    between atoms: C_13  and  C_14
REMARK   11  A    between atoms: C_14  and  C_15
REMARK   12  A    between atoms: C_16  and  C_17
REMARK   13  A    between atoms: C_17  and  C_18
REMARK   14  A    between atoms: C_18  and  C_19
REMARK   15  A    between atoms: C_19  and  C_20
REMARK   16  A    between atoms: C_20  and  O_22
REMARK                            x       y       z     vdW  Elec       q    Type
REMARK                         _______ _______ _______ _____ _____    ______ ____
ROOT
ATOM      1  C   UNL     1       2.332   8.234  18.038  0.00  0.00    +0.000 C 
ATOM      2  C   UNL     1       2.446   7.026  18.222  0.00  0.00    +0.000 C 
ENDROOT
BRANCH   1   3
ATOM      3  C   UNL     1       2.205   9.767  17.782  0.00  0.00    +0.000 C 
BRANCH   3   5
ATOM      4  C   UNL     1       0.287  10.902  19.516  0.00  0.00    +0.000 C 
ATOM      5  C   UNL     1       1.173  10.378  18.715  0.00  0.00    +0.000 C 
BRANCH   4   6
ATOM      6  C   UNL     1      -0.746  11.512  20.449  0.00  0.00    +0.000 C 
BRANCH   6   8
ATOM      7  C   UNL     1      -3.197  11.804  19.079  0.00  0.00    +0.000 C 
ATOM      8  C   UNL     1      -2.065  11.670  19.711  0.00  0.00    +0.000 C 
BRANCH   7   9
ATOM      9  C   UNL     1      -4.516  11.962  18.342  0.00  0.00    +0.000 C 
BRANCH   9  10
ATOM     10  C   UNL     1      -4.449  11.227  17.016  0.00  0.00    +0.000 C 
BRANCH  10  11
ATOM     11  C   UNL     1      -3.601   9.972  17.154  0.00  0.00    +0.000 C 
BRANCH  11  13
ATOM     12  C   UNL     1      -3.101  10.252  14.727  0.00  0.00    +0.000 C 
ATOM     13  C   UNL     1      -2.513   9.939  16.089  0.00  0.00    +0.000 C 
ENDBRANCH  11  13
ENDBRANCH  10  11
ENDBRANCH   9  10
ENDBRANCH   7   9
ENDBRANCH   6   8
ENDBRANCH   4   6
ENDBRANCH   3   5
ENDBRANCH   1   3
BRANCH   2  14
ATOM     14  C   UNL     1       2.602   5.490  18.427  0.00  0.00    +0.000 C 
BRANCH  14  15
ATOM     15  C   UNL     1       3.671   4.936  17.499  0.00  0.00    +0.000 C 
ATOM     16  C   UNL     1       4.587   4.461  16.703  0.00  0.00    +0.000 C 
BRANCH  16  17
ATOM     17  C   UNL     1       5.624   3.930  15.802  0.00  0.00    +0.000 C 
BRANCH  17  18
ATOM     18  C   UNL     1       5.382   4.354  14.351  0.00  0.00    +0.000 C 
BRANCH  18  19
ATOM     19  C   UNL     1       6.436   3.819  13.384  0.00  0.00    +0.000 C 
BRANCH  19  20
ATOM     20  C   UNL     1       5.786   3.099  12.220  0.00  0.00    +0.000 C 
ATOM     21  O   UNL     1       4.694   3.385  11.768  0.00  0.00    +0.000 OA
BRANCH  20  22
ATOM     22  O   UNL     1       6.541   2.112  11.683  0.00  0.00    +0.000 OA
ATOM     23  H   UNL     1       7.124   1.635  12.303  0.00  0.00    +0.000 HD
ENDBRANCH  20  22
ENDBRANCH  19  20
ENDBRANCH  18  19
ENDBRANCH  17  18
ENDBRANCH  16  17
ENDBRANCH  14  15
ENDBRANCH   2  14
TORSDOF 15
ENDMDL
MODEL 3
REMARK VINA RESULT:      -5.6      3.970      5.867
REMARK  Name = 
REMARK  16 active torsions:
REMARK  status: ('A' for Active; 'I' for Inactive)
REMARK    1  A    between atoms: C_1  and  C_2
REMARK    2  A    between atoms: C_2  and  C_3
REMARK    3  A    between atoms: C_3  and  C_4
REMARK    4  A    between atoms: C_4  and  C_5
REMARK    5  A    between atoms: C_5  and  C_6
REMARK    6  A    between atoms: C_7  and  C_8
REMARK    7  A    between atoms: C_8  and  C_9
REMARK    8  A    between atoms: C_10  and  C_11
REMARK    9  A    between atoms: C_11  and  C_12
REMARK   10  A    between atoms: C_13  and  C_14
REMARK   11  A    between atoms: C_14  and  C_15
REMARK   12  A    between atoms: C_16  and  C_17
REMARK   13  A    between atoms: C_17  and  C_18
REMARK   14  A    between atoms: C_18  and  C_19
REMARK   15  A    between atoms: C_19  and  C_20
REMARK   16  A    between atoms: C_20  and  O_22
REMARK                            x       y       z     vdW  Elec       q    Type
REMARK                         _______ _______ _______ _____ _____    ______ ____
ROOT
ATOM      1  C   UNL     1       2.434   7.105  18.551  0.00  0.00    +0.000 C 
ATOM      2  C   UNL     1       2.035   8.260  18.450  0.00  0.00    +0.000 C 
ENDROOT
BRANCH   1   3
ATOM      3  C   UNL     1       2.965   5.645  18.695  0.00  0.00    +0.000 C 
BRANCH   3   5
ATOM      4  C   UNL     1       5.449   5.363  17.383  0.00  0.00    +0.000 C 
ATOM      5  C   UNL     1       4.302   5.493  17.989  0.00  0.00    +0.000 C 
BRANCH   4   6
ATOM      6  C   UNL     1       6.786   5.212  16.677  0.00  0.00    +0.000 C 
BRANCH   6   8
ATOM      7  C   UNL     1       6.373   4.144  14.097  0.00  0.00    +0.000 C 
ATOM      8  C   UNL     1       6.564   4.637  15.288  0.00  0.00    +0.000 C 
BRANCH   7   9
ATOM      9  C   UNL     1       6.151   3.569  12.707  0.00  0.00    +0.000 C 
BRANCH   9  10
ATOM     10  C   UNL     1       4.670   3.592  12.378  0.00  0.00    +0.000 C 
BRANCH  10  11
ATOM     11  C   UNL     1       4.420   2.913  11.040  0.00  0.00    +0.000 C 
BRANCH  11  13
ATOM     12  C   UNL     1       2.962   4.299   9.566  0.00  0.00    +0.000 C 
ATOM     13  C   UNL     1       2.993   3.163  10.570  0.00  0.00    +0.000 C 
ENDBRANCH  11  13
ENDBRANCH  10  11
ENDBRANCH   9  10
ENDBRANCH   7   9
ENDBRANCH   6   8
ENDBRANCH   4   6
ENDBRANCH   3   5
ENDBRANCH   1   3
BRANCH   2  14
ATOM     14  C   UNL     1       1.544   9.735  18.344  0.00  0.00    +0.000 C 
BRANCH  14  15
ATOM     15  C   UNL     1       0.157   9.790  17.726  0.00  0.00    +0.000 C 
ATOM     16  C   UNL     1      -1.033   9.836  17.196  0.00  0.00    +0.000 C 
BRANCH  16  17
ATOM     17  C   UNL     1      -2.378   9.884  16.599  0.00  0.00    +0.000 C 
BRANCH  17  18
ATOM     18  C   UNL     1      -3.461  10.087  17.663  0.00  0.00    +0.000 C 
BRANCH  18  19
ATOM     19  C   UNL     1      -3.378  11.445  18.354  0.00  0.00    +0.000 C 
BRANCH  19  20
ATOM     20  C   UNL     1      -4.759  11.952  18.717  0.00  0.00    +0.000 C 
ATOM     21  O   UNL     1      -5.791  11.370  18.442  0.00  0.00    +0.000 OA
BRANCH  20  22
ATOM     22  O   UNL     1      -4.762  13.112  19.416  0.00  0.00    +0.000 OA
ATOM     23  H   UNL     1      -4.213  13.125  20.223  0.00  0.00    +0.000 HD
ENDBRANCH  20  22
ENDBRANCH  19  20
ENDBRANCH  18  19
ENDBRANCH  17  18
ENDBRANCH  16  17
ENDBRANCH  14  15
ENDBRANCH   2  14
TORSDOF 15
ENDMDL
MODEL 4
REMARK VINA RESULT:      -5.6      4.173     10.526
REMARK  Name = 
REMARK  16 active torsions:
REMARK  status: ('A' for Active; 'I' for Inactive)
REMARK    1  A    between atoms: C_1  and  C_2
REMARK    2  A    between atoms: C_2  and  C_3
REMARK    3  A    between atoms: C_3  and  C_4
REMARK    4  A    between atoms: C_4  and  C_5
REMARK    5  A    between atoms: C_5  and  C_6
REMARK    6  A    between atoms: C_7  and  C_8
REMARK    7  A    between atoms: C_8  and  C_9
REMARK    8  A    between atoms: C_10  and  C_11
REMARK    9  A    between atoms: C_11  and  C_12
REMARK   10  A    between atoms: C_13  and  C_14
REMARK   11  A    between atoms: C_14  and  C_15
REMARK   12  A    between atoms: C_16  and  C_17
REMARK   13  A    between atoms: C_17  and  C_18
REMARK   14  A    between atoms: C_18  and  C_19
REMARK   15  A    between atoms: C_19  and  C_20
REMARK   16  A    between atoms: C_20  and  O_22
REMARK                            x       y       z     vdW  Elec       q    Type
REMARK                         _______ _______ _______ _____ _____    ______ ____
ROOT
ATOM      1  C   UNL     1       1.531   8.977  18.408  0.00  0.00    +0.000 C 
ATOM      2  C   UNL     1       2.280   8.034  18.170  0.00  0.00    +0.000 C 
ENDROOT
BRANCH   1   3
ATOM      3  C   UNL     1       0.599  10.194  18.697  0.00  0.00    +0.000 C 
BRANCH   3   5
ATOM      4  C   UNL     1      -0.134  10.251  21.423  0.00  0.00    +0.000 C 
ATOM      5  C   UNL     1       0.205  10.224  20.164  0.00  0.00    +0.000 C 
BRANCH   4   6
ATOM      6  C   UNL     1      -0.529  10.283  22.890  0.00  0.00    +0.000 C 
BRANCH   6   8
ATOM      7  C   UNL     1      -2.515  12.249  23.289  0.00  0.00    +0.000 C 
ATOM      8  C   UNL     1      -1.598  11.341  23.105  0.00  0.00    +0.000 C 
BRANCH   7   9
ATOM      9  C   UNL     1      -3.585  13.307  23.504  0.00  0.00    +0.000 C 
BRANCH   9  10
ATOM     10  C   UNL     1      -4.775  12.691  24.214  0.00  0.00    +0.000 C 
BRANCH  10  11
ATOM     11  C   UNL     1      -6.038  12.887  23.389  0.00  0.00    +0.000 C 
BRANCH  11  13
ATOM     12  C   UNL     1      -6.822  15.231  23.721  0.00  0.00    +0.000 C 
ATOM     13  C   UNL     1      -7.026  13.783  24.123  0.00  0.00    +0.000 C 
ENDBRANCH  11  13
ENDBRANCH  10  11
ENDBRANCH   9  10
ENDBRANCH   7   9
ENDBRANCH   6   8
ENDBRANCH   4   6
ENDBRANCH   3   5
ENDBRANCH   1   3
BRANCH   2  14
ATOM     14  C   UNL     1       3.244   6.854  17.848  0.00  0.00    +0.000 C 
BRANCH  14  15
ATOM     15  C   UNL     1       2.545   5.522  18.073  0.00  0.00    +0.000 C 
ATOM     16  C   UNL     1       1.947   4.381  18.266  0.00  0.00    +0.000 C 
BRANCH  16  17
ATOM     17  C   UNL     1       1.272   3.089  18.479  0.00  0.00    +0.000 C 
BRANCH  17  18
ATOM     18  C   UNL     1       2.097   2.164  19.379  0.00  0.00    +0.000 C 
BRANCH  18  19
ATOM     19  C   UNL     1       3.497   1.887  18.836  0.00  0.00    +0.000 C 
BRANCH  19  20
ATOM     20  C   UNL     1       4.557   2.363  19.808  0.00  0.00    +0.000 C 
ATOM     21  O   UNL     1       4.683   1.935  20.940  0.00  0.00    +0.000 OA
BRANCH  20  22
ATOM     22  O   UNL     1       5.397   3.296  19.304  0.00  0.00    +0.000 OA
ATOM     23  H   UNL     1       5.170   3.643  18.420  0.00  0.00    +0.000 HD
ENDBRANCH  20  22
ENDBRANCH  19  20
ENDBRANCH  18  19
ENDBRANCH  17  18
ENDBRANCH  16  17
ENDBRANCH  14  15
ENDBRANCH   2  14
TORSDOF 15
ENDMDL
MODEL 5
REMARK VINA RESULT:      -5.6      4.396      9.478
REMARK  Name = 
REMARK  16 active torsions:
REMARK  status: ('A' for Active; 'I' for Inactive)
REMARK    1  A    between atoms: C_1  and  C_2
REMARK    2  A    between atoms: C_2  and  C_3
REMARK    3  A    between atoms: C_3  and  C_4
REMARK    4  A    between atoms: C_4  and  C_5
REMARK    5  A    between atoms: C_5  and  C_6
REMARK    6  A    between atoms: C_7  and  C_8
REMARK    7  A    between atoms: C_8  and  C_9
REMARK    8  A    between atoms: C_10  and  C_11
REMARK    9  A    between atoms: C_11  and  C_12
REMARK   10  A    between atoms: C_13  and  C_14
REMARK   11  A    between atoms: C_14  and  C_15
REMARK   12  A    between atoms: C_16  and  C_17
REMARK   13  A    between atoms: C_17  and  C_18
REMARK   14  A    between atoms: C_18  and  C_19
REMARK   15  A    between atoms: C_19  and  C_20
REMARK   16  A    between atoms: C_20  and  O_22
REMARK                            x       y       z     vdW  Elec       q    Type
REMARK                         _______ _______ _______ _____ _____    ______ ____
ROOT
ATOM      1  C   UNL     1       0.534   8.935  22.215  0.00  0.00    +0.000 C 
ATOM      2  C   UNL     1       1.168   8.303  21.377  0.00  0.00    +0.000 C 
ENDROOT
BRANCH   1   3
ATOM      3  C   UNL     1      -0.286   9.714  23.290  0.00  0.00    +0.000 C 
BRANCH   3   5
ATOM      4  C   UNL     1      -1.571  11.943  22.128  0.00  0.00    +0.000 C 
ATOM      5  C   UNL     1      -0.978  10.913  22.665  0.00  0.00    +0.000 C 
BRANCH   4   6
ATOM      6  C   UNL     1      -2.263  13.143  21.502  0.00  0.00    +0.000 C 
BRANCH   6   8
ATOM      7  C   UNL     1      -3.855  12.287  19.334  0.00  0.00    +0.000 C 
ATOM      8  C   UNL     1      -3.120  12.682  20.335  0.00  0.00    +0.000 C 
BRANCH   7   9
ATOM      9  C   UNL     1      -4.712  11.826  18.166  0.00  0.00    +0.000 C 
BRANCH   9  10
ATOM     10  C   UNL     1      -4.389  10.380  17.837  0.00  0.00    +0.000 C 
BRANCH  10  11
ATOM     11  C   UNL     1      -3.110  10.302  17.018  0.00  0.00    +0.000 C 
BRANCH  11  13
ATOM     12  C   UNL     1      -3.022  10.063  14.538  0.00  0.00    +0.000 C 
ATOM     13  C   UNL     1      -3.281  11.019  15.686  0.00  0.00    +0.000 C 
ENDBRANCH  11  13
ENDBRANCH  10  11
ENDBRANCH   9  10
ENDBRANCH   7   9
ENDBRANCH   6   8
ENDBRANCH   4   6
ENDBRANCH   3   5
ENDBRANCH   1   3
BRANCH   2  14
ATOM     14  C   UNL     1       1.969   7.476  20.328  0.00  0.00    +0.000 C 
BRANCH  14  15
ATOM     15  C   UNL     1       1.654   5.995  20.467  0.00  0.00    +0.000 C 
ATOM     16  C   UNL     1       1.384   4.725  20.587  0.00  0.00    +0.000 C 
BRANCH  16  17
ATOM     17  C   UNL     1       1.074   3.292  20.718  0.00  0.00    +0.000 C 
BRANCH  17  18
ATOM     18  C   UNL     1       2.287   2.419  20.380  0.00  0.00    +0.000 C 
BRANCH  18  19
ATOM     19  C   UNL     1       2.692   2.496  18.909  0.00  0.00    +0.000 C 
BRANCH  19  20
ATOM     20  C   UNL     1       4.155   2.864  18.770  0.00  0.00    +0.000 C 
ATOM     21  O   UNL     1       4.915   2.996  19.710  0.00  0.00    +0.000 OA
BRANCH  20  22
ATOM     22  O   UNL     1       4.575   3.005  17.491  0.00  0.00    +0.000 OA
ATOM     23  H   UNL     1       3.956   3.457  16.886  0.00  0.00    +0.000 HD
ENDBRANCH  20  22
ENDBRANCH  19  20
ENDBRANCH  18  19
ENDBRANCH  17  18
ENDBRANCH  16  17
ENDBRANCH  14  15
ENDBRANCH   2  14
TORSDOF 15
ENDMDL
MODEL 6
REMARK VINA RESULT:      -5.6      4.160      9.445
REMARK  Name = 
REMARK  16 active torsions:
REMARK  status: ('A' for Active; 'I' for Inactive)
REMARK    1  A    between atoms: C_1  and  C_2
REMARK    2  A    between atoms: C_2  and  C_3
REMARK    3  A    between atoms: C_3  and  C_4
REMARK    4  A    between atoms: C_4  and  C_5
REMARK    5  A    between atoms: C_5  and  C_6
REMARK    6  A    between atoms: C_7  and  C_8
REMARK    7  A    between atoms: C_8  and  C_9
REMARK    8  A    between atoms: C_10  and  C_11
REMARK    9  A    between atoms: C_11  and  C_12
REMARK   10  A    between atoms: C_13  and  C_14
REMARK   11  A    between atoms: C_14  and  C_15
REMARK   12  A    between atoms: C_16  and  C_17
REMARK   13  A    between atoms: C_17  and  C_18
REMARK   14  A    between atoms: C_18  and  C_19
REMARK   15  A    between atoms: C_19  and  C_20
REMARK   16  A    between atoms: C_20  and  O_22
REMARK                            x       y       z     vdW  Elec       q    Type
REMARK                         _______ _______ _______ _____ _____    ______ ____
ROOT
ATOM      1  C   UNL     1       0.575   8.938  22.161  0.00  0.00    +0.000 C 
ATOM      2  C   UNL     1       1.173   8.300  21.301  0.00  0.00    +0.000 C 
ENDROOT
BRANCH   1   3
ATOM      3  C   UNL     1      -0.206   9.728  23.258  0.00  0.00    +0.000 C 
BRANCH   3   5
ATOM      4  C   UNL     1      -1.460  11.996  22.138  0.00  0.00    +0.000 C 
ATOM      5  C   UNL     1      -0.880  10.949  22.655  0.00  0.00    +0.000 C 
BRANCH   4   6
ATOM      6  C   UNL     1      -2.135  13.217  21.536  0.00  0.00    +0.000 C 
BRANCH   6   8
ATOM      7  C   UNL     1      -4.099  12.390  19.685  0.00  0.00    +0.000 C 
ATOM      8  C   UNL     1      -3.193  12.771  20.539  0.00  0.00    +0.000 C 
BRANCH   7   9
ATOM      9  C   UNL     1      -5.157  11.944  18.688  0.00  0.00    +0.000 C 
BRANCH   9  10
ATOM     10  C   UNL     1      -4.655  10.736  17.919  0.00  0.00    +0.000 C 
BRANCH  10  11
ATOM     11  C   UNL     1      -4.058  11.171  16.590  0.00  0.00    +0.000 C 
BRANCH  11  13
ATOM     12  C   UNL     1      -2.008   9.941  17.298  0.00  0.00    +0.000 C 
ATOM     13  C   UNL     1      -2.538  11.217  16.674  0.00  0.00    +0.000 C 
ENDBRANCH  11  13
ENDBRANCH  10  11
ENDBRANCH   9  10
ENDBRANCH   7   9
ENDBRANCH   6   8
ENDBRANCH   4   6
ENDBRANCH   3   5
ENDBRANCH   1   3
BRANCH   2  14
ATOM     14  C   UNL     1       1.918   7.466  20.217  0.00  0.00    +0.000 C 
BRANCH  14  15
ATOM     15  C   UNL     1       1.695   5.980  20.445  0.00  0.00    +0.000 C 
ATOM     16  C   UNL     1       1.503   4.705  20.641  0.00  0.00    +0.000 C 
BRANCH  16  17
ATOM     17  C   UNL     1       1.281   3.267  20.862  0.00  0.00    +0.000 C 
BRANCH  17  18
ATOM     18  C   UNL     1       2.528   2.445  20.524  0.00  0.00    +0.000 C 
BRANCH  18  19
ATOM     19  C   UNL     1       2.789   2.336  19.024  0.00  0.00    +0.000 C 
BRANCH  19  20
ATOM     20  C   UNL     1       4.067   3.056  18.644  0.00  0.00    +0.000 C 
ATOM     21  O   UNL     1       4.159   3.833  17.712  0.00  0.00    +0.000 OA
BRANCH  20  22
ATOM     22  O   UNL     1       5.118   2.792  19.455  0.00  0.00    +0.000 OA
ATOM     23  H   UNL     1       5.818   2.227  19.077  0.00  0.00    +0.000 HD
ENDBRANCH  20  22
ENDBRANCH  19  20
ENDBRANCH  18  19
ENDBRANCH  17  18
ENDBRANCH  16  17
ENDBRANCH  14  15
ENDBRANCH   2  14
TORSDOF 15
ENDMDL
MODEL 7
REMARK VINA RESULT:      -5.6      5.271      9.385
REMARK  Name = 
REMARK  16 active torsions:
REMARK  status: ('A' for Active; 'I' for Inactive)
REMARK    1  A    between atoms: C_1  and  C_2
REMARK    2  A    between atoms: C_2  and  C_3
REMARK    3  A    between atoms: C_3  and  C_4
REMARK    4  A    between atoms: C_4  and  C_5
REMARK    5  A    between atoms: C_5  and  C_6
REMARK    6  A    between atoms: C_7  and  C_8
REMARK    7  A    between atoms: C_8  and  C_9
REMARK    8  A    between atoms: C_10  and  C_11
REMARK    9  A    between atoms: C_11  and  C_12
REMARK   10  A    between atoms: C_13  and  C_14
REMARK   11  A    between atoms: C_14  and  C_15
REMARK   12  A    between atoms: C_16  and  C_17
REMARK   13  A    between atoms: C_17  and  C_18
REMARK   14  A    between atoms: C_18  and  C_19
REMARK   15  A    between atoms: C_19  and  C_20
REMARK   16  A    between atoms: C_20  and  O_22
REMARK                            x       y       z     vdW  Elec       q    Type
REMARK                         _______ _______ _______ _____ _____    ______ ____
ROOT
ATOM      1  C   UNL     1       4.312   5.989  18.070  0.00  0.00    +0.000 C 
ATOM      2  C   UNL     1       5.537   5.982  17.998  0.00  0.00    +0.000 C 
ENDROOT
BRANCH   1   3
ATOM      3  C   UNL     1       2.753   5.981  18.137  0.00  0.00    +0.000 C 
BRANCH   3   5
ATOM      4  C   UNL     1       1.844   7.697  20.186  0.00  0.00    +0.000 C 
ATOM      5  C   UNL     1       2.264   6.904  19.240  0.00  0.00    +0.000 C 
BRANCH   4   6
ATOM      6  C   UNL     1       1.354   8.621  21.289  0.00  0.00    +0.000 C 
BRANCH   6   8
ATOM      7  C   UNL     1      -0.511  10.453  20.223  0.00  0.00    +0.000 C 
ATOM      8  C   UNL     1       0.350   9.607  20.715  0.00  0.00    +0.000 C 
BRANCH   7   9
ATOM      9  C   UNL     1      -1.515  11.439  19.649  0.00  0.00    +0.000 C 
BRANCH   9  10
ATOM     10  C   UNL     1      -1.395  11.466  18.137  0.00  0.00    +0.000 C 
BRANCH  10  11
ATOM     11  C   UNL     1      -1.630  10.075  17.568  0.00  0.00    +0.000 C 
BRANCH  11  13
ATOM     12  C   UNL     1      -3.706  11.055  16.596  0.00  0.00    +0.000 C 
ATOM     13  C   UNL     1      -3.111   9.849  17.295  0.00  0.00    +0.000 C 
ENDBRANCH  11  13
ENDBRANCH  10  11
ENDBRANCH   9  10
ENDBRANCH   7   9
ENDBRANCH   6   8
ENDBRANCH   4   6
ENDBRANCH   3   5
ENDBRANCH   1   3
BRANCH   2  14
ATOM     14  C   UNL     1       7.090   5.950  17.890  0.00  0.00    +0.000 C 
BRANCH  14  15
ATOM     15  C   UNL     1       7.652   7.363  17.894  0.00  0.00    +0.000 C 
ATOM     16  C   UNL     1       8.133   8.574  17.898  0.00  0.00    +0.000 C 
BRANCH  16  17
ATOM     17  C   UNL     1       8.671   9.944  17.902  0.00  0.00    +0.000 C 
BRANCH  17  18
ATOM     18  C   UNL     1       9.266  10.313  19.265  0.00  0.00    +0.000 C 
BRANCH  18  19
ATOM     19  C   UNL     1       9.491  11.813  19.437  0.00  0.00    +0.000 C 
BRANCH  19  20
ATOM     20  C   UNL     1      10.497  12.086  20.536  0.00  0.00    +0.000 C 
ATOM     21  O   UNL     1      11.622  12.505  20.340  0.00  0.00    +0.000 OA
BRANCH  20  22
ATOM     22  O   UNL     1      10.032  11.858  21.787  0.00  0.00    +0.000 OA
ATOM     23  H   UNL     1      10.034  10.927  22.080  0.00  0.00    +0.000 HD
ENDBRANCH  20  22
ENDBRANCH  19  20
ENDBRANCH  18  19
ENDBRANCH  17  18
ENDBRANCH  16  17
ENDBRANCH  14  15
ENDBRANCH   2  14
TORSDOF 15
ENDMDL
MODEL 8
REMARK VINA RESULT:      -5.5      5.736      9.756
REMARK  Name = 
REMARK  16 active torsions:
REMARK  status: ('A' for Active; 'I' for Inactive)
REMARK    1  A    between atoms: C_1  and  C_2
REMARK    2  A    between atoms: C_2  and  C_3
REMARK    3  A    between atoms: C_3  and  C_4
REMARK    4  A    between atoms: C_4  and  C_5
REMARK    5  A    between atoms: C_5  and  C_6
REMARK    6  A    between atoms: C_7  and  C_8
REMARK    7  A    between atoms: C_8  and  C_9
REMARK    8  A    between atoms: C_10  and  C_11
REMARK    9  A    between atoms: C_11  and  C_12
REMARK   10  A    between atoms: C_13  and  C_14
REMARK   11  A    between atoms: C_14  and  C_15
REMARK   12  A    between atoms: C_16  and  C_17
REMARK   13  A    between atoms: C_17  and  C_18
REMARK   14  A    between atoms: C_18  and  C_19
REMARK   15  A    between atoms: C_19  and  C_20
REMARK   16  A    between atoms: C_20  and  O_22
REMARK                            x       y       z     vdW  Elec       q    Type
REMARK                         _______ _______ _______ _____ _____    ______ ____
ROOT
ATOM      1  C   UNL     1       6.806   5.234  17.998  0.00  0.00    +0.000 C 
ATOM      2  C   UNL     1       5.986   4.742  17.230  0.00  0.00    +0.000 C 
ENDROOT
BRANCH   1   3
ATOM      3  C   UNL     1       7.863   5.835  18.975  0.00  0.00    +0.000 C 
BRANCH   3   5
ATOM      4  C   UNL     1       8.420   8.519  18.300  0.00  0.00    +0.000 C 
ATOM      5  C   UNL     1       8.163   7.279  18.612  0.00  0.00    +0.000 C 
BRANCH   4   6
ATOM      6  C   UNL     1       8.719   9.964  17.937  0.00  0.00    +0.000 C 
BRANCH   6   8
ATOM      7  C   UNL     1       9.453  11.387  20.261  0.00  0.00    +0.000 C 
ATOM      8  C   UNL     1       9.114  10.730  19.188  0.00  0.00    +0.000 C 
BRANCH   7   9
ATOM      9  C   UNL     1       9.848  12.154  21.513  0.00  0.00    +0.000 C 
BRANCH   9  10
ATOM     10  C   UNL     1       8.601  12.627  22.236  0.00  0.00    +0.000 C 
BRANCH  10  11
ATOM     11  C   UNL     1       8.099  11.544  23.178  0.00  0.00    +0.000 C 
BRANCH  11  13
ATOM     12  C   UNL     1       8.303  13.472  24.746  0.00  0.00    +0.000 C 
ATOM     13  C   UNL     1       7.602  12.154  24.481  0.00  0.00    +0.000 C 
ENDBRANCH  11  13
ENDBRANCH  10  11
ENDBRANCH   9  10
ENDBRANCH   7   9
ENDBRANCH   6   8
ENDBRANCH   4   6
ENDBRANCH   3   5
ENDBRANCH   1   3
BRANCH   2  14
ATOM     14  C   UNL     1       4.962   4.095  16.250  0.00  0.00    +0.000 C 
BRANCH  14  15
ATOM     15  C   UNL     1       3.758   3.567  17.012  0.00  0.00    +0.000 C 
ATOM     16  C   UNL     1       2.725   3.114  17.666  0.00  0.00    +0.000 C 
BRANCH  16  17
ATOM     17  C   UNL     1       1.559   2.607  18.408  0.00  0.00    +0.000 C 
BRANCH  17  18
ATOM     18  C   UNL     1       1.058   3.625  19.437  0.00  0.00    +0.000 C 
BRANCH  18  19
ATOM     19  C   UNL     1       2.151   4.106  20.389  0.00  0.00    +0.000 C 
BRANCH  19  20
ATOM     20  C   UNL     1       2.324   5.608  20.297  0.00  0.00    +0.000 C 
ATOM     21  O   UNL     1       1.591   6.412  20.840  0.00  0.00    +0.000 OA
BRANCH  20  22
ATOM     22  O   UNL     1       3.401   6.002  19.577  0.00  0.00    +0.000 OA
ATOM     23  H   UNL     1       3.213   6.557  18.796  0.00  0.00    +0.000 HD
ENDBRANCH  20  22
ENDBRANCH  19  20
ENDBRANCH  18  19
ENDBRANCH  17  18
ENDBRANCH  16  17
ENDBRANCH  14  15
ENDBRANCH   2  14
TORSDOF 15
ENDMDL
MODEL 9
REMARK VINA RESULT:      -5.5      6.369      9.860
REMARK  Name = 
REMARK  16 active torsions:
REMARK  status: ('A' for Active; 'I' for Inactive)
REMARK    1  A    between atoms: C_1  and  C_2
REMARK    2  A    between atoms: C_2  and  C_3
REMARK    3  A    between atoms: C_3  and  C_4
REMARK    4  A    between atoms: C_4  and  C_5
REMARK    5  A    between atoms: C_5  and  C_6
REMARK    6  A    between atoms: C_7  and  C_8
REMARK    7  A    between atoms: C_8  and  C_9
REMARK    8  A    between atoms: C_10  and  C_11
REMARK    9  A    between atoms: C_11  and  C_12
REMARK   10  A    between atoms: C_13  and  C_14
REMARK   11  A    between atoms: C_14  and  C_15
REMARK   12  A    between atoms: C_16  and  C_17
REMARK   13  A    between atoms: C_17  and  C_18
REMARK   14  A    between atoms: C_18  and  C_19
REMARK   15  A    between atoms: C_19  and  C_20
REMARK   16  A    between atoms: C_20  and  O_22
REMARK                            x       y       z     vdW  Elec       q    Type
REMARK                         _______ _______ _______ _____ _____    ______ ____
ROOT
ATOM      1  C   UNL     1       6.242   6.747  17.804  0.00  0.00    +0.000 C 
ATOM      2  C   UNL     1       5.036   6.689  17.583  0.00  0.00    +0.000 C 
ENDROOT
BRANCH   1   3
ATOM      3  C   UNL     1       7.771   6.849  18.094  0.00  0.00    +0.000 C 
BRANCH   3   5
ATOM      4  C   UNL     1       8.610   9.544  18.033  0.00  0.00    +0.000 C 
ATOM      5  C   UNL     1       8.223   8.299  18.061  0.00  0.00    +0.000 C 
BRANCH   4   6
ATOM      6  C   UNL     1       9.062  10.994  18.001  0.00  0.00    +0.000 C 
BRANCH   6   8
ATOM      7  C   UNL     1       9.312  11.962  20.641  0.00  0.00    +0.000 C 
ATOM      8  C   UNL     1       9.197  11.515  19.422  0.00  0.00    +0.000 C 
BRANCH   7   9
ATOM      9  C   UNL     1       9.447  12.483  22.063  0.00  0.00    +0.000 C 
BRANCH   9  10
ATOM     10  C   UNL     1       8.131  13.091  22.509  0.00  0.00    +0.000 C 
BRANCH  10  11
ATOM     11  C   UNL     1       7.239  12.021  23.120  0.00  0.00    +0.000 C 
BRANCH  11  13
ATOM     12  C   UNL     1       7.022  12.072  25.604  0.00  0.00    +0.000 C 
ATOM     13  C   UNL     1       7.821  11.525  24.437  0.00  0.00    +0.000 C 
ENDBRANCH  11  13
ENDBRANCH  10  11
ENDBRANCH   9  10
ENDBRANCH   7   9
ENDBRANCH   6   8
ENDBRANCH   4   6
ENDBRANCH   3   5
ENDBRANCH   1   3
BRANCH   2  14
ATOM     14  C   UNL     1       3.502   6.639  17.320  0.00  0.00    +0.000 C 
BRANCH  14  15
ATOM     15  C   UNL     1       2.785   5.973  18.484  0.00  0.00    +0.000 C 
ATOM     16  C   UNL     1       2.171   5.403  19.482  0.00  0.00    +0.000 C 
BRANCH  16  17
ATOM     17  C   UNL     1       1.482   4.759  20.612  0.00  0.00    +0.000 C 
BRANCH  17  18
ATOM     18  C   UNL     1       1.564   3.232  20.528  0.00  0.00    +0.000 C 
BRANCH  18  19
ATOM     19  C   UNL     1       2.933   2.681  20.923  0.00  0.00    +0.000 C 
BRANCH  19  20
ATOM     20  C   UNL     1       3.708   2.234  19.700  0.00  0.00    +0.000 C 
ATOM     21  O   UNL     1       3.193   1.771  18.700  0.00  0.00    +0.000 OA
BRANCH  20  22
ATOM     22  O   UNL     1       5.046   2.422  19.789  0.00  0.00    +0.000 OA
ATOM     23  H   UNL     1       5.471   2.840  19.016  0.00  0.00    +0.000 HD
ENDBRANCH  20  22
ENDBRANCH  19  20
ENDBRANCH  18  19
ENDBRANCH  17  18
ENDBRANCH  16  17
ENDBRANCH  14  15
ENDBRANCH   2  14
TORSDOF 15
ENDMDL
