MODEL 1
REMARK VINA RESULT:      -6.7      0.000      0.000
REMARK  Name = 
REMARK  6 active torsions:
REMARK  status: ('A' for Active; 'I' for Inactive)
REMARK    1  A    between atoms: C_1  and  O_2
REMARK    2  A    between atoms: O_2  and  C_3
REMARK    3  A    between atoms: C_5  and  C_6
REMARK    4  A    between atoms: C_8  and  N_9
REMARK    5  A    between atoms: C_10  and  C_11
REMARK    6  A    between atoms: N_13  and  C_14
REMARK                            x       y       z     vdW  Elec       q    Type
REMARK                         _______ _______ _______ _____ _____    ______ ____
ROOT
ATOM      1  C   UNL     1       2.459   5.117  20.065  0.00  0.00    +0.000 A 
ATOM      2  C   UNL     1       2.264   6.399  19.580  0.00  0.00    +0.000 A 
ATOM      3  C   UNL     1       2.979   6.838  18.449  0.00  0.00    +0.000 A 
ATOM      4  C   UNL     1       2.737   8.234  17.943  0.00  0.00    +0.000 C 
ATOM      5  C   UNL     1       3.897   5.916  17.861  0.00  0.00    +0.000 A 
ATOM      6  C   UNL     1       4.810   5.958  16.735  0.00  0.00    +0.000 A 
ATOM      7  C   UNL     1       5.521   4.778  16.555  0.00  0.00    +0.000 A 
ATOM      8  S   UNL     1       5.071   3.613  17.730  0.00  0.00    +0.000 S 
ATOM      9  C   UNL     1       3.974   4.665  18.464  0.00  0.00    +0.000 A 
ATOM     10  N   UNL     1       3.297   4.223  19.528  0.00  0.00    +0.000 NA
ENDROOT
BRANCH   7  11
ATOM     11  C   UNL     1       6.535   4.434  15.558  0.00  0.00    +0.000 C 
ATOM     12  O   UNL     1       7.745   4.516  15.765  0.00  0.00    +0.000 OA
ATOM     13  N   UNL     1       6.023   4.005  14.340  0.00  0.00    +0.000 N 
ATOM     14  H   UNL     1       5.014   4.008  14.242  0.00  0.00    +0.000 HD
BRANCH  13  15
ATOM     15  C   UNL     1       6.802   3.586  13.226  0.00  0.00    +0.000 C 
ATOM     16  C   UNL     1       6.151   3.156  11.942  0.00  0.00    +0.000 C 
ATOM     17  C   UNL     1       6.882   4.464  12.001  0.00  0.00    +0.000 C 
ENDBRANCH  13  15
ENDBRANCH   7  11
BRANCH   6  18
ATOM     18  N   UNL     1       4.967   7.035  15.933  0.00  0.00    +0.000 N 
ATOM     19  H   UNL     1       4.644   7.086  14.975  0.00  0.00    +0.000 HD
ATOM     20  H   UNL     1       5.511   7.847  16.233  0.00  0.00    +0.000 HD
ENDBRANCH   6  18
BRANCH   1  22
ATOM     21  C   UNL     1       1.877   3.369  21.498  0.00  0.00    +0.000 C 
ATOM     22  O   UNL     1       1.734   4.757  21.186  0.00  0.00    +0.000 OA
ENDBRANCH   1  22
TORSDOF 4
ENDMDL
MODEL 2
REMARK VINA RESULT:      -6.6      1.729      2.628
REMARK  Name = 
REMARK  6 active torsions:
REMARK  status: ('A' for Active; 'I' for Inactive)
REMARK    1  A    between atoms: C_1  and  O_2
REMARK    2  A    between atoms: O_2  and  C_3
REMARK    3  A    between atoms: C_5  and  C_6
REMARK    4  A    between atoms: C_8  and  N_9
REMARK    5  A    between atoms: C_10  and  C_11
REMARK    6  A    between atoms: N_13  and  C_14
REMARK                            x       y       z     vdW  Elec       q    Type
REMARK                         _______ _______ _______ _____ _____    ______ ____
ROOT
ATOM      1  C   UNL     1       2.277   7.457  19.337  0.00  0.00    +0.000 A 
ATOM      2  C   UNL     1       2.162   6.261  20.027  0.00  0.00    +0.000 A 
ATOM      3  C   UNL     1       2.921   5.144  19.627  0.00  0.00    +0.000 A 
ATOM      4  C   UNL     1       2.778   3.863  20.404  0.00  0.00    +0.000 C 
ATOM      5  C   UNL     1       3.778   5.310  18.497  0.00  0.00    +0.000 A 
ATOM      6  C   UNL     1       4.690   4.450  17.770  0.00  0.00    +0.000 A 
ATOM      7  C   UNL     1       5.313   5.082  16.701  0.00  0.00    +0.000 A 
ATOM      8  S   UNL     1       4.812   6.718  16.587  0.00  0.00    +0.000 S 
ATOM      9  C   UNL     1       3.783   6.574  17.918  0.00  0.00    +0.000 A 
ATOM     10  N   UNL     1       3.082   7.650  18.287  0.00  0.00    +0.000 NA
ENDROOT
BRANCH   7  11
ATOM     11  C   UNL     1       6.273   4.558  15.728  0.00  0.00    +0.000 C 
ATOM     12  O   UNL     1       7.489   4.540  15.917  0.00  0.00    +0.000 OA
ATOM     13  N   UNL     1       5.701   4.079  14.556  0.00  0.00    +0.000 N 
ATOM     14  H   UNL     1       4.696   4.171  14.467  0.00  0.00    +0.000 HD
BRANCH  13  15
ATOM     15  C   UNL     1       6.418   3.493  13.476  0.00  0.00    +0.000 C 
ATOM     16  C   UNL     1       5.768   3.280  12.138  0.00  0.00    +0.000 C 
ATOM     17  C   UNL     1       6.811   4.346  12.294  0.00  0.00    +0.000 C 
ENDBRANCH  13  15
ENDBRANCH   7  11
BRANCH   6  18
ATOM     18  N   UNL     1       4.921   3.157  18.088  0.00  0.00    +0.000 N 
ATOM     19  H   UNL     1       4.681   2.370  17.497  0.00  0.00    +0.000 HD
ATOM     20  H   UNL     1       5.284   2.891  19.007  0.00  0.00    +0.000 HD
ENDBRANCH   6  18
BRANCH   1  22
ATOM     21  C   UNL     1       1.245   8.444  21.182  0.00  0.00    +0.000 C 
ATOM     22  O   UNL     1       1.494   8.508  19.776  0.00  0.00    +0.000 OA
ENDBRANCH   1  22
TORSDOF 4
ENDMDL
MODEL 3
REMARK VINA RESULT:      -6.3      2.769      7.278
REMARK  Name = 
REMARK  6 active torsions:
REMARK  status: ('A' for Active; 'I' for Inactive)
REMARK    1  A    between atoms: C_1  and  O_2
REMARK    2  A    between atoms: O_2  and  C_3
REMARK    3  A    between atoms: C_5  and  C_6
REMARK    4  A    between atoms: C_8  and  N_9
REMARK    5  A    between atoms: C_10  and  C_11
REMARK    6  A    between atoms: N_13  and  C_14
REMARK                            x       y       z     vdW  Elec       q    Type
REMARK                         _______ _______ _______ _____ _____    ______ ____
ROOT
ATOM      1  C   UNL     1       5.441   5.600  16.239  0.00  0.00    +0.000 A 
ATOM      2  C   UNL     1       5.475   4.532  17.120  0.00  0.00    +0.000 A 
ATOM      3  C   UNL     1       4.686   4.558  18.286  0.00  0.00    +0.000 A 
ATOM      4  C   UNL     1       4.740   3.378  19.218  0.00  0.00    +0.000 C 
ATOM      5  C   UNL     1       3.885   5.720  18.504  0.00  0.00    +0.000 A 
ATOM      6  C   UNL     1       2.967   6.150  19.541  0.00  0.00    +0.000 A 
ATOM      7  C   UNL     1       2.418   7.405  19.307  0.00  0.00    +0.000 A 
ATOM      8  S   UNL     1       2.993   8.054  17.828  0.00  0.00    +0.000 S 
ATOM      9  C   UNL     1       3.959   6.703  17.523  0.00  0.00    +0.000 A 
ATOM     10  N   UNL     1       4.689   6.694  16.405  0.00  0.00    +0.000 NA
ENDROOT
BRANCH   7  11
ATOM     11  C   UNL     1       1.478   8.185  20.113  0.00  0.00    +0.000 C 
ATOM     12  O   UNL     1       1.134   7.867  21.251  0.00  0.00    +0.000 OA
ATOM     13  N   UNL     1       0.993   9.327  19.488  0.00  0.00    +0.000 N 
ATOM     14  H   UNL     1       1.298   9.491  18.535  0.00  0.00    +0.000 HD
BRANCH  13  15
ATOM     15  C   UNL     1       0.096  10.263  20.074  0.00  0.00    +0.000 C 
ATOM     16  C   UNL     1       0.025  11.681  19.584  0.00  0.00    +0.000 C 
ATOM     17  C   UNL     1      -1.102  10.737  19.288  0.00  0.00    +0.000 C 
ENDBRANCH  13  15
ENDBRANCH   7  11
BRANCH   6  18
ATOM     18  N   UNL     1       2.668   5.415  20.635  0.00  0.00    +0.000 N 
ATOM     19  H   UNL     1       3.122   4.544  20.881  0.00  0.00    +0.000 HD
ATOM     20  H   UNL     1       1.885   5.662  21.245  0.00  0.00    +0.000 HD
ENDBRANCH   6  18
BRANCH   1  22
ATOM     21  C   UNL     1       6.155   4.236  14.486  0.00  0.00    +0.000 C 
ATOM     22  O   UNL     1       6.250   5.513  15.122  0.00  0.00    +0.000 OA
ENDBRANCH   1  22
TORSDOF 4
ENDMDL
MODEL 4
REMARK VINA RESULT:      -6.2      1.659      2.645
REMARK  Name = 
REMARK  6 active torsions:
REMARK  status: ('A' for Active; 'I' for Inactive)
REMARK    1  A    between atoms: C_1  and  O_2
REMARK    2  A    between atoms: O_2  and  C_3
REMARK    3  A    between atoms: C_5  and  C_6
REMARK    4  A    between atoms: C_8  and  N_9
REMARK    5  A    between atoms: C_10  and  C_11
REMARK    6  A    between atoms: N_13  and  C_14
REMARK                            x       y       z     vdW  Elec       q    Type
REMARK                         _______ _______ _______ _____ _____    ______ ____
ROOT
ATOM      1  C   UNL     1       2.151   6.265  20.057  0.00  0.00    +0.000 A 
ATOM      2  C   UNL     1       2.075   4.896  20.258  0.00  0.00    +0.000 A 
ATOM      3  C   UNL     1       2.814   4.024  19.436  0.00  0.00    +0.000 A 
ATOM      4  C   UNL     1       2.714   2.544  19.686  0.00  0.00    +0.000 C 
ATOM      5  C   UNL     1       3.609   4.616  18.408  0.00  0.00    +0.000 A 
ATOM      6  C   UNL     1       4.484   4.106  17.370  0.00  0.00    +0.000 A 
ATOM      7  C   UNL     1       5.047   5.103  16.583  0.00  0.00    +0.000 A 
ATOM      8  S   UNL     1       4.539   6.653  17.111  0.00  0.00    +0.000 S 
ATOM      9  C   UNL     1       3.582   6.004  18.341  0.00  0.00    +0.000 A 
ATOM     10  N   UNL     1       2.899   6.851  19.117  0.00  0.00    +0.000 NA
ENDROOT
BRANCH   7  11
ATOM     11  C   UNL     1       5.956   4.998  15.440  0.00  0.00    +0.000 C 
ATOM     12  O   UNL     1       7.101   5.448  15.440  0.00  0.00    +0.000 OA
ATOM     13  N   UNL     1       5.420   4.346  14.337  0.00  0.00    +0.000 N 
ATOM     14  H   UNL     1       4.454   4.045  14.409  0.00  0.00    +0.000 HD
BRANCH  13  15
ATOM     15  C   UNL     1       6.112   4.091  13.121  0.00  0.00    +0.000 C 
ATOM     16  C   UNL     1       6.245   2.695  12.582  0.00  0.00    +0.000 C 
ATOM     17  C   UNL     1       5.335   3.670  11.897  0.00  0.00    +0.000 C 
ENDBRANCH  13  15
ENDBRANCH   7  11
BRANCH   6  18
ATOM     18  N   UNL     1       4.733   2.792  17.173  0.00  0.00    +0.000 N 
ATOM     19  H   UNL     1       4.440   2.054  17.800  0.00  0.00    +0.000 HD
ATOM     20  H   UNL     1       5.321   2.473  16.399  0.00  0.00    +0.000 HD
ENDBRANCH   6  18
BRANCH   1  22
ATOM     21  C   UNL     1       1.405   8.432  20.492  0.00  0.00    +0.000 C 
ATOM     22  O   UNL     1       1.390   7.061  20.893  0.00  0.00    +0.000 OA
ENDBRANCH   1  22
TORSDOF 4
ENDMDL
MODEL 5
REMARK VINA RESULT:      -6.2      2.453      7.028
REMARK  Name = 
REMARK  6 active torsions:
REMARK  status: ('A' for Active; 'I' for Inactive)
REMARK    1  A    between atoms: C_1  and  O_2
REMARK    2  A    between atoms: O_2  and  C_3
REMARK    3  A    between atoms: C_5  and  C_6
REMARK    4  A    between atoms: C_8  and  N_9
REMARK    5  A    between atoms: C_10  and  C_11
REMARK    6  A    between atoms: N_13  and  C_14
REMARK                            x       y       z     vdW  Elec       q    Type
REMARK                         _______ _______ _______ _____ _____    ______ ____
ROOT
ATOM      1  C   UNL     1       5.605   4.837  15.814  0.00  0.00    +0.000 A 
ATOM      2  C   UNL     1       5.120   3.660  16.360  0.00  0.00    +0.000 A 
ATOM      3  C   UNL     1       4.139   3.706  17.369  0.00  0.00    +0.000 A 
ATOM      4  C   UNL     1       3.629   2.409  17.935  0.00  0.00    +0.000 C 
ATOM      5  C   UNL     1       3.698   4.997  17.790  0.00  0.00    +0.000 A 
ATOM      6  C   UNL     1       2.748   5.485  18.770  0.00  0.00    +0.000 A 
ATOM      7  C   UNL     1       2.668   6.871  18.820  0.00  0.00    +0.000 A 
ATOM      8  S   UNL     1       3.723   7.583  17.672  0.00  0.00    +0.000 S 
ATOM      9  C   UNL     1       4.279   6.080  17.139  0.00  0.00    +0.000 A 
ATOM     10  N   UNL     1       5.201   6.060  16.172  0.00  0.00    +0.000 NA
ENDROOT
BRANCH   7  11
ATOM     11  C   UNL     1       1.852   7.735  19.675  0.00  0.00    +0.000 C 
ATOM     12  O   UNL     1       1.531   7.442  20.827  0.00  0.00    +0.000 OA
ATOM     13  N   UNL     1       1.460   8.928  19.081  0.00  0.00    +0.000 N 
ATOM     14  H   UNL     1       1.734   9.070  18.115  0.00  0.00    +0.000 HD
BRANCH  13  15
ATOM     15  C   UNL     1       0.693   9.945  19.715  0.00  0.00    +0.000 C 
ATOM     16  C   UNL     1       0.568  11.314  19.109  0.00  0.00    +0.000 C 
ATOM     17  C   UNL     1      -0.611  10.387  19.097  0.00  0.00    +0.000 C 
ENDBRANCH  13  15
ENDBRANCH   7  11
BRANCH   6  18
ATOM     18  N   UNL     1       2.007   4.681  19.565  0.00  0.00    +0.000 N 
ATOM     19  H   UNL     1       2.384   4.111  20.313  0.00  0.00    +0.000 HD
ATOM     20  H   UNL     1       1.009   4.538  19.395  0.00  0.00    +0.000 HD
ENDBRANCH   6  18
BRANCH   1  22
ATOM     21  C   UNL     1       6.143   3.906  13.743  0.00  0.00    +0.000 C 
ATOM     22  O   UNL     1       6.576   4.718  14.837  0.00  0.00    +0.000 OA
ENDBRANCH   1  22
TORSDOF 4
ENDMDL
MODEL 6
REMARK VINA RESULT:      -6.1      1.255      1.473
REMARK  Name = 
REMARK  6 active torsions:
REMARK  status: ('A' for Active; 'I' for Inactive)
REMARK    1  A    between atoms: C_1  and  O_2
REMARK    2  A    between atoms: O_2  and  C_3
REMARK    3  A    between atoms: C_5  and  C_6
REMARK    4  A    between atoms: C_8  and  N_9
REMARK    5  A    between atoms: C_10  and  C_11
REMARK    6  A    between atoms: N_13  and  C_14
REMARK                            x       y       z     vdW  Elec       q    Type
REMARK                         _______ _______ _______ _____ _____    ______ ____
ROOT
ATOM      1  C   UNL     1       3.481   4.292  19.368  0.00  0.00    +0.000 A 
ATOM      2  C   UNL     1       3.228   5.643  19.196  0.00  0.00    +0.000 A 
ATOM      3  C   UNL     1       3.687   6.302  18.039  0.00  0.00    +0.000 A 
ATOM      4  C   UNL     1       3.388   7.767  17.880  0.00  0.00    +0.000 C 
ATOM      5  C   UNL     1       4.416   5.521  17.092  0.00  0.00    +0.000 A 
ATOM      6  C   UNL     1       5.055   5.791  15.818  0.00  0.00    +0.000 A 
ATOM      7  C   UNL     1       5.664   4.675  15.258  0.00  0.00    +0.000 A 
ATOM      8  S   UNL     1       5.448   3.299  16.257  0.00  0.00    +0.000 S 
ATOM      9  C   UNL     1       4.581   4.177  17.409  0.00  0.00    +0.000 A 
ATOM     10  N   UNL     1       4.145   3.529  18.493  0.00  0.00    +0.000 NA
ENDROOT
BRANCH   7  11
ATOM     11  C   UNL     1       6.417   4.542  14.010  0.00  0.00    +0.000 C 
ATOM     12  O   UNL     1       7.417   5.209  13.746  0.00  0.00    +0.000 OA
ATOM     13  N   UNL     1       5.909   3.595  13.129  0.00  0.00    +0.000 N 
ATOM     14  H   UNL     1       5.057   3.122  13.409  0.00  0.00    +0.000 HD
BRANCH  13  15
ATOM     15  C   UNL     1       6.478   3.260  11.869  0.00  0.00    +0.000 C 
ATOM     16  C   UNL     1       7.410   2.091  11.726  0.00  0.00    +0.000 C 
ATOM     17  C   UNL     1       6.025   2.009  11.157  0.00  0.00    +0.000 C 
ENDBRANCH  13  15
ENDBRANCH   7  11
BRANCH   6  18
ATOM     18  N   UNL     1       5.066   7.005  15.224  0.00  0.00    +0.000 N 
ATOM     19  H   UNL     1       4.944   7.157  14.231  0.00  0.00    +0.000 HD
ATOM     20  H   UNL     1       5.290   7.853  15.751  0.00  0.00    +0.000 HD
ENDBRANCH   6  18
BRANCH   1  22
ATOM     21  C   UNL     1       1.585   3.651  20.567  0.00  0.00    +0.000 C 
ATOM     22  O   UNL     1       3.013   3.713  20.533  0.00  0.00    +0.000 OA
ENDBRANCH   1  22
TORSDOF 4
ENDMDL
MODEL 7
REMARK VINA RESULT:      -6.0      2.100      2.864
REMARK  Name = 
REMARK  6 active torsions:
REMARK  status: ('A' for Active; 'I' for Inactive)
REMARK    1  A    between atoms: C_1  and  O_2
REMARK    2  A    between atoms: O_2  and  C_3
REMARK    3  A    between atoms: C_5  and  C_6
REMARK    4  A    between atoms: C_8  and  N_9
REMARK    5  A    between atoms: C_10  and  C_11
REMARK    6  A    between atoms: N_13  and  C_14
REMARK                            x       y       z     vdW  Elec       q    Type
REMARK                         _______ _______ _______ _____ _____    ______ ____
ROOT
ATOM      1  C   UNL     1       4.588   4.347  19.070  0.00  0.00    +0.000 A 
ATOM      2  C   UNL     1       5.632   5.238  19.256  0.00  0.00    +0.000 A 
ATOM      3  C   UNL     1       6.472   5.572  18.175  0.00  0.00    +0.000 A 
ATOM      4  C   UNL     1       7.591   6.549  18.410  0.00  0.00    +0.000 C 
ATOM      5  C   UNL     1       6.197   4.946  16.921  0.00  0.00    +0.000 A 
ATOM      6  C   UNL     1       6.796   4.994  15.602  0.00  0.00    +0.000 A 
ATOM      7  C   UNL     1       6.159   4.176  14.676  0.00  0.00    +0.000 A 
ATOM      8  S   UNL     1       4.828   3.368  15.393  0.00  0.00    +0.000 S 
ATOM      9  C   UNL     1       5.110   4.080  16.898  0.00  0.00    +0.000 A 
ATOM     10  N   UNL     1       4.294   3.758  17.906  0.00  0.00    +0.000 NA
ENDROOT
BRANCH   7  11
ATOM     11  C   UNL     1       6.467   3.936  13.265  0.00  0.00    +0.000 C 
ATOM     12  O   UNL     1       7.184   4.676  12.592  0.00  0.00    +0.000 OA
ATOM     13  N   UNL     1       5.877   2.796  12.733  0.00  0.00    +0.000 N 
ATOM     14  H   UNL     1       5.268   2.268  13.347  0.00  0.00    +0.000 HD
BRANCH  13  15
ATOM     15  C   UNL     1       6.048   2.333  11.399  0.00  0.00    +0.000 C 
ATOM     16  C   UNL     1       7.333   1.690  10.960  0.00  0.00    +0.000 C 
ATOM     17  C   UNL     1       6.103   0.849  11.128  0.00  0.00    +0.000 C 
ENDBRANCH  13  15
ENDBRANCH   7  11
BRANCH   6  18
ATOM     18  N   UNL     1       7.870   5.753  15.289  0.00  0.00    +0.000 N 
ATOM     19  H   UNL     1       8.822   5.412  15.257  0.00  0.00    +0.000 HD
ATOM     20  H   UNL     1       7.784   6.762  15.145  0.00  0.00    +0.000 HD
ENDBRANCH   6  18
BRANCH   1  22
ATOM     21  C   UNL     1       2.700   4.943  20.304  0.00  0.00    +0.000 C 
ATOM     22  O   UNL     1       3.813   4.056  20.177  0.00  0.00    +0.000 OA
ENDBRANCH   1  22
TORSDOF 4
ENDMDL
MODEL 8
REMARK VINA RESULT:      -6.0      3.402      5.220
REMARK  Name = 
REMARK  6 active torsions:
REMARK  status: ('A' for Active; 'I' for Inactive)
REMARK    1  A    between atoms: C_1  and  O_2
REMARK    2  A    between atoms: O_2  and  C_3
REMARK    3  A    between atoms: C_5  and  C_6
REMARK    4  A    between atoms: C_8  and  N_9
REMARK    5  A    between atoms: C_10  and  C_11
REMARK    6  A    between atoms: N_13  and  C_14
REMARK                            x       y       z     vdW  Elec       q    Type
REMARK                         _______ _______ _______ _____ _____    ______ ____
ROOT
ATOM      1  C   UNL     1       0.809  10.778  18.962  0.00  0.00    +0.000 A 
ATOM      2  C   UNL     1       0.392  10.334  20.206  0.00  0.00    +0.000 A 
ATOM      3  C   UNL     1       0.790   9.064  20.667  0.00  0.00    +0.000 A 
ATOM      4  C   UNL     1       0.327   8.615  22.026  0.00  0.00    +0.000 C 
ATOM      5  C   UNL     1       1.611   8.283  19.798  0.00  0.00    +0.000 A 
ATOM      6  C   UNL     1       2.214   6.966  19.869  0.00  0.00    +0.000 A 
ATOM      7  C   UNL     1       2.943   6.630  18.735  0.00  0.00    +0.000 A 
ATOM      8  S   UNL     1       2.917   7.910  17.595  0.00  0.00    +0.000 S 
ATOM      9  C   UNL     1       1.946   8.873  18.584  0.00  0.00    +0.000 A 
ATOM     10  N   UNL     1       1.591  10.080  18.132  0.00  0.00    +0.000 NA
ENDROOT
BRANCH   7  11
ATOM     11  C   UNL     1       3.675   5.404  18.418  0.00  0.00    +0.000 C 
ATOM     12  O   UNL     1       3.791   4.461  19.200  0.00  0.00    +0.000 OA
ATOM     13  N   UNL     1       4.242   5.383  17.149  0.00  0.00    +0.000 N 
ATOM     14  H   UNL     1       4.133   6.219  16.586  0.00  0.00    +0.000 HD
BRANCH  13  15
ATOM     15  C   UNL     1       4.973   4.295  16.597  0.00  0.00    +0.000 C 
ATOM     16  C   UNL     1       5.496   4.347  15.190  0.00  0.00    +0.000 C 
ATOM     17  C   UNL     1       6.453   4.447  16.340  0.00  0.00    +0.000 C 
ENDBRANCH  13  15
ENDBRANCH   7  11
BRANCH   6  18
ATOM     18  N   UNL     1       2.085   6.136  20.927  0.00  0.00    +0.000 N 
ATOM     19  H   UNL     1       2.093   5.125  20.866  0.00  0.00    +0.000 HD
ATOM     20  H   UNL     1       1.882   6.494  21.863  0.00  0.00    +0.000 HD
ENDBRANCH   6  18
BRANCH   1  22
ATOM     21  C   UNL     1      -1.047  12.075  18.399  0.00  0.00    +0.000 C 
ATOM     22  O   UNL     1       0.371  12.028  18.567  0.00  0.00    +0.000 OA
ENDBRANCH   1  22
TORSDOF 4
ENDMDL
MODEL 9
REMARK VINA RESULT:      -6.0      5.506      7.798
REMARK  Name = 
REMARK  6 active torsions:
REMARK  status: ('A' for Active; 'I' for Inactive)
REMARK    1  A    between atoms: C_1  and  O_2
REMARK    2  A    between atoms: O_2  and  C_3
REMARK    3  A    between atoms: C_5  and  C_6
REMARK    4  A    between atoms: C_8  and  N_9
REMARK    5  A    between atoms: C_10  and  C_11
REMARK    6  A    between atoms: N_13  and  C_14
REMARK                            x       y       z     vdW  Elec       q    Type
REMARK                         _______ _______ _______ _____ _____    ______ ____
ROOT
ATOM      1  C   UNL     1      -0.602  12.225  22.340  0.00  0.00    +0.000 A 
ATOM      2  C   UNL     1      -0.696  12.741  21.058  0.00  0.00    +0.000 A 
ATOM      3  C   UNL     1      -0.225  11.991  19.963  0.00  0.00    +0.000 A 
ATOM      4  C   UNL     1      -0.349  12.578  18.583  0.00  0.00    +0.000 C 
ATOM      5  C   UNL     1       0.348  10.714  20.247  0.00  0.00    +0.000 A 
ATOM      6  C   UNL     1       0.943   9.659  19.450  0.00  0.00    +0.000 A 
ATOM      7  C   UNL     1       1.377   8.575  20.203  0.00  0.00    +0.000 A 
ATOM      8  S   UNL     1       1.049   8.821  21.868  0.00  0.00    +0.000 S 
ATOM      9  C   UNL     1       0.363  10.338  21.586  0.00  0.00    +0.000 A 
ATOM     10  N   UNL     1      -0.089  11.027  22.638  0.00  0.00    +0.000 NA
ENDROOT
BRANCH   7  11
ATOM     11  C   UNL     1       2.036   7.339  19.778  0.00  0.00    +0.000 C 
ATOM     12  O   UNL     1       2.731   7.254  18.766  0.00  0.00    +0.000 OA
ATOM     13  N   UNL     1       1.812   6.251  20.613  0.00  0.00    +0.000 N 
ATOM     14  H   UNL     1       1.193   6.400  21.402  0.00  0.00    +0.000 HD
BRANCH  13  15
ATOM     15  C   UNL     1       2.367   4.954  20.433  0.00  0.00    +0.000 C 
ATOM     16  C   UNL     1       2.131   3.864  21.439  0.00  0.00    +0.000 C 
ATOM     17  C   UNL     1       1.457   3.796  20.102  0.00  0.00    +0.000 C 
ENDBRANCH  13  15
ENDBRANCH   7  11
BRANCH   6  18
ATOM     18  N   UNL     1       1.071   9.713  18.106  0.00  0.00    +0.000 N 
ATOM     19  H   UNL     1       1.526  10.465  17.603  0.00  0.00    +0.000 HD
ATOM     20  H   UNL     1       0.627   9.018  17.501  0.00  0.00    +0.000 HD
ENDBRANCH   6  18
BRANCH   1  22
ATOM     21  C   UNL     1      -0.873  14.411  23.109  0.00  0.00    +0.000 C 
ATOM     22  O   UNL     1      -1.073  13.020  23.368  0.00  0.00    +0.000 OA
ENDBRANCH   1  22
TORSDOF 4
ENDMDL
