MODEL 1
REMARK VINA RESULT:      -8.3      0.000      0.000
REMARK  Name = 
REMARK  5 active torsions:
REMARK  status: ('A' for Active; 'I' for Inactive)
REMARK    1  A    between atoms: C_2  and  C_3
REMARK    2  A    between atoms: C_2  and  C_17
REMARK    3  A    between atoms: C_7  and  C_9
REMARK    4  A    between atoms: C_9  and  N_10
REMARK    5  A    between atoms: C_22  and  O_23
REMARK                            x       y       z     vdW  Elec       q    Type
REMARK                         _______ _______ _______ _____ _____    ______ ____
ROOT
ATOM      1  C   UNL     1       5.626   5.158  16.469  0.00  0.00    +0.000 A 
ATOM      2  C   UNL     1       5.155   3.943  17.008  0.00  0.00    +0.000 A 
ATOM      3  N   UNL     1       3.996   4.068  17.657  0.00  0.00    +0.000 NA
ATOM      4  N   UNL     1       3.698   5.391  17.550  0.00  0.00    +0.000 N 
ATOM      5  C   UNL     1       2.472   5.899  18.008  0.00  0.00    +0.000 C 
ATOM      6  O   UNL     1       2.345   7.109  18.170  0.00  0.00    +0.000 OA
ATOM      7  C   UNL     1       4.730   6.092  16.951  0.00  0.00    +0.000 A 
ENDROOT
BRANCH   1   9
ATOM      8  O   UNL     1       7.722   6.078  15.956  0.00  0.00    +0.000 OA
ATOM      9  C   UNL     1       6.761   5.414  15.588  0.00  0.00    +0.000 C 
BRANCH   9  10
ATOM     10  C   UNL     1       6.758   4.833  14.213  0.00  0.00    +0.000 A 
ATOM     11  C   UNL     1       5.773   3.883  13.898  0.00  0.00    +0.000 A 
ATOM     12  C   UNL     1       5.721   3.309  12.621  0.00  0.00    +0.000 A 
ATOM     13  C   UNL     1       6.648   3.677  11.648  0.00  0.00    +0.000 A 
ATOM     14  C   UNL     1       7.645   4.602  11.952  0.00  0.00    +0.000 A 
ATOM     15  C   UNL     1       7.709   5.160  13.230  0.00  0.00    +0.000 A 
BRANCH  15  16
ATOM     16  O   UNL     1       8.747   6.004  13.517  0.00  0.00    +0.000 OA
ATOM     17  H   UNL     1       9.488   5.505  13.898  0.00  0.00    +0.000 HD
ENDBRANCH  15  16
ENDBRANCH   9  10
ENDBRANCH   1   9
BRANCH   5  18
ATOM     18  C   UNL     1       1.425   4.819  18.256  0.00  0.00    +0.000 C 
BRANCH  18  19
ATOM     19  N   UNL     1       1.533   4.162  19.561  0.00  0.00    +0.000 N 
ATOM     20  C   UNL     1       1.907   4.853  20.771  0.00  0.00    +0.000 C 
ATOM     21  C   UNL     1       2.236   3.725  21.731  0.00  0.00    +0.000 C 
ATOM     22  C   UNL     1       1.336   2.584  21.273  0.00  0.00    +0.000 C 
ATOM     23  C   UNL     1       1.231   2.828  19.789  0.00  0.00    +0.000 C 
ATOM     24  O   UNL     1       0.901   2.000  18.957  0.00  0.00    +0.000 OA
ENDBRANCH  18  19
ENDBRANCH   5  18
TORSDOF 5
ENDMDL
MODEL 2
REMARK VINA RESULT:      -7.9      1.723      7.490
REMARK  Name = 
REMARK  5 active torsions:
REMARK  status: ('A' for Active; 'I' for Inactive)
REMARK    1  A    between atoms: C_2  and  C_3
REMARK    2  A    between atoms: C_2  and  C_17
REMARK    3  A    between atoms: C_7  and  C_9
REMARK    4  A    between atoms: C_9  and  N_10
REMARK    5  A    between atoms: C_22  and  O_23
REMARK                            x       y       z     vdW  Elec       q    Type
REMARK                         _______ _______ _______ _____ _____    ______ ____
ROOT
ATOM      1  C   UNL     1       3.815   6.361  18.326  0.00  0.00    +0.000 A 
ATOM      2  C   UNL     1       4.356   7.362  17.493  0.00  0.00    +0.000 A 
ATOM      3  N   UNL     1       5.553   7.041  16.995  0.00  0.00    +0.000 NA
ATOM      4  N   UNL     1       5.809   5.811  17.513  0.00  0.00    +0.000 N 
ATOM      5  C   UNL     1       6.937   5.075  17.116  0.00  0.00    +0.000 C 
ATOM      6  O   UNL     1       7.302   4.121  17.795  0.00  0.00    +0.000 OA
ATOM      7  C   UNL     1       4.835   5.435  18.422  0.00  0.00    +0.000 A 
ENDROOT
BRANCH   1   9
ATOM      8  O   UNL     1       1.734   7.227  18.978  0.00  0.00    +0.000 OA
ATOM      9  C   UNL     1       2.494   6.268  18.940  0.00  0.00    +0.000 C 
BRANCH   9  10
ATOM     10  C   UNL     1       2.052   4.964  19.516  0.00  0.00    +0.000 A 
ATOM     11  C   UNL     1       2.303   4.721  20.877  0.00  0.00    +0.000 A 
ATOM     12  C   UNL     1       1.906   3.516  21.469  0.00  0.00    +0.000 A 
ATOM     13  C   UNL     1       1.256   2.543  20.714  0.00  0.00    +0.000 A 
ATOM     14  C   UNL     1       1.018   2.759  19.357  0.00  0.00    +0.000 A 
ATOM     15  C   UNL     1       1.431   3.952  18.762  0.00  0.00    +0.000 A 
BRANCH  15  16
ATOM     16  O   UNL     1       1.253   4.097  17.413  0.00  0.00    +0.000 OA
ATOM     17  H   UNL     1       2.111   4.076  16.958  0.00  0.00    +0.000 HD
ENDBRANCH  15  16
ENDBRANCH   9  10
ENDBRANCH   1   9
BRANCH   5  18
ATOM     18  C   UNL     1       7.581   5.599  15.838  0.00  0.00    +0.000 C 
BRANCH  18  19
ATOM     19  N   UNL     1       7.110   4.945  14.614  0.00  0.00    +0.000 N 
ATOM     20  C   UNL     1       5.958   4.079  14.568  0.00  0.00    +0.000 C 
ATOM     21  C   UNL     1       6.099   3.380  13.228  0.00  0.00    +0.000 C 
ATOM     22  C   UNL     1       6.822   4.401  12.360  0.00  0.00    +0.000 C 
ATOM     23  C   UNL     1       7.678   5.133  13.363  0.00  0.00    +0.000 C 
ATOM     24  O   UNL     1       8.665   5.799  13.099  0.00  0.00    +0.000 OA
ENDBRANCH  18  19
ENDBRANCH   5  18
TORSDOF 5
ENDMDL
MODEL 3
REMARK VINA RESULT:      -7.8      1.304      1.735
REMARK  Name = 
REMARK  5 active torsions:
REMARK  status: ('A' for Active; 'I' for Inactive)
REMARK    1  A    between atoms: C_2  and  C_3
REMARK    2  A    between atoms: C_2  and  C_17
REMARK    3  A    between atoms: C_7  and  C_9
REMARK    4  A    between atoms: C_9  and  N_10
REMARK    5  A    between atoms: C_22  and  O_23
REMARK                            x       y       z     vdW  Elec       q    Type
REMARK                         _______ _______ _______ _____ _____    ______ ____
ROOT
ATOM      1  C   UNL     1       5.951   5.989  17.383  0.00  0.00    +0.000 A 
ATOM      2  C   UNL     1       6.042   5.337  18.630  0.00  0.00    +0.000 A 
ATOM      3  N   UNL     1       4.942   5.470  19.375  0.00  0.00    +0.000 NA
ATOM      4  N   UNL     1       4.113   6.227  18.609  0.00  0.00    +0.000 N 
ATOM      5  C   UNL     1       2.790   6.483  19.003  0.00  0.00    +0.000 C 
ATOM      6  O   UNL     1       2.164   7.389  18.461  0.00  0.00    +0.000 OA
ATOM      7  C   UNL     1       4.747   6.661  17.458  0.00  0.00    +0.000 A 
ENDROOT
BRANCH   1   9
ATOM      8  O   UNL     1       7.912   6.601  16.250  0.00  0.00    +0.000 OA
ATOM      9  C   UNL     1       6.866   5.965  16.246  0.00  0.00    +0.000 C 
BRANCH   9  10
ATOM     10  C   UNL     1       6.526   5.128  15.057  0.00  0.00    +0.000 A 
ATOM     11  C   UNL     1       5.379   4.319  15.124  0.00  0.00    +0.000 A 
ATOM     12  C   UNL     1       5.011   3.517  14.037  0.00  0.00    +0.000 A 
ATOM     13  C   UNL     1       5.778   3.515  12.875  0.00  0.00    +0.000 A 
ATOM     14  C   UNL     1       6.931   4.295  12.801  0.00  0.00    +0.000 A 
ATOM     15  C   UNL     1       7.309   5.080  13.891  0.00  0.00    +0.000 A 
BRANCH  15  16
ATOM     16  O   UNL     1       8.487   5.772  13.813  0.00  0.00    +0.000 OA
ATOM     17  H   UNL     1       9.020   5.616  14.611  0.00  0.00    +0.000 HD
ENDBRANCH  15  16
ENDBRANCH   9  10
ENDBRANCH   1   9
BRANCH   5  18
ATOM     18  C   UNL     1       2.299   5.555  20.109  0.00  0.00    +0.000 C 
BRANCH  18  19
ATOM     19  N   UNL     1       1.964   4.202  19.656  0.00  0.00    +0.000 N 
ATOM     20  C   UNL     1       1.434   3.911  18.346  0.00  0.00    +0.000 C 
ATOM     21  C   UNL     1       0.917   2.490  18.486  0.00  0.00    +0.000 C 
ATOM     22  C   UNL     1       1.833   1.872  19.534  0.00  0.00    +0.000 C 
ATOM     23  C   UNL     1       2.177   3.055  20.405  0.00  0.00    +0.000 C 
ATOM     24  O   UNL     1       2.600   2.995  21.547  0.00  0.00    +0.000 OA
ENDBRANCH  18  19
ENDBRANCH   5  18
TORSDOF 5
ENDMDL
MODEL 4
REMARK VINA RESULT:      -7.8      4.376      6.732
REMARK  Name = 
REMARK  5 active torsions:
REMARK  status: ('A' for Active; 'I' for Inactive)
REMARK    1  A    between atoms: C_2  and  C_3
REMARK    2  A    between atoms: C_2  and  C_17
REMARK    3  A    between atoms: C_7  and  C_9
REMARK    4  A    between atoms: C_9  and  N_10
REMARK    5  A    between atoms: C_22  and  O_23
REMARK                            x       y       z     vdW  Elec       q    Type
REMARK                         _______ _______ _______ _____ _____    ______ ____
ROOT
ATOM      1  C   UNL     1       2.999   6.770  18.380  0.00  0.00    +0.000 A 
ATOM      2  C   UNL     1       2.371   6.915  19.634  0.00  0.00    +0.000 A 
ATOM      3  N   UNL     1       1.798   8.109  19.801  0.00  0.00    +0.000 NA
ATOM      4  N   UNL     1       2.058   8.766  18.639  0.00  0.00    +0.000 N 
ATOM      5  C   UNL     1       1.504  10.030  18.380  0.00  0.00    +0.000 C 
ATOM      6  O   UNL     1       1.973  10.720  17.480  0.00  0.00    +0.000 OA
ATOM      7  C   UNL     1       2.891   8.027  17.818  0.00  0.00    +0.000 A 
ENDROOT
BRANCH   1   9
ATOM      8  O   UNL     1       4.505   5.688  16.943  0.00  0.00    +0.000 OA
ATOM      9  C   UNL     1       3.605   5.592  17.767  0.00  0.00    +0.000 C 
BRANCH   9  10
ATOM     10  C   UNL     1       3.127   4.237  18.172  0.00  0.00    +0.000 A 
ATOM     11  C   UNL     1       1.752   3.965  18.081  0.00  0.00    +0.000 A 
ATOM     12  C   UNL     1       1.250   2.709  18.444  0.00  0.00    +0.000 A 
ATOM     13  C   UNL     1       2.111   1.713  18.898  0.00  0.00    +0.000 A 
ATOM     14  C   UNL     1       3.476   1.974  19.015  0.00  0.00    +0.000 A 
ATOM     15  C   UNL     1       3.974   3.232  18.672  0.00  0.00    +0.000 A 
BRANCH  15  16
ATOM     16  O   UNL     1       5.305   3.478  18.873  0.00  0.00    +0.000 OA
ATOM     17  H   UNL     1       5.798   2.642  18.905  0.00  0.00    +0.000 HD
ENDBRANCH  15  16
ENDBRANCH   9  10
ENDBRANCH   1   9
BRANCH   5  18
ATOM     18  C   UNL     1       0.343  10.382  19.304  0.00  0.00    +0.000 C 
BRANCH  18  19
ATOM     19  N   UNL     1      -0.918  10.655  18.610  0.00  0.00    +0.000 N 
ATOM     20  C   UNL     1      -1.377   9.901  17.469  0.00  0.00    +0.000 C 
ATOM     21  C   UNL     1      -2.489  10.766  16.902  0.00  0.00    +0.000 C 
ATOM     22  C   UNL     1      -3.048  11.485  18.123  0.00  0.00    +0.000 C 
ATOM     23  C   UNL     1      -1.833  11.618  19.007  0.00  0.00    +0.000 C 
ATOM     24  O   UNL     1      -1.710  12.410  19.926  0.00  0.00    +0.000 OA
ENDBRANCH  18  19
ENDBRANCH   5  18
TORSDOF 5
ENDMDL
MODEL 5
REMARK VINA RESULT:      -7.8      1.950      7.415
REMARK  Name = 
REMARK  5 active torsions:
REMARK  status: ('A' for Active; 'I' for Inactive)
REMARK    1  A    between atoms: C_2  and  C_3
REMARK    2  A    between atoms: C_2  and  C_17
REMARK    3  A    between atoms: C_7  and  C_9
REMARK    4  A    between atoms: C_9  and  N_10
REMARK    5  A    between atoms: C_22  and  O_23
REMARK                            x       y       z     vdW  Elec       q    Type
REMARK                         _______ _______ _______ _____ _____    ______ ____
ROOT
ATOM      1  C   UNL     1       3.980   6.458  18.020  0.00  0.00    +0.000 A 
ATOM      2  C   UNL     1       4.504   7.357  17.069  0.00  0.00    +0.000 A 
ATOM      3  N   UNL     1       5.704   6.997  16.609  0.00  0.00    +0.000 NA
ATOM      4  N   UNL     1       5.980   5.843  17.272  0.00  0.00    +0.000 N 
ATOM      5  C   UNL     1       7.119   5.081  16.963  0.00  0.00    +0.000 C 
ATOM      6  O   UNL     1       7.500   4.222  17.751  0.00  0.00    +0.000 OA
ATOM      7  C   UNL     1       5.014   5.565  18.223  0.00  0.00    +0.000 A 
ENDROOT
BRANCH   1   9
ATOM      8  O   UNL     1       2.006   7.438  18.823  0.00  0.00    +0.000 OA
ATOM      9  C   UNL     1       2.661   6.420  18.645  0.00  0.00    +0.000 C 
BRANCH   9  10
ATOM     10  C   UNL     1       2.092   5.103  19.058  0.00  0.00    +0.000 A 
ATOM     11  C   UNL     1       1.654   4.226  18.052  0.00  0.00    +0.000 A 
ATOM     12  C   UNL     1       1.115   2.977  18.383  0.00  0.00    +0.000 A 
ATOM     13  C   UNL     1       1.009   2.589  19.716  0.00  0.00    +0.000 A 
ATOM     14  C   UNL     1       1.420   3.457  20.727  0.00  0.00    +0.000 A 
ATOM     15  C   UNL     1       1.938   4.709  20.399  0.00  0.00    +0.000 A 
BRANCH  15  16
ATOM     16  O   UNL     1       2.257   5.565  21.418  0.00  0.00    +0.000 OA
ATOM     17  H   UNL     1       2.581   5.065  22.185  0.00  0.00    +0.000 HD
ENDBRANCH  15  16
ENDBRANCH   9  10
ENDBRANCH   1   9
BRANCH   5  18
ATOM     18  C   UNL     1       7.752   5.456  15.628  0.00  0.00    +0.000 C 
BRANCH  18  19
ATOM     19  N   UNL     1       7.151   4.792  14.468  0.00  0.00    +0.000 N 
ATOM     20  C   UNL     1       6.061   3.851  14.567  0.00  0.00    +0.000 C 
ATOM     21  C   UNL     1       6.050   3.186  13.203  0.00  0.00    +0.000 C 
ATOM     22  C   UNL     1       6.572   4.268  12.266  0.00  0.00    +0.000 C 
ATOM     23  C   UNL     1       7.516   5.039  13.153  0.00  0.00    +0.000 C 
ATOM     24  O   UNL     1       8.410   5.773  12.768  0.00  0.00    +0.000 OA
ENDBRANCH  18  19
ENDBRANCH   5  18
TORSDOF 5
ENDMDL
MODEL 6
REMARK VINA RESULT:      -7.8      3.987      5.725
REMARK  Name = 
REMARK  5 active torsions:
REMARK  status: ('A' for Active; 'I' for Inactive)
REMARK    1  A    between atoms: C_2  and  C_3
REMARK    2  A    between atoms: C_2  and  C_17
REMARK    3  A    between atoms: C_7  and  C_9
REMARK    4  A    between atoms: C_9  and  N_10
REMARK    5  A    between atoms: C_22  and  O_23
REMARK                            x       y       z     vdW  Elec       q    Type
REMARK                         _______ _______ _______ _____ _____    ______ ____
ROOT
ATOM      1  C   UNL     1       3.081   5.765  18.630  0.00  0.00    +0.000 A 
ATOM      2  C   UNL     1       2.594   6.051  19.922  0.00  0.00    +0.000 A 
ATOM      3  N   UNL     1       2.087   7.281  20.034  0.00  0.00    +0.000 NA
ATOM      4  N   UNL     1       2.246   7.818  18.795  0.00  0.00    +0.000 N 
ATOM      5  C   UNL     1       1.714   9.078  18.476  0.00  0.00    +0.000 C 
ATOM      6  O   UNL     1       2.110   9.662  17.472  0.00  0.00    +0.000 OA
ATOM      7  C   UNL     1       2.960   6.971  17.967  0.00  0.00    +0.000 A 
ENDROOT
BRANCH   1   9
ATOM      8  O   UNL     1       2.952   3.463  18.197  0.00  0.00    +0.000 OA
ATOM      9  C   UNL     1       3.575   4.510  18.072  0.00  0.00    +0.000 C 
BRANCH   9  10
ATOM     10  C   UNL     1       4.860   4.509  17.313  0.00  0.00    +0.000 A 
ATOM     11  C   UNL     1       4.802   4.397  15.914  0.00  0.00    +0.000 A 
ATOM     12  C   UNL     1       5.978   4.395  15.152  0.00  0.00    +0.000 A 
ATOM     13  C   UNL     1       7.218   4.506  15.775  0.00  0.00    +0.000 A 
ATOM     14  C   UNL     1       7.293   4.596  17.164  0.00  0.00    +0.000 A 
ATOM     15  C   UNL     1       6.124   4.579  17.925  0.00  0.00    +0.000 A 
BRANCH  15  16
ATOM     16  O   UNL     1       6.238   4.590  19.289  0.00  0.00    +0.000 OA
ATOM     17  H   UNL     1       6.433   3.695  19.615  0.00  0.00    +0.000 HD
ENDBRANCH  15  16
ENDBRANCH   9  10
ENDBRANCH   1   9
BRANCH   5  18
ATOM     18  C   UNL     1       0.671   9.565  19.476  0.00  0.00    +0.000 C 
BRANCH  18  19
ATOM     19  N   UNL     1      -0.053  10.766  19.055  0.00  0.00    +0.000 N 
ATOM     20  C   UNL     1       0.347  12.104  19.418  0.00  0.00    +0.000 C 
ATOM     21  C   UNL     1      -0.875  12.939  19.080  0.00  0.00    +0.000 C 
ATOM     22  C   UNL     1      -1.516  12.191  17.919  0.00  0.00    +0.000 C 
ATOM     23  C   UNL     1      -1.158  10.756  18.217  0.00  0.00    +0.000 C 
ATOM     24  O   UNL     1      -1.725   9.776  17.765  0.00  0.00    +0.000 OA
ENDBRANCH  18  19
ENDBRANCH   5  18
TORSDOF 5
ENDMDL
MODEL 7
REMARK VINA RESULT:      -7.7      2.179      3.438
REMARK  Name = 
REMARK  5 active torsions:
REMARK  status: ('A' for Active; 'I' for Inactive)
REMARK    1  A    between atoms: C_2  and  C_3
REMARK    2  A    between atoms: C_2  and  C_17
REMARK    3  A    between atoms: C_7  and  C_9
REMARK    4  A    between atoms: C_9  and  N_10
REMARK    5  A    between atoms: C_22  and  O_23
REMARK                            x       y       z     vdW  Elec       q    Type
REMARK                         _______ _______ _______ _____ _____    ______ ____
ROOT
ATOM      1  C   UNL     1       5.935   5.558  16.505  0.00  0.00    +0.000 A 
ATOM      2  C   UNL     1       5.991   6.811  17.149  0.00  0.00    +0.000 A 
ATOM      3  N   UNL     1       4.875   7.110  17.817  0.00  0.00    +0.000 NA
ATOM      4  N   UNL     1       4.065   6.039  17.606  0.00  0.00    +0.000 N 
ATOM      5  C   UNL     1       2.828   5.923  18.259  0.00  0.00    +0.000 C 
ATOM      6  O   UNL     1       2.001   5.119  17.843  0.00  0.00    +0.000 OA
ATOM      7  C   UNL     1       4.632   5.148  16.711  0.00  0.00    +0.000 A 
ENDROOT
BRANCH   1   9
ATOM      8  O   UNL     1       7.980   4.416  16.382  0.00  0.00    +0.000 OA
ATOM      9  C   UNL     1       6.979   4.818  15.803  0.00  0.00    +0.000 C 
BRANCH   9  10
ATOM     10  C   UNL     1       6.811   4.528  14.348  0.00  0.00    +0.000 A 
ATOM     11  C   UNL     1       5.813   3.616  13.966  0.00  0.00    +0.000 A 
ATOM     12  C   UNL     1       5.609   3.311  12.614  0.00  0.00    +0.000 A 
ATOM     13  C   UNL     1       6.394   3.911  11.633  0.00  0.00    +0.000 A 
ATOM     14  C   UNL     1       7.403   4.801  11.998  0.00  0.00    +0.000 A 
ATOM     15  C   UNL     1       7.620   5.091  13.345  0.00  0.00    +0.000 A 
BRANCH  15  16
ATOM     16  O   UNL     1       8.669   5.907  13.671  0.00  0.00    +0.000 OA
ATOM     17  H   UNL     1       8.393   6.553  14.343  0.00  0.00    +0.000 HD
ENDBRANCH  15  16
ENDBRANCH   9  10
ENDBRANCH   1   9
BRANCH   5  18
ATOM     18  C   UNL     1       2.682   6.866  19.449  0.00  0.00    +0.000 C 
BRANCH  18  19
ATOM     19  N   UNL     1       1.935   8.092  19.159  0.00  0.00    +0.000 N 
ATOM     20  C   UNL     1       1.815   8.656  17.837  0.00  0.00    +0.000 C 
ATOM     21  C   UNL     1       1.296  10.058  18.101  0.00  0.00    +0.000 C 
ATOM     22  C   UNL     1       0.483   9.909  19.380  0.00  0.00    +0.000 C 
ATOM     23  C   UNL     1       1.213   8.805  20.104  0.00  0.00    +0.000 C 
ATOM     24  O   UNL     1       1.141   8.573  21.299  0.00  0.00    +0.000 OA
ENDBRANCH  18  19
ENDBRANCH   5  18
TORSDOF 5
ENDMDL
MODEL 8
REMARK VINA RESULT:      -7.7      4.029      5.822
REMARK  Name = 
REMARK  5 active torsions:
REMARK  status: ('A' for Active; 'I' for Inactive)
REMARK    1  A    between atoms: C_2  and  C_3
REMARK    2  A    between atoms: C_2  and  C_17
REMARK    3  A    between atoms: C_7  and  C_9
REMARK    4  A    between atoms: C_9  and  N_10
REMARK    5  A    between atoms: C_22  and  O_23
REMARK                            x       y       z     vdW  Elec       q    Type
REMARK                         _______ _______ _______ _____ _____    ______ ____
ROOT
ATOM      1  C   UNL     1       3.090   5.869  18.315  0.00  0.00    +0.000 A 
ATOM      2  C   UNL     1       2.654   6.041  19.645  0.00  0.00    +0.000 A 
ATOM      3  N   UNL     1       2.159   7.258  19.884  0.00  0.00    +0.000 NA
ATOM      4  N   UNL     1       2.276   7.902  18.693  0.00  0.00    +0.000 N 
ATOM      5  C   UNL     1       1.741   9.187  18.506  0.00  0.00    +0.000 C 
ATOM      6  O   UNL     1       2.103   9.856  17.544  0.00  0.00    +0.000 OA
ATOM      7  C   UNL     1       2.953   7.129  17.766  0.00  0.00    +0.000 A 
ENDROOT
BRANCH   1   9
ATOM      8  O   UNL     1       2.874   3.650  17.586  0.00  0.00    +0.000 OA
ATOM      9  C   UNL     1       3.554   4.667  17.630  0.00  0.00    +0.000 C 
BRANCH   9  10
ATOM     10  C   UNL     1       4.882   4.686  16.950  0.00  0.00    +0.000 A 
ATOM     11  C   UNL     1       4.915   4.939  15.568  0.00  0.00    +0.000 A 
ATOM     12  C   UNL     1       6.135   4.973  14.880  0.00  0.00    +0.000 A 
ATOM     13  C   UNL     1       7.331   4.757  15.561  0.00  0.00    +0.000 A 
ATOM     14  C   UNL     1       7.313   4.483  16.928  0.00  0.00    +0.000 A 
ATOM     15  C   UNL     1       6.097   4.430  17.610  0.00  0.00    +0.000 A 
BRANCH  15  16
ATOM     16  O   UNL     1       6.112   4.081  18.933  0.00  0.00    +0.000 OA
ATOM     17  H   UNL     1       5.960   3.126  19.029  0.00  0.00    +0.000 HD
ENDBRANCH  15  16
ENDBRANCH   9  10
ENDBRANCH   1   9
BRANCH   5  18
ATOM     18  C   UNL     1       0.739   9.587  19.584  0.00  0.00    +0.000 C 
BRANCH  18  19
ATOM     19  N   UNL     1      -0.189  10.647  19.181  0.00  0.00    +0.000 N 
ATOM     20  C   UNL     1      -1.429  10.397  18.488  0.00  0.00    +0.000 C 
ATOM     21  C   UNL     1      -1.828  11.770  17.979  0.00  0.00    +0.000 C 
ATOM     22  C   UNL     1      -1.244  12.725  19.012  0.00  0.00    +0.000 C 
ATOM     23  C   UNL     1      -0.010  11.991  19.474  0.00  0.00    +0.000 C 
ATOM     24  O   UNL     1       0.946  12.497  20.036  0.00  0.00    +0.000 OA
ENDBRANCH  18  19
ENDBRANCH   5  18
TORSDOF 5
ENDMDL
MODEL 9
REMARK VINA RESULT:      -7.6      1.298      1.623
REMARK  Name = 
REMARK  5 active torsions:
REMARK  status: ('A' for Active; 'I' for Inactive)
REMARK    1  A    between atoms: C_2  and  C_3
REMARK    2  A    between atoms: C_2  and  C_17
REMARK    3  A    between atoms: C_7  and  C_9
REMARK    4  A    between atoms: C_9  and  N_10
REMARK    5  A    between atoms: C_22  and  O_23
REMARK                            x       y       z     vdW  Elec       q    Type
REMARK                         _______ _______ _______ _____ _____    ______ ____
ROOT
ATOM      1  C   UNL     1       5.948   5.929  17.251  0.00  0.00    +0.000 A 
ATOM      2  C   UNL     1       5.975   5.205  18.461  0.00  0.00    +0.000 A 
ATOM      3  N   UNL     1       4.858   5.339  19.179  0.00  0.00    +0.000 NA
ATOM      4  N   UNL     1       4.082   6.169  18.434  0.00  0.00    +0.000 N 
ATOM      5  C   UNL     1       2.758   6.454  18.804  0.00  0.00    +0.000 C 
ATOM      6  O   UNL     1       2.184   7.412  18.297  0.00  0.00    +0.000 OA
ATOM      7  C   UNL     1       4.768   6.643  17.329  0.00  0.00    +0.000 A 
ENDROOT
BRANCH   1   9
ATOM      8  O   UNL     1       7.934   6.582  16.187  0.00  0.00    +0.000 OA
ATOM      9  C   UNL     1       6.897   5.934  16.141  0.00  0.00    +0.000 C 
BRANCH   9  10
ATOM     10  C   UNL     1       6.602   5.112  14.931  0.00  0.00    +0.000 A 
ATOM     11  C   UNL     1       5.483   4.263  14.963  0.00  0.00    +0.000 A 
ATOM     12  C   UNL     1       5.158   3.472  13.854  0.00  0.00    +0.000 A 
ATOM     13  C   UNL     1       5.942   3.520  12.704  0.00  0.00    +0.000 A 
ATOM     14  C   UNL     1       7.068   4.341  12.664  0.00  0.00    +0.000 A 
ATOM     15  C   UNL     1       7.404   5.114  13.776  0.00  0.00    +0.000 A 
BRANCH  15  16
ATOM     16  O   UNL     1       8.559   5.847  13.730  0.00  0.00    +0.000 OA
ATOM     17  H   UNL     1       9.205   5.492  14.364  0.00  0.00    +0.000 HD
ENDBRANCH  15  16
ENDBRANCH   9  10
ENDBRANCH   1   9
BRANCH   5  18
ATOM     18  C   UNL     1       2.198   5.484  19.839  0.00  0.00    +0.000 C 
BRANCH  18  19
ATOM     19  N   UNL     1       2.182   4.084  19.408  0.00  0.00    +0.000 N 
ATOM     20  C   UNL     1       2.737   3.005  20.189  0.00  0.00    +0.000 C 
ATOM     21  C   UNL     1       2.817   1.860  19.196  0.00  0.00    +0.000 C 
ATOM     22  C   UNL     1       1.665   2.130  18.236  0.00  0.00    +0.000 C 
ATOM     23  C   UNL     1       1.583   3.636  18.240  0.00  0.00    +0.000 C 
ATOM     24  O   UNL     1       1.049   4.318  17.383  0.00  0.00    +0.000 OA
ENDBRANCH  18  19
ENDBRANCH   5  18
TORSDOF 5
ENDMDL
