MODEL 1
REMARK VINA RESULT:      -7.8      0.000      0.000
REMARK  Name = 
REMARK  16 active torsions:
REMARK  status: ('A' for Active; 'I' for Inactive)
REMARK    1  A    between atoms: C_1  and  O_2
REMARK    2  A    between atoms: O_2  and  C_3
REMARK    3  A    between atoms: C_3  and  C_5
REMARK    4  A    between atoms: C_5  and  C_6
REMARK    5  A    between atoms: C_5  and  N_14
REMARK    6  A    between atoms: C_6  and  C_7
REMARK    7  A    between atoms: C_10  and  O_11
REMARK    8  A    between atoms: C_15  and  C_17
REMARK    9  A    between atoms: C_20  and  N_21
REMARK   10  A    between atoms: C_22  and  N_23
REMARK   11  A    between atoms: C_24  and  C_26
REMARK   12  A    between atoms: C_26  and  N_27
REMARK   13  A    between atoms: C_26  and  C_28
REMARK   14  A    between atoms: C_28  and  C_29
REMARK   15  A    between atoms: C_29  and  C_30
REMARK   16  A    between atoms: C_30  and  N_31
REMARK                            x       y       z     vdW  Elec       q    Type
REMARK                         _______ _______ _______ _____ _____    ______ ____
ROOT
ATOM      1  C   UNL     1       2.858   7.477  18.638  0.00  0.00    +0.000 A 
ATOM      2  C   UNL     1       3.101   8.268  17.516  0.00  0.00    +0.000 A 
ATOM      3  C   UNL     1       2.475   9.507  17.395  0.00  0.00    +0.000 A 
ATOM      4  C   UNL     1       1.541   9.962  18.343  0.00  0.00    +0.000 A 
ATOM      5  C   UNL     1       1.245   9.146  19.463  0.00  0.00    +0.000 A 
ATOM      6  C   UNL     1       1.918   7.909  19.594  0.00  0.00    +0.000 A 
ENDROOT
BRANCH   1   8
ATOM      7  N   UNL     1       4.051   5.581  17.659  0.00  0.00    +0.000 N 
ATOM      8  C   UNL     1       3.581   6.174  18.818  0.00  0.00    +0.000 C 
ATOM      9  O   UNL     1       3.751   5.708  19.936  0.00  0.00    +0.000 OA
ATOM     10  H   UNL     1       4.166   6.172  16.844  0.00  0.00    +0.000 HD
BRANCH   7  11
ATOM     11  C   UNL     1       4.823   4.327  17.659  0.00  0.00    +0.000 C 
BRANCH  11  12
ATOM     12  C   UNL     1       5.874   4.189  16.544  0.00  0.00    +0.000 C 
ATOM     13  O   UNL     1       7.081   4.307  16.742  0.00  0.00    +0.000 OA
BRANCH  12  15
ATOM     14  C   UNL     1       6.183   4.146  14.230  0.00  0.00    +0.000 C 
ATOM     15  O   UNL     1       5.327   3.865  15.340  0.00  0.00    +0.000 OA
ENDBRANCH  12  15
ENDBRANCH  11  12
BRANCH  11  16
ATOM     16  C   UNL     1       3.897   3.085  17.611  0.00  0.00    +0.000 C 
BRANCH  16  17
ATOM     17  C   UNL     1       3.061   2.864  18.859  0.00  0.00    +0.000 A 
ATOM     18  C   UNL     1       1.667   3.028  18.833  0.00  0.00    +0.000 A 
ATOM     19  C   UNL     1       0.910   2.889  20.002  0.00  0.00    +0.000 A 
ATOM     20  C   UNL     1       1.551   2.575  21.197  0.00  0.00    +0.000 A 
ATOM     21  C   UNL     1       2.923   2.367  21.233  0.00  0.00    +0.000 A 
ATOM     22  C   UNL     1       3.677   2.506  20.067  0.00  0.00    +0.000 A 
BRANCH  20  23
ATOM     23  O   UNL     1       0.862   2.466  22.369  0.00  0.00    +0.000 OA
ATOM     24  H   UNL     1       1.245   3.082  23.015  0.00  0.00    +0.000 HD
ENDBRANCH  20  23
ENDBRANCH  16  17
ENDBRANCH  11  16
ENDBRANCH   7  11
ENDBRANCH   1   8
BRANCH   5  25
ATOM     25  N   UNL     1       0.323   9.476  20.504  0.00  0.00    +0.000 N 
ATOM     26  C   UNL     1       0.419  10.489  21.445  0.00  0.00    +0.000 C 
ATOM     27  O   UNL     1       1.300  11.348  21.487  0.00  0.00    +0.000 OA
ATOM     28  H   UNL     1      -0.566   8.995  20.465  0.00  0.00    +0.000 HD
BRANCH  26  29
ATOM     29  C   UNL     1      -0.729  10.544  22.484  0.00  0.00    +0.000 C 
BRANCH  29  30
ATOM     30  N   UNL     1      -0.356   9.796  23.699  0.00  0.00    +0.000 NA
ATOM     31  H   UNL     1      -0.874   8.927  23.782  0.00  0.00    +0.000 HD
ATOM     32  H   UNL     1      -0.594  10.361  24.517  0.00  0.00    +0.000 HD
ENDBRANCH  29  30
BRANCH  29  33
ATOM     33  C   UNL     1      -1.177  11.966  22.846  0.00  0.00    +0.000 C 
BRANCH  33  34
ATOM     34  C   UNL     1      -1.463  12.869  21.636  0.00  0.00    +0.000 C 
BRANCH  34  35
ATOM     35  C   UNL     1      -2.573  12.342  20.722  0.00  0.00    +0.000 C 
BRANCH  35  36
ATOM     36  N   UNL     1      -2.244  12.596  19.333  0.00  0.00    +0.000 N 
ATOM     37  C   UNL     1      -2.087  11.631  18.403  0.00  0.00    +0.000 C 
ATOM     38  N   UNL     1      -2.026  10.364  18.576  0.00  0.00    +0.000 NA
ATOM     39  N   UNL     1      -1.964  12.135  17.161  0.00  0.00    +0.000 N 
ATOM     40  H   UNL     1      -2.591  13.472  18.957  0.00  0.00    +0.000 HD
ATOM     41  H   UNL     1      -2.122  10.150  19.569  0.00  0.00    +0.000 HD
ATOM     42  H   UNL     1      -1.339  12.929  17.114  0.00  0.00    +0.000 HD
ATOM     43  H   UNL     1      -1.650  11.397  16.538  0.00  0.00    +0.000 HD
ENDBRANCH  35  36
ENDBRANCH  34  35
ENDBRANCH  33  34
ENDBRANCH  29  33
ENDBRANCH  26  29
ENDBRANCH   5  25
BRANCH   4  44
ATOM     44  N   UNL     1       1.185  11.323  18.258  0.00  0.00    +0.000 N 
ATOM     45  H   UNL     1       0.221  11.505  18.509  0.00  0.00    +0.000 HD
ATOM     46  H   UNL     1       1.796  11.907  18.837  0.00  0.00    +0.000 HD
ENDBRANCH   4  44
TORSDOF 15
ENDMDL
MODEL 2
REMARK VINA RESULT:      -7.8      3.499     10.195
REMARK  Name = 
REMARK  16 active torsions:
REMARK  status: ('A' for Active; 'I' for Inactive)
REMARK    1  A    between atoms: C_1  and  O_2
REMARK    2  A    between atoms: O_2  and  C_3
REMARK    3  A    between atoms: C_3  and  C_5
REMARK    4  A    between atoms: C_5  and  C_6
REMARK    5  A    between atoms: C_5  and  N_14
REMARK    6  A    between atoms: C_6  and  C_7
REMARK    7  A    between atoms: C_10  and  O_11
REMARK    8  A    between atoms: C_15  and  C_17
REMARK    9  A    between atoms: C_20  and  N_21
REMARK   10  A    between atoms: C_22  and  N_23
REMARK   11  A    between atoms: C_24  and  C_26
REMARK   12  A    between atoms: C_26  and  N_27
REMARK   13  A    between atoms: C_26  and  C_28
REMARK   14  A    between atoms: C_28  and  C_29
REMARK   15  A    between atoms: C_29  and  C_30
REMARK   16  A    between atoms: C_30  and  N_31
REMARK                            x       y       z     vdW  Elec       q    Type
REMARK                         _______ _______ _______ _____ _____    ______ ____
ROOT
ATOM      1  C   UNL     1       2.615   7.677  18.514  0.00  0.00    +0.000 A 
ATOM      2  C   UNL     1       2.408   6.938  19.677  0.00  0.00    +0.000 A 
ATOM      3  C   UNL     1       3.036   5.704  19.835  0.00  0.00    +0.000 A 
ATOM      4  C   UNL     1       3.825   5.139  18.816  0.00  0.00    +0.000 A 
ATOM      5  C   UNL     1       4.003   5.854  17.606  0.00  0.00    +0.000 A 
ATOM      6  C   UNL     1       3.393   7.124  17.478  0.00  0.00    +0.000 A 
ENDROOT
BRANCH   1   8
ATOM      7  N   UNL     1       1.123   9.419  19.359  0.00  0.00    +0.000 N 
ATOM      8  C   UNL     1       2.006   9.040  18.362  0.00  0.00    +0.000 C 
ATOM      9  O   UNL     1       2.314   9.756  17.420  0.00  0.00    +0.000 OA
ATOM     10  H   UNL     1       1.181   8.931  20.245  0.00  0.00    +0.000 HD
BRANCH   7  11
ATOM     11  C   UNL     1       0.474  10.740  19.392  0.00  0.00    +0.000 C 
BRANCH  11  12
ATOM     12  C   UNL     1       1.066  11.752  20.387  0.00  0.00    +0.000 C 
ATOM     13  O   UNL     1       0.770  11.773  21.579  0.00  0.00    +0.000 OA
BRANCH  12  15
ATOM     14  C   UNL     1       1.671  13.961  19.933  0.00  0.00    +0.000 C 
ATOM     15  O   UNL     1       1.992  12.572  19.817  0.00  0.00    +0.000 OA
ENDBRANCH  12  15
ENDBRANCH  11  12
BRANCH  11  16
ATOM     16  C   UNL     1      -1.047  10.623  19.664  0.00  0.00    +0.000 C 
BRANCH  16  17
ATOM     17  C   UNL     1      -1.924  10.674  18.426  0.00  0.00    +0.000 A 
ATOM     18  C   UNL     1      -3.084  11.465  18.393  0.00  0.00    +0.000 A 
ATOM     19  C   UNL     1      -3.924  11.455  17.274  0.00  0.00    +0.000 A 
ATOM     20  C   UNL     1      -3.596  10.658  16.181  0.00  0.00    +0.000 A 
ATOM     21  C   UNL     1      -2.432   9.902  16.179  0.00  0.00    +0.000 A 
ATOM     22  C   UNL     1      -1.594   9.912  17.295  0.00  0.00    +0.000 A 
BRANCH  20  23
ATOM     23  O   UNL     1      -4.401  10.586  15.084  0.00  0.00    +0.000 OA
ATOM     24  H   UNL     1      -3.853  10.690  14.288  0.00  0.00    +0.000 HD
ENDBRANCH  20  23
ENDBRANCH  16  17
ENDBRANCH  11  16
ENDBRANCH   7  11
ENDBRANCH   1   8
BRANCH   5  25
ATOM     25  N   UNL     1       4.775   5.408  16.489  0.00  0.00    +0.000 N 
ATOM     26  C   UNL     1       5.956   5.941  15.995  0.00  0.00    +0.000 C 
ATOM     27  O   UNL     1       6.594   6.863  16.503  0.00  0.00    +0.000 OA
ATOM     28  H   UNL     1       4.495   4.521  16.095  0.00  0.00    +0.000 HD
BRANCH  26  29
ATOM     29  C   UNL     1       6.513   5.257  14.722  0.00  0.00    +0.000 C 
BRANCH  29  30
ATOM     30  N   UNL     1       7.987   5.270  14.737  0.00  0.00    +0.000 NA
ATOM     31  H   UNL     1       8.372   5.633  13.871  0.00  0.00    +0.000 HD
ATOM     32  H   UNL     1       8.322   4.309  14.829  0.00  0.00    +0.000 HD
ENDBRANCH  29  30
BRANCH  29  33
ATOM     33  C   UNL     1       5.991   3.832  14.499  0.00  0.00    +0.000 C 
BRANCH  33  34
ATOM     34  C   UNL     1       4.941   3.707  13.384  0.00  0.00    +0.000 C 
BRANCH  34  35
ATOM     35  C   UNL     1       5.538   3.428  12.003  0.00  0.00    +0.000 C 
BRANCH  35  36
ATOM     36  N   UNL     1       5.439   2.016  11.687  0.00  0.00    +0.000 N 
ATOM     37  C   UNL     1       6.489   1.240  11.348  0.00  0.00    +0.000 C 
ATOM     38  N   UNL     1       7.689   1.600  11.082  0.00  0.00    +0.000 NA
ATOM     39  N   UNL     1       6.160  -0.063  11.280  0.00  0.00    +0.000 N 
ATOM     40  H   UNL     1       4.699   1.515  12.165  0.00  0.00    +0.000 HD
ATOM     41  H   UNL     1       7.768   2.613  11.164  0.00  0.00    +0.000 HD
ATOM     42  H   UNL     1       5.287  -0.228  10.794  0.00  0.00    +0.000 HD
ATOM     43  H   UNL     1       6.917  -0.570  10.832  0.00  0.00    +0.000 HD
ENDBRANCH  35  36
ENDBRANCH  34  35
ENDBRANCH  33  34
ENDBRANCH  29  33
ENDBRANCH  26  29
ENDBRANCH   5  25
BRANCH   4  44
ATOM     44  N   UNL     1       4.616   4.032  19.188  0.00  0.00    +0.000 N 
ATOM     45  H   UNL     1       4.912   3.466  18.403  0.00  0.00    +0.000 HD
ATOM     46  H   UNL     1       5.441   4.324  19.719  0.00  0.00    +0.000 HD
ENDBRANCH   4  44
TORSDOF 15
ENDMDL
MODEL 3
REMARK VINA RESULT:      -7.8      1.412      4.022
REMARK  Name = 
REMARK  16 active torsions:
REMARK  status: ('A' for Active; 'I' for Inactive)
REMARK    1  A    between atoms: C_1  and  O_2
REMARK    2  A    between atoms: O_2  and  C_3
REMARK    3  A    between atoms: C_3  and  C_5
REMARK    4  A    between atoms: C_5  and  C_6
REMARK    5  A    between atoms: C_5  and  N_14
REMARK    6  A    between atoms: C_6  and  C_7
REMARK    7  A    between atoms: C_10  and  O_11
REMARK    8  A    between atoms: C_15  and  C_17
REMARK    9  A    between atoms: C_20  and  N_21
REMARK   10  A    between atoms: C_22  and  N_23
REMARK   11  A    between atoms: C_24  and  C_26
REMARK   12  A    between atoms: C_26  and  N_27
REMARK   13  A    between atoms: C_26  and  C_28
REMARK   14  A    between atoms: C_28  and  C_29
REMARK   15  A    between atoms: C_29  and  C_30
REMARK   16  A    between atoms: C_30  and  N_31
REMARK                            x       y       z     vdW  Elec       q    Type
REMARK                         _______ _______ _______ _____ _____    ______ ____
ROOT
ATOM      1  C   UNL     1       1.950   7.661  19.126  0.00  0.00    +0.000 A 
ATOM      2  C   UNL     1       2.395   8.265  17.951  0.00  0.00    +0.000 A 
ATOM      3  C   UNL     1       2.121   9.611  17.718  0.00  0.00    +0.000 A 
ATOM      4  C   UNL     1       1.340  10.373  18.606  0.00  0.00    +0.000 A 
ATOM      5  C   UNL     1       0.836   9.759  19.780  0.00  0.00    +0.000 A 
ATOM      6  C   UNL     1       1.158   8.403  20.023  0.00  0.00    +0.000 A 
ENDROOT
BRANCH   1   8
ATOM      7  N   UNL     1       2.287   5.370  18.343  0.00  0.00    +0.000 N 
ATOM      8  C   UNL     1       2.301   6.233  19.425  0.00  0.00    +0.000 C 
ATOM      9  O   UNL     1       2.602   5.893  20.561  0.00  0.00    +0.000 OA
ATOM     10  H   UNL     1       2.361   5.779  17.418  0.00  0.00    +0.000 HD
BRANCH   7  11
ATOM     11  C   UNL     1       2.654   3.948  18.449  0.00  0.00    +0.000 C 
BRANCH  11  12
ATOM     12  C   UNL     1       1.789   3.103  19.400  0.00  0.00    +0.000 C 
ATOM     13  O   UNL     1       0.596   2.884  19.206  0.00  0.00    +0.000 OA
BRANCH  12  15
ATOM     14  C   UNL     1       1.816   2.651  21.691  0.00  0.00    +0.000 C 
ATOM     15  O   UNL     1       2.501   2.583  20.438  0.00  0.00    +0.000 OA
ENDBRANCH  12  15
ENDBRANCH  11  12
BRANCH  11  16
ATOM     16  C   UNL     1       4.139   3.770  18.854  0.00  0.00    +0.000 C 
BRANCH  16  17
ATOM     17  C   UNL     1       5.144   4.139  17.777  0.00  0.00    +0.000 A 
ATOM     18  C   UNL     1       6.383   4.709  18.109  0.00  0.00    +0.000 A 
ATOM     19  C   UNL     1       7.276   5.110  17.109  0.00  0.00    +0.000 A 
ATOM     20  C   UNL     1       6.930   4.930  15.772  0.00  0.00    +0.000 A 
ATOM     21  C   UNL     1       5.727   4.330  15.426  0.00  0.00    +0.000 A 
ATOM     22  C   UNL     1       4.837   3.930  16.424  0.00  0.00    +0.000 A 
BRANCH  20  23
ATOM     23  O   UNL     1       7.749   5.338  14.762  0.00  0.00    +0.000 OA
ATOM     24  H   UNL     1       7.526   6.255  14.530  0.00  0.00    +0.000 HD
ENDBRANCH  20  23
ENDBRANCH  16  17
ENDBRANCH  11  16
ENDBRANCH   7  11
ENDBRANCH   1   8
BRANCH   5  25
ATOM     25  N   UNL     1       0.034  10.406  20.770  0.00  0.00    +0.000 N 
ATOM     26  C   UNL     1       0.346  11.520  21.534  0.00  0.00    +0.000 C 
ATOM     27  O   UNL     1       1.364  12.203  21.422  0.00  0.00    +0.000 OA
ATOM     28  H   UNL     1      -0.926  10.091  20.824  0.00  0.00    +0.000 HD
BRANCH  26  29
ATOM     29  C   UNL     1      -0.726  11.938  22.571  0.00  0.00    +0.000 C 
BRANCH  29  30
ATOM     30  N   UNL     1      -0.422  13.274  23.112  0.00  0.00    +0.000 NA
ATOM     31  H   UNL     1      -0.615  13.334  24.107  0.00  0.00    +0.000 HD
ATOM     32  H   UNL     1      -1.027  13.959  22.653  0.00  0.00    +0.000 HD
ENDBRANCH  29  30
BRANCH  29  33
ATOM     33  C   UNL     1      -2.164  11.890  22.037  0.00  0.00    +0.000 C 
BRANCH  33  34
ATOM     34  C   UNL     1      -2.691  13.234  21.509  0.00  0.00    +0.000 C 
BRANCH  34  35
ATOM     35  C   UNL     1      -2.523  13.412  19.998  0.00  0.00    +0.000 C 
BRANCH  35  36
ATOM     36  N   UNL     1      -2.815  12.170  19.309  0.00  0.00    +0.000 N 
ATOM     37  C   UNL     1      -2.199  11.769  18.177  0.00  0.00    +0.000 C 
ATOM     38  N   UNL     1      -1.403  12.435  17.427  0.00  0.00    +0.000 NA
ATOM     39  N   UNL     1      -2.522  10.506  17.842  0.00  0.00    +0.000 N 
ATOM     40  H   UNL     1      -3.119  11.406  19.901  0.00  0.00    +0.000 HD
ATOM     41  H   UNL     1      -1.274  13.371  17.812  0.00  0.00    +0.000 HD
ATOM     42  H   UNL     1      -3.512  10.314  17.922  0.00  0.00    +0.000 HD
ATOM     43  H   UNL     1      -2.201  10.327  16.895  0.00  0.00    +0.000 HD
ENDBRANCH  35  36
ENDBRANCH  34  35
ENDBRANCH  33  34
ENDBRANCH  29  33
ENDBRANCH  26  29
ENDBRANCH   5  25
BRANCH   4  44
ATOM     44  N   UNL     1       1.358  11.768  18.405  0.00  0.00    +0.000 N 
ATOM     45  H   UNL     1       0.491  12.134  18.032  0.00  0.00    +0.000 HD
ATOM     46  H   UNL     1       1.586  12.268  19.270  0.00  0.00    +0.000 HD
ENDBRANCH   4  44
TORSDOF 15
ENDMDL
MODEL 4
REMARK VINA RESULT:      -7.7      3.278      9.932
REMARK  Name = 
REMARK  16 active torsions:
REMARK  status: ('A' for Active; 'I' for Inactive)
REMARK    1  A    between atoms: C_1  and  O_2
REMARK    2  A    between atoms: O_2  and  C_3
REMARK    3  A    between atoms: C_3  and  C_5
REMARK    4  A    between atoms: C_5  and  C_6
REMARK    5  A    between atoms: C_5  and  N_14
REMARK    6  A    between atoms: C_6  and  C_7
REMARK    7  A    between atoms: C_10  and  O_11
REMARK    8  A    between atoms: C_15  and  C_17
REMARK    9  A    between atoms: C_20  and  N_21
REMARK   10  A    between atoms: C_22  and  N_23
REMARK   11  A    between atoms: C_24  and  C_26
REMARK   12  A    between atoms: C_26  and  N_27
REMARK   13  A    between atoms: C_26  and  C_28
REMARK   14  A    between atoms: C_28  and  C_29
REMARK   15  A    between atoms: C_29  and  C_30
REMARK   16  A    between atoms: C_30  and  N_31
REMARK                            x       y       z     vdW  Elec       q    Type
REMARK                         _______ _______ _______ _____ _____    ______ ____
ROOT
ATOM      1  C   UNL     1       2.126   6.724  20.096  0.00  0.00    +0.000 A 
ATOM      2  C   UNL     1       1.478   5.608  20.622  0.00  0.00    +0.000 A 
ATOM      3  C   UNL     1       2.021   4.339  20.433  0.00  0.00    +0.000 A 
ATOM      4  C   UNL     1       3.178   4.136  19.659  0.00  0.00    +0.000 A 
ATOM      5  C   UNL     1       3.820   5.255  19.074  0.00  0.00    +0.000 A 
ATOM      6  C   UNL     1       3.280   6.541  19.309  0.00  0.00    +0.000 A 
ENDROOT
BRANCH   1   8
ATOM      7  N   UNL     1       1.384   8.887  19.234  0.00  0.00    +0.000 N 
ATOM      8  C   UNL     1       1.594   8.103  20.355  0.00  0.00    +0.000 C 
ATOM      9  O   UNL     1       1.346   8.469  21.496  0.00  0.00    +0.000 OA
ATOM     10  H   UNL     1       1.291   8.414  18.343  0.00  0.00    +0.000 HD
BRANCH   7  11
ATOM     11  C   UNL     1       0.819  10.246  19.303  0.00  0.00    +0.000 C 
BRANCH  11  12
ATOM     12  C   UNL     1      -0.620  10.400  18.784  0.00  0.00    +0.000 C 
ATOM     13  O   UNL     1      -1.491  11.016  19.393  0.00  0.00    +0.000 OA
BRANCH  12  15
ATOM     14  C   UNL     1      -2.147   9.927  17.082  0.00  0.00    +0.000 C 
ATOM     15  O   UNL     1      -0.802   9.834  17.558  0.00  0.00    +0.000 OA
ENDBRANCH  12  15
ENDBRANCH  11  12
BRANCH  11  16
ATOM     16  C   UNL     1       1.715  11.275  18.567  0.00  0.00    +0.000 C 
BRANCH  16  17
ATOM     17  C   UNL     1       1.729  12.664  19.180  0.00  0.00    +0.000 A 
ATOM     18  C   UNL     1       1.642  12.841  20.570  0.00  0.00    +0.000 A 
ATOM     19  C   UNL     1       1.587  14.125  21.123  0.00  0.00    +0.000 A 
ATOM     20  C   UNL     1       1.628  15.234  20.282  0.00  0.00    +0.000 A 
ATOM     21  C   UNL     1       1.757  15.078  18.909  0.00  0.00    +0.000 A 
ATOM     22  C   UNL     1       1.812  13.797  18.357  0.00  0.00    +0.000 A 
BRANCH  20  23
ATOM     23  O   UNL     1       1.540  16.504  20.771  0.00  0.00    +0.000 OA
ATOM     24  H   UNL     1       1.611  17.128  20.029  0.00  0.00    +0.000 HD
ENDBRANCH  20  23
ENDBRANCH  16  17
ENDBRANCH  11  16
ENDBRANCH   7  11
ENDBRANCH   1   8
BRANCH   5  25
ATOM     25  N   UNL     1       4.998   5.203  18.267  0.00  0.00    +0.000 N 
ATOM     26  C   UNL     1       6.321   5.270  18.677  0.00  0.00    +0.000 C 
ATOM     27  O   UNL     1       6.710   5.303  19.845  0.00  0.00    +0.000 OA
ATOM     28  H   UNL     1       4.850   4.955  17.298  0.00  0.00    +0.000 HD
BRANCH  26  29
ATOM     29  C   UNL     1       7.372   5.246  17.539  0.00  0.00    +0.000 C 
BRANCH  29  30
ATOM     30  N   UNL     1       8.181   4.016  17.614  0.00  0.00    +0.000 NA
ATOM     31  H   UNL     1       7.874   3.406  18.366  0.00  0.00    +0.000 HD
ATOM     32  H   UNL     1       9.149   4.273  17.820  0.00  0.00    +0.000 HD
ENDBRANCH  29  30
BRANCH  29  33
ATOM     33  C   UNL     1       6.777   5.411  16.135  0.00  0.00    +0.000 C 
BRANCH  33  34
ATOM     34  C   UNL     1       6.380   4.092  15.453  0.00  0.00    +0.000 C 
BRANCH  34  35
ATOM     35  C   UNL     1       5.888   4.264  14.014  0.00  0.00    +0.000 C 
BRANCH  35  36
ATOM     36  N   UNL     1       6.296   3.133  13.204  0.00  0.00    +0.000 N 
ATOM     37  C   UNL     1       5.685   2.763  12.059  0.00  0.00    +0.000 C 
ATOM     38  N   UNL     1       4.585   3.197  11.569  0.00  0.00    +0.000 NA
ATOM     39  N   UNL     1       6.363   1.798  11.409  0.00  0.00    +0.000 N 
ATOM     40  H   UNL     1       7.285   2.916  13.227  0.00  0.00    +0.000 HD
ATOM     41  H   UNL     1       4.194   3.910  12.186  0.00  0.00    +0.000 HD
ATOM     42  H   UNL     1       6.687   1.060  12.020  0.00  0.00    +0.000 HD
ATOM     43  H   UNL     1       5.770   1.420  10.676  0.00  0.00    +0.000 HD
ENDBRANCH  35  36
ENDBRANCH  34  35
ENDBRANCH  33  34
ENDBRANCH  29  33
ENDBRANCH  26  29
ENDBRANCH   5  25
BRANCH   4  44
ATOM     44  N   UNL     1       3.776   2.863  19.763  0.00  0.00    +0.000 N 
ATOM     45  H   UNL     1       4.562   2.734  19.137  0.00  0.00    +0.000 HD
ATOM     46  H   UNL     1       4.078   2.669  20.722  0.00  0.00    +0.000 HD
ENDBRANCH   4  44
TORSDOF 15
ENDMDL
MODEL 5
REMARK VINA RESULT:      -7.6      1.105      1.273
REMARK  Name = 
REMARK  16 active torsions:
REMARK  status: ('A' for Active; 'I' for Inactive)
REMARK    1  A    between atoms: C_1  and  O_2
REMARK    2  A    between atoms: O_2  and  C_3
REMARK    3  A    between atoms: C_3  and  C_5
REMARK    4  A    between atoms: C_5  and  C_6
REMARK    5  A    between atoms: C_5  and  N_14
REMARK    6  A    between atoms: C_6  and  C_7
REMARK    7  A    between atoms: C_10  and  O_11
REMARK    8  A    between atoms: C_15  and  C_17
REMARK    9  A    between atoms: C_20  and  N_21
REMARK   10  A    between atoms: C_22  and  N_23
REMARK   11  A    between atoms: C_24  and  C_26
REMARK   12  A    between atoms: C_26  and  N_27
REMARK   13  A    between atoms: C_26  and  C_28
REMARK   14  A    between atoms: C_28  and  C_29
REMARK   15  A    between atoms: C_29  and  C_30
REMARK   16  A    between atoms: C_30  and  N_31
REMARK                            x       y       z     vdW  Elec       q    Type
REMARK                         _______ _______ _______ _____ _____    ______ ____
ROOT
ATOM      1  C   UNL     1       2.676   7.476  18.728  0.00  0.00    +0.000 A 
ATOM      2  C   UNL     1       2.475   8.081  17.489  0.00  0.00    +0.000 A 
ATOM      3  C   UNL     1       1.736   9.260  17.405  0.00  0.00    +0.000 A 
ATOM      4  C   UNL     1       1.118   9.828  18.534  0.00  0.00    +0.000 A 
ATOM      5  C   UNL     1       1.270   9.196  19.793  0.00  0.00    +0.000 A 
ATOM      6  C   UNL     1       2.057   8.024  19.869  0.00  0.00    +0.000 A 
ENDROOT
BRANCH   1   8
ATOM      7  N   UNL     1       3.984   5.716  17.649  0.00  0.00    +0.000 N 
ATOM      8  C   UNL     1       3.532   6.249  18.844  0.00  0.00    +0.000 C 
ATOM      9  O   UNL     1       3.815   5.791  19.942  0.00  0.00    +0.000 OA
ATOM     10  H   UNL     1       3.991   6.324  16.839  0.00  0.00    +0.000 HD
BRANCH   7  11
ATOM     11  C   UNL     1       4.874   4.544  17.582  0.00  0.00    +0.000 C 
BRANCH  11  12
ATOM     12  C   UNL     1       5.886   4.537  16.425  0.00  0.00    +0.000 C 
ATOM     13  O   UNL     1       6.861   5.284  16.382  0.00  0.00    +0.000 OA
BRANCH  12  15
ATOM     14  C   UNL     1       6.018   3.944  14.170  0.00  0.00    +0.000 C 
ATOM     15  O   UNL     1       5.617   3.580  15.494  0.00  0.00    +0.000 OA
ENDBRANCH  12  15
ENDBRANCH  11  12
BRANCH  11  16
ATOM     16  C   UNL     1       4.071   3.219  17.534  0.00  0.00    +0.000 C 
BRANCH  16  17
ATOM     17  C   UNL     1       3.245   2.927  18.774  0.00  0.00    +0.000 A 
ATOM     18  C   UNL     1       1.845   3.029  18.751  0.00  0.00    +0.000 A 
ATOM     19  C   UNL     1       1.094   2.825  19.914  0.00  0.00    +0.000 A 
ATOM     20  C   UNL     1       1.748   2.510  21.102  0.00  0.00    +0.000 A 
ATOM     21  C   UNL     1       3.128   2.363  21.135  0.00  0.00    +0.000 A 
ATOM     22  C   UNL     1       3.876   2.567  19.974  0.00  0.00    +0.000 A 
BRANCH  20  23
ATOM     23  O   UNL     1       1.065   2.338  22.269  0.00  0.00    +0.000 OA
ATOM     24  H   UNL     1       0.118   2.256  22.067  0.00  0.00    +0.000 HD
ENDBRANCH  20  23
ENDBRANCH  16  17
ENDBRANCH  11  16
ENDBRANCH   7  11
ENDBRANCH   1   8
BRANCH   5  25
ATOM     25  N   UNL     1       0.703   9.657  21.022  0.00  0.00    +0.000 N 
ATOM     26  C   UNL     1      -0.306   9.075  21.773  0.00  0.00    +0.000 C 
ATOM     27  O   UNL     1      -0.837   7.989  21.540  0.00  0.00    +0.000 OA
ATOM     28  H   UNL     1       1.187  10.429  21.460  0.00  0.00    +0.000 HD
BRANCH  26  29
ATOM     29  C   UNL     1      -0.737   9.864  23.034  0.00  0.00    +0.000 C 
BRANCH  29  30
ATOM     30  N   UNL     1       0.194   9.601  24.146  0.00  0.00    +0.000 NA
ATOM     31  H   UNL     1       0.810  10.389  24.318  0.00  0.00    +0.000 HD
ATOM     32  H   UNL     1       0.790   8.810  23.894  0.00  0.00    +0.000 HD
ENDBRANCH  29  30
BRANCH  29  33
ATOM     33  C   UNL     1      -0.888  11.374  22.805  0.00  0.00    +0.000 C 
BRANCH  33  34
ATOM     34  C   UNL     1      -2.175  11.979  23.388  0.00  0.00    +0.000 C 
BRANCH  34  35
ATOM     35  C   UNL     1      -3.181  12.428  22.326  0.00  0.00    +0.000 C 
BRANCH  35  36
ATOM     36  N   UNL     1      -2.605  12.304  21.001  0.00  0.00    +0.000 N 
ATOM     37  C   UNL     1      -3.235  12.666  19.864  0.00  0.00    +0.000 C 
ATOM     38  N   UNL     1      -4.459  13.011  19.709  0.00  0.00    +0.000 NA
ATOM     39  N   UNL     1      -2.422  12.618  18.793  0.00  0.00    +0.000 N 
ATOM     40  H   UNL     1      -1.597  12.395  20.955  0.00  0.00    +0.000 HD
ATOM     41  H   UNL     1      -4.938  12.983  20.610  0.00  0.00    +0.000 HD
ATOM     42  H   UNL     1      -1.856  11.780  18.761  0.00  0.00    +0.000 HD
ATOM     43  H   UNL     1      -2.984  12.700  17.951  0.00  0.00    +0.000 HD
ENDBRANCH  35  36
ENDBRANCH  34  35
ENDBRANCH  33  34
ENDBRANCH  29  33
ENDBRANCH  26  29
ENDBRANCH   5  25
BRANCH   4  44
ATOM     44  N   UNL     1       0.634  11.143  18.377  0.00  0.00    +0.000 N 
ATOM     45  H   UNL     1      -0.293  11.186  17.970  0.00  0.00    +0.000 HD
ATOM     46  H   UNL     1       0.630  11.649  19.267  0.00  0.00    +0.000 HD
ENDBRANCH   4  44
TORSDOF 15
ENDMDL
MODEL 6
REMARK VINA RESULT:      -7.5      3.307     10.122
REMARK  Name = 
REMARK  16 active torsions:
REMARK  status: ('A' for Active; 'I' for Inactive)
REMARK    1  A    between atoms: C_1  and  O_2
REMARK    2  A    between atoms: O_2  and  C_3
REMARK    3  A    between atoms: C_3  and  C_5
REMARK    4  A    between atoms: C_5  and  C_6
REMARK    5  A    between atoms: C_5  and  N_14
REMARK    6  A    between atoms: C_6  and  C_7
REMARK    7  A    between atoms: C_10  and  O_11
REMARK    8  A    between atoms: C_15  and  C_17
REMARK    9  A    between atoms: C_20  and  N_21
REMARK   10  A    between atoms: C_22  and  N_23
REMARK   11  A    between atoms: C_24  and  C_26
REMARK   12  A    between atoms: C_26  and  N_27
REMARK   13  A    between atoms: C_26  and  C_28
REMARK   14  A    between atoms: C_28  and  C_29
REMARK   15  A    between atoms: C_29  and  C_30
REMARK   16  A    between atoms: C_30  and  N_31
REMARK                            x       y       z     vdW  Elec       q    Type
REMARK                         _______ _______ _______ _____ _____    ______ ____
ROOT
ATOM      1  C   UNL     1       1.916   6.733  20.189  0.00  0.00    +0.000 A 
ATOM      2  C   UNL     1       1.323   5.664  20.857  0.00  0.00    +0.000 A 
ATOM      3  C   UNL     1       1.781   4.367  20.634  0.00  0.00    +0.000 A 
ATOM      4  C   UNL     1       2.788   4.089  19.691  0.00  0.00    +0.000 A 
ATOM      5  C   UNL     1       3.365   5.160  18.965  0.00  0.00    +0.000 A 
ATOM      6  C   UNL     1       2.918   6.475  19.233  0.00  0.00    +0.000 A 
ENDROOT
BRANCH   1   8
ATOM      7  N   UNL     1       1.423   8.986  19.381  0.00  0.00    +0.000 N 
ATOM      8  C   UNL     1       1.484   8.141  20.475  0.00  0.00    +0.000 C 
ATOM      9  O   UNL     1       1.184   8.479  21.612  0.00  0.00    +0.000 OA
ATOM     10  H   UNL     1       1.357   8.560  18.464  0.00  0.00    +0.000 HD
BRANCH   7  11
ATOM     11  C   UNL     1       0.971  10.385  19.475  0.00  0.00    +0.000 C 
BRANCH  11  12
ATOM     12  C   UNL     1      -0.494  10.642  19.084  0.00  0.00    +0.000 C 
ATOM     13  O   UNL     1      -1.054  10.059  18.159  0.00  0.00    +0.000 OA
BRANCH  12  15
ATOM     14  C   UNL     1      -0.953  11.230  21.296  0.00  0.00    +0.000 C 
ATOM     15  O   UNL     1      -1.111  11.534  19.908  0.00  0.00    +0.000 OA
ENDBRANCH  12  15
ENDBRANCH  11  12
BRANCH  11  16
ATOM     16  C   UNL     1       1.871  11.333  18.642  0.00  0.00    +0.000 C 
BRANCH  16  17
ATOM     17  C   UNL     1       1.956  12.755  19.166  0.00  0.00    +0.000 A 
ATOM     18  C   UNL     1       1.739  13.852  18.317  0.00  0.00    +0.000 A 
ATOM     19  C   UNL     1       1.887  15.161  18.789  0.00  0.00    +0.000 A 
ATOM     20  C   UNL     1       2.243  15.371  20.118  0.00  0.00    +0.000 A 
ATOM     21  C   UNL     1       2.420  14.300  20.983  0.00  0.00    +0.000 A 
ATOM     22  C   UNL     1       2.273  12.995  20.511  0.00  0.00    +0.000 A 
BRANCH  20  23
ATOM     23  O   UNL     1       2.435  16.626  20.616  0.00  0.00    +0.000 OA
ATOM     24  H   UNL     1       2.589  17.235  19.875  0.00  0.00    +0.000 HD
ENDBRANCH  20  23
ENDBRANCH  16  17
ENDBRANCH  11  16
ENDBRANCH   7  11
ENDBRANCH   1   8
BRANCH   5  25
ATOM     25  N   UNL     1       4.393   5.031  17.981  0.00  0.00    +0.000 N 
ATOM     26  C   UNL     1       5.697   4.591  18.155  0.00  0.00    +0.000 C 
ATOM     27  O   UNL     1       6.171   4.149  19.202  0.00  0.00    +0.000 OA
ATOM     28  H   UNL     1       4.094   5.149  17.022  0.00  0.00    +0.000 HD
BRANCH  26  29
ATOM     29  C   UNL     1       6.586   4.626  16.887  0.00  0.00    +0.000 C 
BRANCH  29  30
ATOM     30  N   UNL     1       7.975   4.267  17.225  0.00  0.00    +0.000 NA
ATOM     31  H   UNL     1       8.084   4.066  18.214  0.00  0.00    +0.000 HD
ATOM     32  H   UNL     1       8.579   5.066  17.019  0.00  0.00    +0.000 HD
ENDBRANCH  29  30
BRANCH  29  33
ATOM     33  C   UNL     1       6.070   3.751  15.737  0.00  0.00    +0.000 C 
BRANCH  33  34
ATOM     34  C   UNL     1       5.603   4.537  14.502  0.00  0.00    +0.000 C 
BRANCH  34  35
ATOM     35  C   UNL     1       6.535   4.401  13.295  0.00  0.00    +0.000 C 
BRANCH  35  36
ATOM     36  N   UNL     1       6.487   3.050  12.771  0.00  0.00    +0.000 N 
ATOM     37  C   UNL     1       5.560   2.609  11.895  0.00  0.00    +0.000 C 
ATOM     38  N   UNL     1       4.495   3.202  11.501  0.00  0.00    +0.000 NA
ATOM     39  N   UNL     1       5.841   1.378  11.431  0.00  0.00    +0.000 N 
ATOM     40  H   UNL     1       7.384   2.585  12.684  0.00  0.00    +0.000 HD
ATOM     41  H   UNL     1       4.423   4.113  11.954  0.00  0.00    +0.000 HD
ATOM     42  H   UNL     1       6.133   0.736  12.157  0.00  0.00    +0.000 HD
ATOM     43  H   UNL     1       5.026   1.017  10.944  0.00  0.00    +0.000 HD
ENDBRANCH  35  36
ENDBRANCH  34  35
ENDBRANCH  33  34
ENDBRANCH  29  33
ENDBRANCH  26  29
ENDBRANCH   5  25
BRANCH   4  44
ATOM     44  N   UNL     1       3.349   2.797  19.747  0.00  0.00    +0.000 N 
ATOM     45  H   UNL     1       4.361   2.793  19.708  0.00  0.00    +0.000 HD
ATOM     46  H   UNL     1       3.046   2.294  20.586  0.00  0.00    +0.000 HD
ENDBRANCH   4  44
TORSDOF 15
ENDMDL
MODEL 7
REMARK VINA RESULT:      -7.5      1.371      1.970
REMARK  Name = 
REMARK  16 active torsions:
REMARK  status: ('A' for Active; 'I' for Inactive)
REMARK    1  A    between atoms: C_1  and  O_2
REMARK    2  A    between atoms: O_2  and  C_3
REMARK    3  A    between atoms: C_3  and  C_5
REMARK    4  A    between atoms: C_5  and  C_6
REMARK    5  A    between atoms: C_5  and  N_14
REMARK    6  A    between atoms: C_6  and  C_7
REMARK    7  A    between atoms: C_10  and  O_11
REMARK    8  A    between atoms: C_15  and  C_17
REMARK    9  A    between atoms: C_20  and  N_21
REMARK   10  A    between atoms: C_22  and  N_23
REMARK   11  A    between atoms: C_24  and  C_26
REMARK   12  A    between atoms: C_26  and  N_27
REMARK   13  A    between atoms: C_26  and  C_28
REMARK   14  A    between atoms: C_28  and  C_29
REMARK   15  A    between atoms: C_29  and  C_30
REMARK   16  A    between atoms: C_30  and  N_31
REMARK                            x       y       z     vdW  Elec       q    Type
REMARK                         _______ _______ _______ _____ _____    ______ ____
ROOT
ATOM      1  C   UNL     1       2.753   7.390  18.640  0.00  0.00    +0.000 A 
ATOM      2  C   UNL     1       2.786   8.187  17.497  0.00  0.00    +0.000 A 
ATOM      3  C   UNL     1       2.047   9.368  17.455  0.00  0.00    +0.000 A 
ATOM      4  C   UNL     1       1.202   9.751  18.512  0.00  0.00    +0.000 A 
ATOM      5  C   UNL     1       1.117   8.924  19.660  0.00  0.00    +0.000 A 
ATOM      6  C   UNL     1       1.904   7.750  19.705  0.00  0.00    +0.000 A 
ENDROOT
BRANCH   1   8
ATOM      7  N   UNL     1       3.819   5.488  17.535  0.00  0.00    +0.000 N 
ATOM      8  C   UNL     1       3.601   6.155  18.728  0.00  0.00    +0.000 C 
ATOM      9  O   UNL     1       4.076   5.804  19.799  0.00  0.00    +0.000 OA
ATOM     10  H   UNL     1       3.684   6.009  16.677  0.00  0.00    +0.000 HD
BRANCH   7  11
ATOM     11  C   UNL     1       4.668   4.288  17.433  0.00  0.00    +0.000 C 
BRANCH  11  12
ATOM     12  C   UNL     1       5.577   4.215  16.195  0.00  0.00    +0.000 C 
ATOM     13  O   UNL     1       5.145   4.099  15.051  0.00  0.00    +0.000 OA
BRANCH  12  15
ATOM     14  C   UNL     1       7.267   5.690  16.843  0.00  0.00    +0.000 C 
ATOM     15  O   UNL     1       6.897   4.352  16.501  0.00  0.00    +0.000 OA
ENDBRANCH  12  15
ENDBRANCH  11  12
BRANCH  11  16
ATOM     16  C   UNL     1       3.828   2.987  17.499  0.00  0.00    +0.000 C 
BRANCH  16  17
ATOM     17  C   UNL     1       3.017   2.814  18.770  0.00  0.00    +0.000 A 
ATOM     18  C   UNL     1       1.621   2.965  18.764  0.00  0.00    +0.000 A 
ATOM     19  C   UNL     1       0.887   2.871  19.951  0.00  0.00    +0.000 A 
ATOM     20  C   UNL     1       1.553   2.615  21.147  0.00  0.00    +0.000 A 
ATOM     21  C   UNL     1       2.927   2.420  21.166  0.00  0.00    +0.000 A 
ATOM     22  C   UNL     1       3.659   2.514  19.981  0.00  0.00    +0.000 A 
BRANCH  20  23
ATOM     23  O   UNL     1       0.887   2.551  22.335  0.00  0.00    +0.000 OA
ATOM     24  H   UNL     1       0.234   1.833  22.288  0.00  0.00    +0.000 HD
ENDBRANCH  20  23
ENDBRANCH  16  17
ENDBRANCH  11  16
ENDBRANCH   7  11
ENDBRANCH   1   8
BRANCH   5  25
ATOM     25  N   UNL     1       0.305   9.185  20.807  0.00  0.00    +0.000 N 
ATOM     26  C   UNL     1       0.369  10.264  21.674  0.00  0.00    +0.000 C 
ATOM     27  O   UNL     1       1.102  11.245  21.547  0.00  0.00    +0.000 OA
ATOM     28  H   UNL     1      -0.494   8.576  20.920  0.00  0.00    +0.000 HD
BRANCH  26  29
ATOM     29  C   UNL     1      -0.620  10.220  22.866  0.00  0.00    +0.000 C 
BRANCH  29  30
ATOM     30  N   UNL     1       0.033   9.637  24.052  0.00  0.00    +0.000 NA
ATOM     31  H   UNL     1       0.288   8.666  23.905  0.00  0.00    +0.000 HD
ATOM     32  H   UNL     1      -0.629   9.653  24.831  0.00  0.00    +0.000 HD
ENDBRANCH  29  30
BRANCH  29  33
ATOM     33  C   UNL     1      -1.246  11.578  23.210  0.00  0.00    +0.000 C 
BRANCH  33  34
ATOM     34  C   UNL     1      -2.268  12.085  22.181  0.00  0.00    +0.000 C 
BRANCH  34  35
ATOM     35  C   UNL     1      -1.786  13.294  21.376  0.00  0.00    +0.000 C 
BRANCH  35  36
ATOM     36  N   UNL     1      -0.512  13.763  21.886  0.00  0.00    +0.000 N 
ATOM     37  C   UNL     1       0.230  14.726  21.301  0.00  0.00    +0.000 C 
ATOM     38  N   UNL     1       0.063  15.271  20.154  0.00  0.00    +0.000 NA
ATOM     39  N   UNL     1       1.274  15.100  22.064  0.00  0.00    +0.000 N 
ATOM     40  H   UNL     1      -0.405  13.722  22.893  0.00  0.00    +0.000 HD
ATOM     41  H   UNL     1      -0.758  14.867  19.701  0.00  0.00    +0.000 HD
ATOM     42  H   UNL     1       1.769  14.318  22.472  0.00  0.00    +0.000 HD
ATOM     43  H   UNL     1       1.903  15.667  21.503  0.00  0.00    +0.000 HD
ENDBRANCH  35  36
ENDBRANCH  34  35
ENDBRANCH  33  34
ENDBRANCH  29  33
ENDBRANCH  26  29
ENDBRANCH   5  25
BRANCH   4  44
ATOM     44  N   UNL     1       0.723  11.076  18.472  0.00  0.00    +0.000 N 
ATOM     45  H   UNL     1       1.142  11.635  17.739  0.00  0.00    +0.000 HD
ATOM     46  H   UNL     1      -0.295  11.103  18.371  0.00  0.00    +0.000 HD
ENDBRANCH   4  44
TORSDOF 15
ENDMDL
MODEL 8
REMARK VINA RESULT:      -7.5      2.639      4.678
REMARK  Name = 
REMARK  16 active torsions:
REMARK  status: ('A' for Active; 'I' for Inactive)
REMARK    1  A    between atoms: C_1  and  O_2
REMARK    2  A    between atoms: O_2  and  C_3
REMARK    3  A    between atoms: C_3  and  C_5
REMARK    4  A    between atoms: C_5  and  C_6
REMARK    5  A    between atoms: C_5  and  N_14
REMARK    6  A    between atoms: C_6  and  C_7
REMARK    7  A    between atoms: C_10  and  O_11
REMARK    8  A    between atoms: C_15  and  C_17
REMARK    9  A    between atoms: C_20  and  N_21
REMARK   10  A    between atoms: C_22  and  N_23
REMARK   11  A    between atoms: C_24  and  C_26
REMARK   12  A    between atoms: C_26  and  N_27
REMARK   13  A    between atoms: C_26  and  C_28
REMARK   14  A    between atoms: C_28  and  C_29
REMARK   15  A    between atoms: C_29  and  C_30
REMARK   16  A    between atoms: C_30  and  N_31
REMARK                            x       y       z     vdW  Elec       q    Type
REMARK                         _______ _______ _______ _____ _____    ______ ____
ROOT
ATOM      1  C   UNL     1       2.001   7.416  19.136  0.00  0.00    +0.000 A 
ATOM      2  C   UNL     1       2.235   7.957  17.873  0.00  0.00    +0.000 A 
ATOM      3  C   UNL     1       2.038   9.319  17.657  0.00  0.00    +0.000 A 
ATOM      4  C   UNL     1       1.537  10.165  18.663  0.00  0.00    +0.000 A 
ATOM      5  C   UNL     1       1.244   9.619  19.938  0.00  0.00    +0.000 A 
ATOM      6  C   UNL     1       1.489   8.243  20.154  0.00  0.00    +0.000 A 
ENDROOT
BRANCH   1   8
ATOM      7  N   UNL     1       2.249   5.133  18.299  0.00  0.00    +0.000 N 
ATOM      8  C   UNL     1       2.280   5.966  19.404  0.00  0.00    +0.000 C 
ATOM      9  O   UNL     1       2.542   5.583  20.535  0.00  0.00    +0.000 OA
ATOM     10  H   UNL     1       2.359   5.561  17.387  0.00  0.00    +0.000 HD
BRANCH   7  11
ATOM     11  C   UNL     1       2.548   3.692  18.374  0.00  0.00    +0.000 C 
BRANCH  11  12
ATOM     12  C   UNL     1       1.690   2.882  19.361  0.00  0.00    +0.000 C 
ATOM     13  O   UNL     1       0.521   2.576  19.139  0.00  0.00    +0.000 OA
BRANCH  12  15
ATOM     14  C   UNL     1       1.604   2.522  21.666  0.00  0.00    +0.000 C 
ATOM     15  O   UNL     1       2.383   2.494  20.467  0.00  0.00    +0.000 OA
ENDBRANCH  12  15
ENDBRANCH  11  12
BRANCH  11  16
ATOM     16  C   UNL     1       4.041   3.435  18.702  0.00  0.00    +0.000 C 
BRANCH  16  17
ATOM     17  C   UNL     1       5.009   4.435  18.096  0.00  0.00    +0.000 A 
ATOM     18  C   UNL     1       5.090   4.611  16.705  0.00  0.00    +0.000 A 
ATOM     19  C   UNL     1       6.032   5.484  16.149  0.00  0.00    +0.000 A 
ATOM     20  C   UNL     1       6.889   6.189  16.990  0.00  0.00    +0.000 A 
ATOM     21  C   UNL     1       6.795   6.060  18.369  0.00  0.00    +0.000 A 
ATOM     22  C   UNL     1       5.855   5.189  18.922  0.00  0.00    +0.000 A 
BRANCH  20  23
ATOM     23  O   UNL     1       7.847   7.023  16.495  0.00  0.00    +0.000 OA
ATOM     24  H   UNL     1       8.630   6.496  16.263  0.00  0.00    +0.000 HD
ENDBRANCH  20  23
ENDBRANCH  16  17
ENDBRANCH  11  16
ENDBRANCH   7  11
ENDBRANCH   1   8
BRANCH   5  25
ATOM     25  N   UNL     1       0.733  10.353  21.052  0.00  0.00    +0.000 N 
ATOM     26  C   UNL     1      -0.368  11.195  21.093  0.00  0.00    +0.000 C 
ATOM     27  O   UNL     1      -1.157  11.389  20.168  0.00  0.00    +0.000 OA
ATOM     28  H   UNL     1       1.146  10.127  21.947  0.00  0.00    +0.000 HD
BRANCH  26  29
ATOM     29  C   UNL     1      -0.622  11.893  22.452  0.00  0.00    +0.000 C 
BRANCH  29  30
ATOM     30  N   UNL     1      -0.628  13.357  22.282  0.00  0.00    +0.000 NA
ATOM     31  H   UNL     1      -0.275  13.835  23.105  0.00  0.00    +0.000 HD
ATOM     32  H   UNL     1      -1.594  13.668  22.152  0.00  0.00    +0.000 HD
ENDBRANCH  29  30
BRANCH  29  33
ATOM     33  C   UNL     1      -1.901  11.430  23.162  0.00  0.00    +0.000 C 
BRANCH  33  34
ATOM     34  C   UNL     1      -3.052  12.448  23.126  0.00  0.00    +0.000 C 
BRANCH  34  35
ATOM     35  C   UNL     1      -3.956  12.401  24.360  0.00  0.00    +0.000 C 
BRANCH  35  36
ATOM     36  N   UNL     1      -4.977  13.428  24.276  0.00  0.00    +0.000 N 
ATOM     37  C   UNL     1      -6.286  13.178  24.066  0.00  0.00    +0.000 C 
ATOM     38  N   UNL     1      -6.842  12.070  23.745  0.00  0.00    +0.000 NA
ATOM     39  N   UNL     1      -7.045  14.280  24.210  0.00  0.00    +0.000 N 
ATOM     40  H   UNL     1      -4.804  14.259  24.830  0.00  0.00    +0.000 HD
ATOM     41  H   UNL     1      -6.131  11.342  23.663  0.00  0.00    +0.000 HD
ATOM     42  H   UNL     1      -6.651  15.096  23.758  0.00  0.00    +0.000 HD
ATOM     43  H   UNL     1      -7.974  14.087  23.849  0.00  0.00    +0.000 HD
ENDBRANCH  35  36
ENDBRANCH  34  35
ENDBRANCH  33  34
ENDBRANCH  29  33
ENDBRANCH  26  29
ENDBRANCH   5  25
BRANCH   4  44
ATOM     44  N   UNL     1       1.635  11.549  18.414  0.00  0.00    +0.000 N 
ATOM     45  H   UNL     1       1.338  12.122  19.195  0.00  0.00    +0.000 HD
ATOM     46  H   UNL     1       2.588  11.815  18.149  0.00  0.00    +0.000 HD
ENDBRANCH   4  44
TORSDOF 15
ENDMDL
MODEL 9
REMARK VINA RESULT:      -7.5      3.720      5.094
REMARK  Name = 
REMARK  16 active torsions:
REMARK  status: ('A' for Active; 'I' for Inactive)
REMARK    1  A    between atoms: C_1  and  O_2
REMARK    2  A    between atoms: O_2  and  C_3
REMARK    3  A    between atoms: C_3  and  C_5
REMARK    4  A    between atoms: C_5  and  C_6
REMARK    5  A    between atoms: C_5  and  N_14
REMARK    6  A    between atoms: C_6  and  C_7
REMARK    7  A    between atoms: C_10  and  O_11
REMARK    8  A    between atoms: C_15  and  C_17
REMARK    9  A    between atoms: C_20  and  N_21
REMARK   10  A    between atoms: C_22  and  N_23
REMARK   11  A    between atoms: C_24  and  C_26
REMARK   12  A    between atoms: C_26  and  N_27
REMARK   13  A    between atoms: C_26  and  C_28
REMARK   14  A    between atoms: C_28  and  C_29
REMARK   15  A    between atoms: C_29  and  C_30
REMARK   16  A    between atoms: C_30  and  N_31
REMARK                            x       y       z     vdW  Elec       q    Type
REMARK                         _______ _______ _______ _____ _____    ______ ____
ROOT
ATOM      1  C   UNL     1       1.101   9.548  19.132  0.00  0.00    +0.000 A 
ATOM      2  C   UNL     1       1.372  10.669  19.913  0.00  0.00    +0.000 A 
ATOM      3  C   UNL     1       0.585  11.812  19.780  0.00  0.00    +0.000 A 
ATOM      4  C   UNL     1      -0.442  11.898  18.823  0.00  0.00    +0.000 A 
ATOM      5  C   UNL     1      -0.696  10.784  17.985  0.00  0.00    +0.000 A 
ATOM      6  C   UNL     1       0.084   9.617  18.159  0.00  0.00    +0.000 A 
ENDROOT
BRANCH   1   8
ATOM      7  N   UNL     1       2.467   7.763  18.171  0.00  0.00    +0.000 N 
ATOM      8  C   UNL     1       1.891   8.286  19.316  0.00  0.00    +0.000 C 
ATOM      9  O   UNL     1       2.021   7.791  20.427  0.00  0.00    +0.000 OA
ATOM     10  H   UNL     1       2.595   8.390  17.385  0.00  0.00    +0.000 HD
BRANCH   7  11
ATOM     11  C   UNL     1       3.316   6.559  18.180  0.00  0.00    +0.000 C 
BRANCH  11  12
ATOM     12  C   UNL     1       4.539   6.596  17.248  0.00  0.00    +0.000 C 
ATOM     13  O   UNL     1       5.371   7.500  17.268  0.00  0.00    +0.000 OA
BRANCH  12  15
ATOM     14  C   UNL     1       5.551   5.648  15.370  0.00  0.00    +0.000 C 
ATOM     15  O   UNL     1       4.627   5.496  16.450  0.00  0.00    +0.000 OA
ENDBRANCH  12  15
ENDBRANCH  11  12
BRANCH  11  16
ATOM     16  C   UNL     1       2.498   5.282  17.861  0.00  0.00    +0.000 C 
BRANCH  16  17
ATOM     17  C   UNL     1       2.178   4.412  19.063  0.00  0.00    +0.000 A 
ATOM     18  C   UNL     1       1.105   3.507  19.034  0.00  0.00    +0.000 A 
ATOM     19  C   UNL     1       0.773   2.757  20.168  0.00  0.00    +0.000 A 
ATOM     20  C   UNL     1       1.524   2.907  21.330  0.00  0.00    +0.000 A 
ATOM     21  C   UNL     1       2.615   3.766  21.364  0.00  0.00    +0.000 A 
ATOM     22  C   UNL     1       2.945   4.514  20.233  0.00  0.00    +0.000 A 
BRANCH  20  23
ATOM     23  O   UNL     1       1.218   2.227  22.471  0.00  0.00    +0.000 OA
ATOM     24  H   UNL     1       0.989   1.312  22.237  0.00  0.00    +0.000 HD
ENDBRANCH  20  23
ENDBRANCH  16  17
ENDBRANCH  11  16
ENDBRANCH   7  11
ENDBRANCH   1   8
BRANCH   5  25
ATOM     25  N   UNL     1      -1.703  10.725  16.972  0.00  0.00    +0.000 N 
ATOM     26  C   UNL     1      -2.898  10.023  16.991  0.00  0.00    +0.000 C 
ATOM     27  O   UNL     1      -3.339   9.382  17.946  0.00  0.00    +0.000 OA
ATOM     28  H   UNL     1      -1.589  11.378  16.209  0.00  0.00    +0.000 HD
BRANCH  26  29
ATOM     29  C   UNL     1      -3.748  10.121  15.700  0.00  0.00    +0.000 C 
BRANCH  29  30
ATOM     30  N   UNL     1      -4.809  11.131  15.860  0.00  0.00    +0.000 NA
ATOM     31  H   UNL     1      -5.525  10.829  16.513  0.00  0.00    +0.000 HD
ATOM     32  H   UNL     1      -5.271  11.266  14.958  0.00  0.00    +0.000 HD
ENDBRANCH  29  30
BRANCH  29  33
ATOM     33  C   UNL     1      -2.929  10.398  14.432  0.00  0.00    +0.000 C 
BRANCH  33  34
ATOM     34  C   UNL     1      -3.224   9.444  13.264  0.00  0.00    +0.000 C 
BRANCH  34  35
ATOM     35  C   UNL     1      -4.261   9.983  12.275  0.00  0.00    +0.000 C 
BRANCH  35  36
ATOM     36  N   UNL     1      -5.546   9.349  12.498  0.00  0.00    +0.000 N 
ATOM     37  C   UNL     1      -6.617   9.505  11.692  0.00  0.00    +0.000 C 
ATOM     38  N   UNL     1      -6.768  10.327  10.721  0.00  0.00    +0.000 NA
ATOM     39  N   UNL     1      -7.625   8.674  12.017  0.00  0.00    +0.000 N 
ATOM     40  H   UNL     1      -5.513   8.449  12.961  0.00  0.00    +0.000 HD
ATOM     41  H   UNL     1      -5.924  10.890  10.616  0.00  0.00    +0.000 HD
ATOM     42  H   UNL     1      -7.799   8.630  13.013  0.00  0.00    +0.000 HD
ATOM     43  H   UNL     1      -8.463   8.967  11.522  0.00  0.00    +0.000 HD
ENDBRANCH  35  36
ENDBRANCH  34  35
ENDBRANCH  33  34
ENDBRANCH  29  33
ENDBRANCH  26  29
ENDBRANCH   5  25
BRANCH   4  44
ATOM     44  N   UNL     1      -1.330  12.983  18.964  0.00  0.00    +0.000 N 
ATOM     45  H   UNL     1      -2.189  12.742  19.445  0.00  0.00    +0.000 HD
ATOM     46  H   UNL     1      -0.887  13.769  19.448  0.00  0.00    +0.000 HD
ENDBRANCH   4  44
TORSDOF 15
ENDMDL
