MODEL 1
REMARK VINA RESULT:      -7.6      0.000      0.000
REMARK  Name = 
REMARK  8 active torsions:
REMARK  status: ('A' for Active; 'I' for Inactive)
REMARK    1  A    between atoms: C_2  and  C_3
REMARK    2  A    between atoms: C_3  and  N_4
REMARK    3  A    between atoms: N_4  and  C_5
REMARK    4  A    between atoms: C_5  and  C_6
REMARK    5  A    between atoms: C_11  and  O_12
REMARK    6  A    between atoms: O_12  and  C_13
REMARK    7  A    between atoms: C_13  and  C_14
REMARK    8  A    between atoms: C_15  and  C_17
REMARK                            x       y       z     vdW  Elec       q    Type
REMARK                         _______ _______ _______ _____ _____    ______ ____
ROOT
ATOM      1  N   UNL     1       2.788   5.012  19.195  0.00  0.00    +0.000 N 
ATOM      2  C   UNL     1       3.919   4.600  18.512  0.00  0.00    +0.000 C 
ATOM      3  O   UNL     1       3.940   3.515  17.916  0.00  0.00    +0.000 OA
ENDROOT
BRANCH   2   4
ATOM      4  C   UNL     1       5.194   5.431  18.384  0.00  0.00    +0.000 A 
ATOM      5  C   UNL     1       5.501   6.369  17.476  0.00  0.00    +0.000 A 
ATOM      6  C   UNL     1       6.821   6.942  17.380  0.00  0.00    +0.000 A 
ATOM      7  C   UNL     1       7.778   6.597  18.245  0.00  0.00    +0.000 A 
ATOM      8  C   UNL     1       7.462   5.603  19.298  0.00  0.00    +0.000 A 
ATOM      9  O   UNL     1       8.314   5.273  20.113  0.00  0.00    +0.000 OA
ATOM     10  N   UNL     1       6.198   5.074  19.275  0.00  0.00    +0.000 N 
ATOM     11  H   UNL     1       5.989   4.336  19.942  0.00  0.00    +0.000 HD
ENDBRANCH   2   4
BRANCH   1  12
ATOM     12  C   UNL     1       1.586   4.179  19.049  0.00  0.00    +0.000 C 
BRANCH  12  14
ATOM     13  C   UNL     1       1.418   3.074  21.376  0.00  0.00    +0.000 C 
ATOM     14  C   UNL     1       1.476   3.046  20.037  0.00  0.00    +0.000 C 
ENDBRANCH  12  14
ENDBRANCH   1  12
BRANCH   1  15
ATOM     15  C   UNL     1       2.622   6.189  20.078  0.00  0.00    +0.000 C 
BRANCH  15  16
ATOM     16  C   UNL     1       1.986   7.424  19.433  0.00  0.00    +0.000 A 
ATOM     17  C   UNL     1       2.196   7.717  18.068  0.00  0.00    +0.000 A 
ATOM     18  C   UNL     1       1.993   9.003  17.561  0.00  0.00    +0.000 A 
ATOM     19  C   UNL     1       1.525  10.009  18.393  0.00  0.00    +0.000 A 
ATOM     20  C   UNL     1       1.195   9.710  19.712  0.00  0.00    +0.000 A 
ATOM     21  C   UNL     1       1.379   8.418  20.232  0.00  0.00    +0.000 A 
BRANCH  21  22
ATOM     22  O   UNL     1       1.015   8.092  21.522  0.00  0.00    +0.000 OA
BRANCH  22  23
ATOM     23  C   UNL     1       1.103   9.196  22.442  0.00  0.00    +0.000 C 
ATOM     24  C   UNL     1      -0.239   9.459  23.099  0.00  0.00    +0.000 C 
ENDBRANCH  22  23
ENDBRANCH  21  22
ENDBRANCH  15  16
ENDBRANCH   1  15
TORSDOF 7
ENDMDL
MODEL 2
REMARK VINA RESULT:      -7.5      3.409      5.320
REMARK  Name = 
REMARK  8 active torsions:
REMARK  status: ('A' for Active; 'I' for Inactive)
REMARK    1  A    between atoms: C_2  and  C_3
REMARK    2  A    between atoms: C_3  and  N_4
REMARK    3  A    between atoms: N_4  and  C_5
REMARK    4  A    between atoms: C_5  and  C_6
REMARK    5  A    between atoms: C_11  and  O_12
REMARK    6  A    between atoms: O_12  and  C_13
REMARK    7  A    between atoms: C_13  and  C_14
REMARK    8  A    between atoms: C_15  and  C_17
REMARK                            x       y       z     vdW  Elec       q    Type
REMARK                         _______ _______ _______ _____ _____    ______ ____
ROOT
ATOM      1  N   UNL     1       5.818   4.446  17.152  0.00  0.00    +0.000 N 
ATOM      2  C   UNL     1       6.913   4.428  16.306  0.00  0.00    +0.000 C 
ATOM      3  O   UNL     1       8.064   4.376  16.759  0.00  0.00    +0.000 OA
ENDROOT
BRANCH   2   4
ATOM      4  C   UNL     1       6.820   4.421  14.781  0.00  0.00    +0.000 A 
ATOM      5  C   UNL     1       6.121   3.600  13.983  0.00  0.00    +0.000 A 
ATOM      6  C   UNL     1       6.275   3.608  12.550  0.00  0.00    +0.000 A 
ATOM      7  C   UNL     1       7.085   4.489  11.957  0.00  0.00    +0.000 A 
ATOM      8  C   UNL     1       7.834   5.449  12.801  0.00  0.00    +0.000 A 
ATOM      9  O   UNL     1       8.577   6.275  12.287  0.00  0.00    +0.000 OA
ATOM     10  N   UNL     1       7.665   5.329  14.155  0.00  0.00    +0.000 N 
ATOM     11  H   UNL     1       8.229   5.929  14.751  0.00  0.00    +0.000 HD
ENDBRANCH   2   4
BRANCH   1  12
ATOM     12  C   UNL     1       6.083   4.247  18.583  0.00  0.00    +0.000 C 
BRANCH  12  14
ATOM     13  C   UNL     1       7.806   5.868  19.618  0.00  0.00    +0.000 C 
ATOM     14  C   UNL     1       6.560   5.476  19.315  0.00  0.00    +0.000 C 
ENDBRANCH  12  14
ENDBRANCH   1  12
BRANCH   1  15
ATOM     15  C   UNL     1       4.392   4.652  16.809  0.00  0.00    +0.000 C 
BRANCH  15  16
ATOM     16  C   UNL     1       3.376   4.100  17.813  0.00  0.00    +0.000 A 
ATOM     17  C   UNL     1       2.926   2.764  17.728  0.00  0.00    +0.000 A 
ATOM     18  C   UNL     1       1.735   2.359  18.335  0.00  0.00    +0.000 A 
ATOM     19  C   UNL     1       0.998   3.263  19.085  0.00  0.00    +0.000 A 
ATOM     20  C   UNL     1       1.488   4.550  19.283  0.00  0.00    +0.000 A 
ATOM     21  C   UNL     1       2.692   4.969  18.692  0.00  0.00    +0.000 A 
BRANCH  21  22
ATOM     22  O   UNL     1       3.216   6.225  18.914  0.00  0.00    +0.000 OA
BRANCH  22  23
ATOM     23  C   UNL     1       2.234   7.196  19.323  0.00  0.00    +0.000 C 
ATOM     24  C   UNL     1       2.175   8.350  18.340  0.00  0.00    +0.000 C 
ENDBRANCH  22  23
ENDBRANCH  21  22
ENDBRANCH  15  16
ENDBRANCH   1  15
TORSDOF 7
ENDMDL
MODEL 3
REMARK VINA RESULT:      -7.5      2.323      6.539
REMARK  Name = 
REMARK  8 active torsions:
REMARK  status: ('A' for Active; 'I' for Inactive)
REMARK    1  A    between atoms: C_2  and  C_3
REMARK    2  A    between atoms: C_3  and  N_4
REMARK    3  A    between atoms: N_4  and  C_5
REMARK    4  A    between atoms: C_5  and  C_6
REMARK    5  A    between atoms: C_11  and  O_12
REMARK    6  A    between atoms: O_12  and  C_13
REMARK    7  A    between atoms: C_13  and  C_14
REMARK    8  A    between atoms: C_15  and  C_17
REMARK                            x       y       z     vdW  Elec       q    Type
REMARK                         _______ _______ _______ _____ _____    ______ ____
ROOT
ATOM      1  N   UNL     1       2.952   6.730  18.551  0.00  0.00    +0.000 N 
ATOM      2  C   UNL     1       2.262   6.427  19.711  0.00  0.00    +0.000 C 
ATOM      3  O   UNL     1       1.800   7.324  20.428  0.00  0.00    +0.000 OA
ENDROOT
BRANCH   2   4
ATOM      4  C   UNL     1       1.965   5.005  20.186  0.00  0.00    +0.000 A 
ATOM      5  C   UNL     1       2.370   4.389  21.306  0.00  0.00    +0.000 A 
ATOM      6  C   UNL     1       2.152   2.982  21.530  0.00  0.00    +0.000 A 
ATOM      7  C   UNL     1       1.474   2.248  20.644  0.00  0.00    +0.000 A 
ATOM      8  C   UNL     1       0.963   2.905  19.417  0.00  0.00    +0.000 A 
ATOM      9  O   UNL     1       0.329   2.262  18.590  0.00  0.00    +0.000 OA
ATOM     10  N   UNL     1       1.267   4.233  19.267  0.00  0.00    +0.000 N 
ATOM     11  H   UNL     1       0.990   4.679  18.397  0.00  0.00    +0.000 HD
ENDBRANCH   2   4
BRANCH   1  12
ATOM     12  C   UNL     1       2.973   8.142  18.143  0.00  0.00    +0.000 C 
BRANCH  12  14
ATOM     13  C   UNL     1       0.971   9.769  18.044  0.00  0.00    +0.000 C 
ATOM     14  C   UNL     1       1.651   8.680  17.658  0.00  0.00    +0.000 C 
ENDBRANCH  12  14
ENDBRANCH   1  12
BRANCH   1  15
ATOM     15  C   UNL     1       3.694   5.816  17.654  0.00  0.00    +0.000 C 
BRANCH  15  16
ATOM     16  C   UNL     1       5.203   5.717  17.898  0.00  0.00    +0.000 A 
ATOM     17  C   UNL     1       5.708   5.276  19.141  0.00  0.00    +0.000 A 
ATOM     18  C   UNL     1       7.017   5.561  19.535  0.00  0.00    +0.000 A 
ATOM     19  C   UNL     1       7.866   6.243  18.677  0.00  0.00    +0.000 A 
ATOM     20  C   UNL     1       7.426   6.578  17.400  0.00  0.00    +0.000 A 
ATOM     21  C   UNL     1       6.116   6.285  16.982  0.00  0.00    +0.000 A 
BRANCH  21  22
ATOM     22  O   UNL     1       5.677   6.567  15.706  0.00  0.00    +0.000 OA
BRANCH  22  23
ATOM     23  C   UNL     1       5.543   5.402  14.871  0.00  0.00    +0.000 C 
ATOM     24  C   UNL     1       6.900   4.799  14.562  0.00  0.00    +0.000 C 
ENDBRANCH  22  23
ENDBRANCH  21  22
ENDBRANCH  15  16
ENDBRANCH   1  15
TORSDOF 7
ENDMDL
MODEL 4
REMARK VINA RESULT:      -7.5      3.410      5.633
REMARK  Name = 
REMARK  8 active torsions:
REMARK  status: ('A' for Active; 'I' for Inactive)
REMARK    1  A    between atoms: C_2  and  C_3
REMARK    2  A    between atoms: C_3  and  N_4
REMARK    3  A    between atoms: N_4  and  C_5
REMARK    4  A    between atoms: C_5  and  C_6
REMARK    5  A    between atoms: C_11  and  O_12
REMARK    6  A    between atoms: O_12  and  C_13
REMARK    7  A    between atoms: C_13  and  C_14
REMARK    8  A    between atoms: C_15  and  C_17
REMARK                            x       y       z     vdW  Elec       q    Type
REMARK                         _______ _______ _______ _____ _____    ______ ____
ROOT
ATOM      1  N   UNL     1       5.819   4.975  17.088  0.00  0.00    +0.000 N 
ATOM      2  C   UNL     1       6.859   4.525  16.295  0.00  0.00    +0.000 C 
ATOM      3  O   UNL     1       7.885   4.052  16.802  0.00  0.00    +0.000 OA
ENDROOT
BRANCH   2   4
ATOM      4  C   UNL     1       6.834   4.519  14.768  0.00  0.00    +0.000 A 
ATOM      5  C   UNL     1       6.148   3.718  13.940  0.00  0.00    +0.000 A 
ATOM      6  C   UNL     1       6.365   3.720  12.515  0.00  0.00    +0.000 A 
ATOM      7  C   UNL     1       7.225   4.576  11.958  0.00  0.00    +0.000 A 
ATOM      8  C   UNL     1       7.964   5.515  12.834  0.00  0.00    +0.000 A 
ATOM      9  O   UNL     1       8.751   6.320  12.354  0.00  0.00    +0.000 OA
ATOM     10  N   UNL     1       7.731   5.402  14.180  0.00  0.00    +0.000 N 
ATOM     11  H   UNL     1       8.285   5.986  14.801  0.00  0.00    +0.000 HD
ENDBRANCH   2   4
BRANCH   1  12
ATOM     12  C   UNL     1       5.930   4.724  18.532  0.00  0.00    +0.000 C 
BRANCH  12  14
ATOM     13  C   UNL     1       7.956   6.189  19.175  0.00  0.00    +0.000 C 
ATOM     14  C   UNL     1       6.687   5.776  19.302  0.00  0.00    +0.000 C 
ENDBRANCH  12  14
ENDBRANCH   1  12
BRANCH   1  15
ATOM     15  C   UNL     1       4.593   5.698  16.678  0.00  0.00    +0.000 C 
BRANCH  15  16
ATOM     16  C   UNL     1       3.452   5.713  17.698  0.00  0.00    +0.000 A 
ATOM     17  C   UNL     1       3.192   6.862  18.477  0.00  0.00    +0.000 A 
ATOM     18  C   UNL     1       2.465   6.784  19.667  0.00  0.00    +0.000 A 
ATOM     19  C   UNL     1       1.936   5.569  20.077  0.00  0.00    +0.000 A 
ATOM     20  C   UNL     1       2.075   4.450  19.261  0.00  0.00    +0.000 A 
ATOM     21  C   UNL     1       2.791   4.516  18.053  0.00  0.00    +0.000 A 
BRANCH  21  22
ATOM     22  O   UNL     1       2.901   3.430  17.211  0.00  0.00    +0.000 OA
BRANCH  22  23
ATOM     23  C   UNL     1       2.439   2.198  17.794  0.00  0.00    +0.000 C 
ATOM     24  C   UNL     1       3.598   1.401  18.360  0.00  0.00    +0.000 C 
ENDBRANCH  22  23
ENDBRANCH  21  22
ENDBRANCH  15  16
ENDBRANCH   1  15
TORSDOF 7
ENDMDL
MODEL 5
REMARK VINA RESULT:      -7.4      1.125      1.201
REMARK  Name = 
REMARK  8 active torsions:
REMARK  status: ('A' for Active; 'I' for Inactive)
REMARK    1  A    between atoms: C_2  and  C_3
REMARK    2  A    between atoms: C_3  and  N_4
REMARK    3  A    between atoms: N_4  and  C_5
REMARK    4  A    between atoms: C_5  and  C_6
REMARK    5  A    between atoms: C_11  and  O_12
REMARK    6  A    between atoms: O_12  and  C_13
REMARK    7  A    between atoms: C_13  and  C_14
REMARK    8  A    between atoms: C_15  and  C_17
REMARK                            x       y       z     vdW  Elec       q    Type
REMARK                         _______ _______ _______ _____ _____    ______ ____
ROOT
ATOM      1  N   UNL     1       2.624   4.840  19.283  0.00  0.00    +0.000 N 
ATOM      2  C   UNL     1       3.364   4.119  18.363  0.00  0.00    +0.000 C 
ATOM      3  O   UNL     1       3.041   2.965  18.053  0.00  0.00    +0.000 OA
ENDROOT
BRANCH   2   4
ATOM      4  C   UNL     1       4.584   4.667  17.624  0.00  0.00    +0.000 A 
ATOM      5  C   UNL     1       4.638   5.321  16.455  0.00  0.00    +0.000 A 
ATOM      6  C   UNL     1       5.886   5.620  15.800  0.00  0.00    +0.000 A 
ATOM      7  C   UNL     1       7.050   5.306  16.373  0.00  0.00    +0.000 A 
ATOM      8  C   UNL     1       7.034   4.630  17.692  0.00  0.00    +0.000 A 
ATOM      9  O   UNL     1       8.084   4.338  18.250  0.00  0.00    +0.000 OA
ATOM     10  N   UNL     1       5.800   4.338  18.211  0.00  0.00    +0.000 N 
ATOM     11  H   UNL     1       5.771   3.808  19.078  0.00  0.00    +0.000 HD
ENDBRANCH   2   4
BRANCH   1  12
ATOM     12  C   UNL     1       1.369   4.231  19.747  0.00  0.00    +0.000 C 
BRANCH  12  14
ATOM     13  C   UNL     1       1.860   2.494  21.592  0.00  0.00    +0.000 C 
ATOM     14  C   UNL     1       1.414   3.677  21.148  0.00  0.00    +0.000 C 
ENDBRANCH  12  14
ENDBRANCH   1  12
BRANCH   1  15
ATOM     15  C   UNL     1       2.931   6.158  19.884  0.00  0.00    +0.000 C 
BRANCH  15  16
ATOM     16  C   UNL     1       2.210   7.360  19.267  0.00  0.00    +0.000 A 
ATOM     17  C   UNL     1       2.488   7.770  17.944  0.00  0.00    +0.000 A 
ATOM     18  C   UNL     1       2.179   9.059  17.504  0.00  0.00    +0.000 A 
ATOM     19  C   UNL     1       1.538   9.947  18.355  0.00  0.00    +0.000 A 
ATOM     20  C   UNL     1       1.145   9.521  19.620  0.00  0.00    +0.000 A 
ATOM     21  C   UNL     1       1.435   8.222  20.073  0.00  0.00    +0.000 A 
BRANCH  21  22
ATOM     22  O   UNL     1       1.013   7.768  21.305  0.00  0.00    +0.000 OA
BRANCH  22  23
ATOM     23  C   UNL     1      -0.179   8.419  21.782  0.00  0.00    +0.000 C 
ATOM     24  C   UNL     1       0.128   9.297  22.980  0.00  0.00    +0.000 C 
ENDBRANCH  22  23
ENDBRANCH  21  22
ENDBRANCH  15  16
ENDBRANCH   1  15
TORSDOF 7
ENDMDL
MODEL 6
REMARK VINA RESULT:      -7.4      1.310      1.510
REMARK  Name = 
REMARK  8 active torsions:
REMARK  status: ('A' for Active; 'I' for Inactive)
REMARK    1  A    between atoms: C_2  and  C_3
REMARK    2  A    between atoms: C_3  and  N_4
REMARK    3  A    between atoms: N_4  and  C_5
REMARK    4  A    between atoms: C_5  and  C_6
REMARK    5  A    between atoms: C_11  and  O_12
REMARK    6  A    between atoms: O_12  and  C_13
REMARK    7  A    between atoms: C_13  and  C_14
REMARK    8  A    between atoms: C_15  and  C_17
REMARK                            x       y       z     vdW  Elec       q    Type
REMARK                         _______ _______ _______ _____ _____    ______ ____
ROOT
ATOM      1  N   UNL     1       2.868   4.742  19.387  0.00  0.00    +0.000 N 
ATOM      2  C   UNL     1       3.902   4.129  18.702  0.00  0.00    +0.000 C 
ATOM      3  O   UNL     1       3.774   2.982  18.254  0.00  0.00    +0.000 OA
ENDROOT
BRANCH   2   4
ATOM      4  C   UNL     1       5.242   4.796  18.394  0.00  0.00    +0.000 A 
ATOM      5  C   UNL     1       6.184   5.226  19.245  0.00  0.00    +0.000 A 
ATOM      6  C   UNL     1       7.320   5.998  18.807  0.00  0.00    +0.000 A 
ATOM      7  C   UNL     1       7.507   6.259  17.511  0.00  0.00    +0.000 A 
ATOM      8  C   UNL     1       6.515   5.753  16.532  0.00  0.00    +0.000 A 
ATOM      9  O   UNL     1       6.663   5.967  15.336  0.00  0.00    +0.000 OA
ATOM     10  N   UNL     1       5.441   5.077  17.049  0.00  0.00    +0.000 N 
ATOM     11  H   UNL     1       4.714   4.790  16.399  0.00  0.00    +0.000 HD
ENDBRANCH   2   4
BRANCH   1  12
ATOM     12  C   UNL     1       1.582   4.031  19.418  0.00  0.00    +0.000 C 
BRANCH  12  14
ATOM     13  C   UNL     1       1.598   2.637  21.591  0.00  0.00    +0.000 C 
ATOM     14  C   UNL     1       1.128   3.604  20.791  0.00  0.00    +0.000 C 
ENDBRANCH  12  14
ENDBRANCH   1  12
BRANCH   1  15
ATOM     15  C   UNL     1       2.881   6.032  20.114  0.00  0.00    +0.000 C 
BRANCH  15  16
ATOM     16  C   UNL     1       2.200   7.206  19.405  0.00  0.00    +0.000 A 
ATOM     17  C   UNL     1       2.411   7.441  18.029  0.00  0.00    +0.000 A 
ATOM     18  C   UNL     1       2.159   8.691  17.458  0.00  0.00    +0.000 A 
ATOM     19  C   UNL     1       1.643   9.716  18.237  0.00  0.00    +0.000 A 
ATOM     20  C   UNL     1       1.313   9.469  19.566  0.00  0.00    +0.000 A 
ATOM     21  C   UNL     1       1.545   8.212  20.150  0.00  0.00    +0.000 A 
BRANCH  21  22
ATOM     22  O   UNL     1       1.183   7.934  21.451  0.00  0.00    +0.000 OA
BRANCH  22  23
ATOM     23  C   UNL     1       1.194   9.088  22.312  0.00  0.00    +0.000 C 
ATOM     24  C   UNL     1      -0.174   9.319  22.925  0.00  0.00    +0.000 C 
ENDBRANCH  22  23
ENDBRANCH  21  22
ENDBRANCH  15  16
ENDBRANCH   1  15
TORSDOF 7
ENDMDL
MODEL 7
REMARK VINA RESULT:      -7.3      3.271      5.512
REMARK  Name = 
REMARK  8 active torsions:
REMARK  status: ('A' for Active; 'I' for Inactive)
REMARK    1  A    between atoms: C_2  and  C_3
REMARK    2  A    between atoms: C_3  and  N_4
REMARK    3  A    between atoms: N_4  and  C_5
REMARK    4  A    between atoms: C_5  and  C_6
REMARK    5  A    between atoms: C_11  and  O_12
REMARK    6  A    between atoms: O_12  and  C_13
REMARK    7  A    between atoms: C_13  and  C_14
REMARK    8  A    between atoms: C_15  and  C_17
REMARK                            x       y       z     vdW  Elec       q    Type
REMARK                         _______ _______ _______ _____ _____    ______ ____
ROOT
ATOM      1  N   UNL     1       5.732   4.416  15.131  0.00  0.00    +0.000 N 
ATOM      2  C   UNL     1       6.899   5.139  15.304  0.00  0.00    +0.000 C 
ATOM      3  O   UNL     1       7.582   5.485  14.331  0.00  0.00    +0.000 OA
ENDROOT
BRANCH   2   4
ATOM      4  C   UNL     1       7.424   5.611  16.659  0.00  0.00    +0.000 A 
ATOM      5  C   UNL     1       7.628   4.900  17.778  0.00  0.00    +0.000 A 
ATOM      6  C   UNL     1       7.960   5.525  19.034  0.00  0.00    +0.000 A 
ATOM      7  C   UNL     1       8.141   6.846  19.112  0.00  0.00    +0.000 A 
ATOM      8  C   UNL     1       7.977   7.660  17.884  0.00  0.00    +0.000 A 
ATOM      9  O   UNL     1       8.146   8.872  17.920  0.00  0.00    +0.000 OA
ATOM     10  N   UNL     1       7.607   6.985  16.751  0.00  0.00    +0.000 N 
ATOM     11  H   UNL     1       7.417   7.537  15.919  0.00  0.00    +0.000 HD
ENDBRANCH   2   4
BRANCH   1  12
ATOM     12  C   UNL     1       5.274   4.219  13.748  0.00  0.00    +0.000 C 
BRANCH  12  14
ATOM     13  C   UNL     1       5.794   2.639  11.774  0.00  0.00    +0.000 C 
ATOM     14  C   UNL     1       6.065   3.209  12.957  0.00  0.00    +0.000 C 
ENDBRANCH  12  14
ENDBRANCH   1  12
BRANCH   1  15
ATOM     15  C   UNL     1       4.872   3.794  16.163  0.00  0.00    +0.000 C 
BRANCH  15  16
ATOM     16  C   UNL     1       3.874   4.727  16.855  0.00  0.00    +0.000 A 
ATOM     17  C   UNL     1       4.201   6.078  17.104  0.00  0.00    +0.000 A 
ATOM     18  C   UNL     1       3.519   6.824  18.068  0.00  0.00    +0.000 A 
ATOM     19  C   UNL     1       2.463   6.255  18.765  0.00  0.00    +0.000 A 
ATOM     20  C   UNL     1       2.047   4.966  18.446  0.00  0.00    +0.000 A 
ATOM     21  C   UNL     1       2.712   4.209  17.467  0.00  0.00    +0.000 A 
BRANCH  21  22
ATOM     22  O   UNL     1       2.286   2.948  17.106  0.00  0.00    +0.000 OA
BRANCH  22  23
ATOM     23  C   UNL     1       2.178   2.036  18.215  0.00  0.00    +0.000 C 
ATOM     24  C   UNL     1       3.540   1.498  18.607  0.00  0.00    +0.000 C 
ENDBRANCH  22  23
ENDBRANCH  21  22
ENDBRANCH  15  16
ENDBRANCH   1  15
TORSDOF 7
ENDMDL
MODEL 8
REMARK VINA RESULT:      -7.2      3.318      5.070
REMARK  Name = 
REMARK  8 active torsions:
REMARK  status: ('A' for Active; 'I' for Inactive)
REMARK    1  A    between atoms: C_2  and  C_3
REMARK    2  A    between atoms: C_3  and  N_4
REMARK    3  A    between atoms: N_4  and  C_5
REMARK    4  A    between atoms: C_5  and  C_6
REMARK    5  A    between atoms: C_11  and  O_12
REMARK    6  A    between atoms: O_12  and  C_13
REMARK    7  A    between atoms: C_13  and  C_14
REMARK    8  A    between atoms: C_15  and  C_17
REMARK                            x       y       z     vdW  Elec       q    Type
REMARK                         _______ _______ _______ _____ _____    ______ ____
ROOT
ATOM      1  N   UNL     1       5.716   4.357  17.176  0.00  0.00    +0.000 N 
ATOM      2  C   UNL     1       6.823   4.452  16.351  0.00  0.00    +0.000 C 
ATOM      3  O   UNL     1       7.963   4.540  16.827  0.00  0.00    +0.000 OA
ENDROOT
BRANCH   2   4
ATOM      4  C   UNL     1       6.763   4.411  14.825  0.00  0.00    +0.000 A 
ATOM      5  C   UNL     1       6.097   3.560  14.031  0.00  0.00    +0.000 A 
ATOM      6  C   UNL     1       6.282   3.541  12.601  0.00  0.00    +0.000 A 
ATOM      7  C   UNL     1       7.087   4.424  12.006  0.00  0.00    +0.000 A 
ATOM      8  C   UNL     1       7.799   5.417  12.845  0.00  0.00    +0.000 A 
ATOM      9  O   UNL     1       8.536   6.247  12.329  0.00  0.00    +0.000 OA
ATOM     10  N   UNL     1       7.603   5.322  14.198  0.00  0.00    +0.000 N 
ATOM     11  H   UNL     1       8.142   5.946  14.793  0.00  0.00    +0.000 HD
ENDBRANCH   2   4
BRANCH   1  12
ATOM     12  C   UNL     1       5.973   4.212  18.616  0.00  0.00    +0.000 C 
BRANCH  12  14
ATOM     13  C   UNL     1       7.696   5.780  19.729  0.00  0.00    +0.000 C 
ATOM     14  C   UNL     1       6.466   5.462  19.300  0.00  0.00    +0.000 C 
ENDBRANCH  12  14
ENDBRANCH   1  12
BRANCH   1  15
ATOM     15  C   UNL     1       4.284   4.392  16.803  0.00  0.00    +0.000 C 
BRANCH  15  16
ATOM     16  C   UNL     1       3.411   5.373  17.591  0.00  0.00    +0.000 A 
ATOM     17  C   UNL     1       3.458   6.759  17.324  0.00  0.00    +0.000 A 
ATOM     18  C   UNL     1       3.015   7.695  18.262  0.00  0.00    +0.000 A 
ATOM     19  C   UNL     1       2.466   7.267  19.461  0.00  0.00    +0.000 A 
ATOM     20  C   UNL     1       2.298   5.905  19.691  0.00  0.00    +0.000 A 
ATOM     21  C   UNL     1       2.724   4.951  18.751  0.00  0.00    +0.000 A 
BRANCH  21  22
ATOM     22  O   UNL     1       2.524   3.600  18.940  0.00  0.00    +0.000 OA
BRANCH  22  23
ATOM     23  C   UNL     1       1.206   3.273  19.421  0.00  0.00    +0.000 C 
ATOM     24  C   UNL     1       1.268   2.718  20.831  0.00  0.00    +0.000 C 
ENDBRANCH  22  23
ENDBRANCH  21  22
ENDBRANCH  15  16
ENDBRANCH   1  15
TORSDOF 7
ENDMDL
MODEL 9
REMARK VINA RESULT:      -7.0      2.379      6.550
REMARK  Name = 
REMARK  8 active torsions:
REMARK  status: ('A' for Active; 'I' for Inactive)
REMARK    1  A    between atoms: C_2  and  C_3
REMARK    2  A    between atoms: C_3  and  N_4
REMARK    3  A    between atoms: N_4  and  C_5
REMARK    4  A    between atoms: C_5  and  C_6
REMARK    5  A    between atoms: C_11  and  O_12
REMARK    6  A    between atoms: O_12  and  C_13
REMARK    7  A    between atoms: C_13  and  C_14
REMARK    8  A    between atoms: C_15  and  C_17
REMARK                            x       y       z     vdW  Elec       q    Type
REMARK                         _______ _______ _______ _____ _____    ______ ____
ROOT
ATOM      1  N   UNL     1       2.964   6.868  18.342  0.00  0.00    +0.000 N 
ATOM      2  C   UNL     1       2.231   6.310  19.374  0.00  0.00    +0.000 C 
ATOM      3  O   UNL     1       1.728   7.022  20.253  0.00  0.00    +0.000 OA
ENDROOT
BRANCH   2   4
ATOM      4  C   UNL     1       1.933   4.817  19.506  0.00  0.00    +0.000 A 
ATOM      5  C   UNL     1       1.510   3.956  18.570  0.00  0.00    +0.000 A 
ATOM      6  C   UNL     1       1.103   2.611  18.892  0.00  0.00    +0.000 A 
ATOM      7  C   UNL     1       1.195   2.152  20.142  0.00  0.00    +0.000 A 
ATOM      8  C   UNL     1       1.710   3.057  21.197  0.00  0.00    +0.000 A 
ATOM      9  O   UNL     1       1.816   2.663  22.351  0.00  0.00    +0.000 OA
ATOM     10  N   UNL     1       2.020   4.333  20.805  0.00  0.00    +0.000 N 
ATOM     11  H   UNL     1       2.302   4.988  21.529  0.00  0.00    +0.000 HD
ENDBRANCH   2   4
BRANCH   1  12
ATOM     12  C   UNL     1       2.983   8.335  18.261  0.00  0.00    +0.000 C 
BRANCH  12  14
ATOM     13  C   UNL     1       0.830   9.758  18.199  0.00  0.00    +0.000 C 
ATOM     14  C   UNL     1       1.750   8.952  17.651  0.00  0.00    +0.000 C 
ENDBRANCH  12  14
ENDBRANCH   1  12
BRANCH   1  15
ATOM     15  C   UNL     1       3.755   6.180  17.296  0.00  0.00    +0.000 C 
BRANCH  15  16
ATOM     16  C   UNL     1       5.170   5.754  17.699  0.00  0.00    +0.000 A 
ATOM     17  C   UNL     1       5.481   5.458  19.045  0.00  0.00    +0.000 A 
ATOM     18  C   UNL     1       6.800   5.475  19.506  0.00  0.00    +0.000 A 
ATOM     19  C   UNL     1       7.839   5.735  18.624  0.00  0.00    +0.000 A 
ATOM     20  C   UNL     1       7.563   5.907  17.271  0.00  0.00    +0.000 A 
ATOM     21  C   UNL     1       6.243   5.877  16.789  0.00  0.00    +0.000 A 
BRANCH  21  22
ATOM     22  O   UNL     1       5.954   5.999  15.446  0.00  0.00    +0.000 OA
BRANCH  22  23
ATOM     23  C   UNL     1       6.661   5.059  14.616  0.00  0.00    +0.000 C 
ATOM     24  C   UNL     1       5.705   4.050  14.009  0.00  0.00    +0.000 C 
ENDBRANCH  22  23
ENDBRANCH  21  22
ENDBRANCH  15  16
ENDBRANCH   1  15
TORSDOF 7
ENDMDL
