MODEL 1
REMARK VINA RESULT:      -8.0      0.000      0.000
REMARK  Name = 
REMARK  7 active torsions:
REMARK  status: ('A' for Active; 'I' for Inactive)
REMARK    1  A    between atoms: C_1  and  C_2
REMARK    2  A    between atoms: C_4  and  C_5
REMARK    3  A    between atoms: N_9  and  C_10
REMARK    4  A    between atoms: C_10  and  C_11
REMARK    5  A    between atoms: C_11  and  C_12
REMARK    6  A    between atoms: C_12  and  S_13
REMARK    7  A    between atoms: S_13  and  C_16
REMARK                            x       y       z     vdW  Elec       q    Type
REMARK                         _______ _______ _______ _____ _____    ______ ____
ROOT
ATOM      1  C   UNL     1       5.408   5.848  16.630  0.00  0.00    +0.000 C 
ATOM      2  C   UNL     1       6.297   6.895  17.309  0.00  0.00    +0.000 C 
ATOM      3  C   UNL     1       7.271   6.292  18.313  0.00  0.00    +0.000 C 
ATOM      4  C   UNL     1       6.567   5.349  19.288  0.00  0.00    +0.000 C 
ATOM      5  N   UNL     1       5.911   4.242  18.572  0.00  0.00    +0.000 NA
ATOM      6  C   UNL     1       4.916   4.773  17.612  0.00  0.00    +0.000 C 
ENDROOT
BRANCH   1  10
ATOM      7  C   UNL     1       6.599   3.403  12.254  0.00  0.00    +0.000 C 
ATOM      8  C   UNL     1       6.485   4.244  13.465  0.00  0.00    +0.000 A 
ATOM      9  C   UNL     1       5.457   4.471  14.357  0.00  0.00    +0.000 A 
ATOM     10  C   UNL     1       6.008   5.314  15.354  0.00  0.00    +0.000 A 
ATOM     11  N   UNL     1       7.276   5.640  15.062  0.00  0.00    +0.000 NA
ATOM     12  N   UNL     1       7.536   4.982  13.927  0.00  0.00    +0.000 N 
ATOM     13  H   UNL     1       8.467   5.071  13.526  0.00  0.00    +0.000 HD
ENDBRANCH   1  10
BRANCH   5  14
ATOM     14  C   UNL     1       5.274   3.309  19.530  0.00  0.00    +0.000 C 
BRANCH  14  15
ATOM     15  C   UNL     1       4.171   2.463  18.881  0.00  0.00    +0.000 C 
BRANCH  15  16
ATOM     16  C   UNL     1       2.900   2.378  19.718  0.00  0.00    +0.000 C 
BRANCH  16  17
ATOM     17  S   UNL     1       1.555   3.170  18.840  0.00  0.00    +0.000 S 
ATOM     18  O   UNL     1       1.779   3.008  17.410  0.00  0.00    +0.000 OA
ATOM     19  O   UNL     1       0.310   2.738  19.445  0.00  0.00    +0.000 OA
BRANCH  17  20
ATOM     20  C   UNL     1       1.738   4.901  19.190  0.00  0.00    +0.000 A 
ATOM     21  C   UNL     1       1.588   5.391  20.495  0.00  0.00    +0.000 A 
ATOM     22  C   UNL     1       1.781   6.754  20.736  0.00  0.00    +0.000 A 
ATOM     23  C   UNL     1       2.139   7.608  19.691  0.00  0.00    +0.000 A 
ATOM     24  C   UNL     1       2.317   7.105  18.402  0.00  0.00    +0.000 A 
ATOM     25  C   UNL     1       2.123   5.749  18.150  0.00  0.00    +0.000 A 
ENDBRANCH  17  20
ENDBRANCH  16  17
ENDBRANCH  15  16
ENDBRANCH  14  15
ENDBRANCH   5  14
TORSDOF 6
ENDMDL
MODEL 2
REMARK VINA RESULT:      -7.8      4.071      4.990
REMARK  Name = 
REMARK  7 active torsions:
REMARK  status: ('A' for Active; 'I' for Inactive)
REMARK    1  A    between atoms: C_1  and  C_2
REMARK    2  A    between atoms: C_4  and  C_5
REMARK    3  A    between atoms: N_9  and  C_10
REMARK    4  A    between atoms: C_10  and  C_11
REMARK    5  A    between atoms: C_11  and  C_12
REMARK    6  A    between atoms: C_12  and  S_13
REMARK    7  A    between atoms: S_13  and  C_16
REMARK                            x       y       z     vdW  Elec       q    Type
REMARK                         _______ _______ _______ _____ _____    ______ ____
ROOT
ATOM      1  C   UNL     1       5.866   6.156  17.612  0.00  0.00    +0.000 C 
ATOM      2  C   UNL     1       6.163   5.188  18.761  0.00  0.00    +0.000 C 
ATOM      3  C   UNL     1       4.984   4.285  19.105  0.00  0.00    +0.000 C 
ATOM      4  C   UNL     1       3.694   5.086  19.285  0.00  0.00    +0.000 C 
ATOM      5  N   UNL     1       3.356   5.826  18.057  0.00  0.00    +0.000 NA
ATOM      6  C   UNL     1       4.454   6.756  17.704  0.00  0.00    +0.000 C 
ENDROOT
BRANCH   1  10
ATOM      7  C   UNL     1       6.225   3.626  13.139  0.00  0.00    +0.000 C 
ATOM      8  C   UNL     1       6.343   4.482  14.338  0.00  0.00    +0.000 A 
ATOM      9  C   UNL     1       5.487   4.756  15.385  0.00  0.00    +0.000 A 
ATOM     10  C   UNL     1       6.226   5.587  16.263  0.00  0.00    +0.000 A 
ATOM     11  N   UNL     1       7.438   5.863  15.760  0.00  0.00    +0.000 NA
ATOM     12  N   UNL     1       7.482   5.185  14.608  0.00  0.00    +0.000 N 
ATOM     13  H   UNL     1       8.335   5.235  14.056  0.00  0.00    +0.000 HD
ENDBRANCH   1  10
BRANCH   5  14
ATOM     14  C   UNL     1       2.079   6.559  18.229  0.00  0.00    +0.000 C 
BRANCH  14  15
ATOM     15  C   UNL     1       2.288   7.996  18.724  0.00  0.00    +0.000 C 
BRANCH  15  16
ATOM     16  C   UNL     1       1.607   9.043  17.852  0.00  0.00    +0.000 C 
BRANCH  16  17
ATOM     17  S   UNL     1       1.042  10.396  18.879  0.00  0.00    +0.000 S 
ATOM     18  O   UNL     1       1.067   9.963  20.270  0.00  0.00    +0.000 OA
ATOM     19  O   UNL     1       1.747  11.595  18.468  0.00  0.00    +0.000 OA
BRANCH  17  20
ATOM     20  C   UNL     1      -0.667  10.615  18.447  0.00  0.00    +0.000 A 
ATOM     21  C   UNL     1      -1.278   9.793  17.491  0.00  0.00    +0.000 A 
ATOM     22  C   UNL     1      -2.635   9.970  17.209  0.00  0.00    +0.000 A 
ATOM     23  C   UNL     1      -3.373  10.942  17.889  0.00  0.00    +0.000 A 
ATOM     24  C   UNL     1      -2.762  11.734  18.861  0.00  0.00    +0.000 A 
ATOM     25  C   UNL     1      -1.409  11.568  19.147  0.00  0.00    +0.000 A 
ENDBRANCH  17  20
ENDBRANCH  16  17
ENDBRANCH  15  16
ENDBRANCH  14  15
ENDBRANCH   5  14
TORSDOF 6
ENDMDL
MODEL 3
REMARK VINA RESULT:      -7.8      4.066      4.928
REMARK  Name = 
REMARK  7 active torsions:
REMARK  status: ('A' for Active; 'I' for Inactive)
REMARK    1  A    between atoms: C_1  and  C_2
REMARK    2  A    between atoms: C_4  and  C_5
REMARK    3  A    between atoms: N_9  and  C_10
REMARK    4  A    between atoms: C_10  and  C_11
REMARK    5  A    between atoms: C_11  and  C_12
REMARK    6  A    between atoms: C_12  and  S_13
REMARK    7  A    between atoms: S_13  and  C_16
REMARK                            x       y       z     vdW  Elec       q    Type
REMARK                         _______ _______ _______ _____ _____    ______ ____
ROOT
ATOM      1  C   UNL     1       6.087   6.153  17.578  0.00  0.00    +0.000 C 
ATOM      2  C   UNL     1       6.409   5.161  18.700  0.00  0.00    +0.000 C 
ATOM      3  C   UNL     1       5.224   4.282  19.082  0.00  0.00    +0.000 C 
ATOM      4  C   UNL     1       3.963   5.111  19.329  0.00  0.00    +0.000 C 
ATOM      5  N   UNL     1       3.591   5.878  18.128  0.00  0.00    +0.000 NA
ATOM      6  C   UNL     1       4.695   6.786  17.740  0.00  0.00    +0.000 C 
ENDROOT
BRANCH   1  10
ATOM      7  C   UNL     1       6.231   3.630  13.089  0.00  0.00    +0.000 C 
ATOM      8  C   UNL     1       6.400   4.493  14.278  0.00  0.00    +0.000 A 
ATOM      9  C   UNL     1       5.609   4.735  15.382  0.00  0.00    +0.000 A 
ATOM     10  C   UNL     1       6.373   5.596  16.207  0.00  0.00    +0.000 A 
ATOM     11  N   UNL     1       7.537   5.917  15.621  0.00  0.00    +0.000 NA
ATOM     12  N   UNL     1       7.526   5.239  14.468  0.00  0.00    +0.000 N 
ATOM     13  H   UNL     1       8.337   5.321  13.859  0.00  0.00    +0.000 HD
ENDBRANCH   1  10
BRANCH   5  14
ATOM     14  C   UNL     1       2.342   6.639  18.365  0.00  0.00    +0.000 C 
BRANCH  14  15
ATOM     15  C   UNL     1       2.519   8.145  18.135  0.00  0.00    +0.000 C 
BRANCH  15  16
ATOM     16  C   UNL     1       1.221   8.861  17.782  0.00  0.00    +0.000 C 
BRANCH  16  17
ATOM     17  S   UNL     1       0.979  10.239  18.900  0.00  0.00    +0.000 S 
ATOM     18  O   UNL     1       1.103   9.753  20.267  0.00  0.00    +0.000 OA
ATOM     19  O   UNL     1       1.795  11.343  18.433  0.00  0.00    +0.000 OA
BRANCH  17  20
ATOM     20  C   UNL     1      -0.720  10.711  18.681  0.00  0.00    +0.000 A 
ATOM     21  C   UNL     1      -1.310  11.678  19.507  0.00  0.00    +0.000 A 
ATOM     22  C   UNL     1      -2.636  12.052  19.276  0.00  0.00    +0.000 A 
ATOM     23  C   UNL     1      -3.353  11.482  18.222  0.00  0.00    +0.000 A 
ATOM     24  C   UNL     1      -2.746  10.544  17.386  0.00  0.00    +0.000 A 
ATOM     25  C   UNL     1      -1.426  10.161  17.610  0.00  0.00    +0.000 A 
ENDBRANCH  17  20
ENDBRANCH  16  17
ENDBRANCH  15  16
ENDBRANCH  14  15
ENDBRANCH   5  14
TORSDOF 6
ENDMDL
MODEL 4
REMARK VINA RESULT:      -7.5      4.187      5.346
REMARK  Name = 
REMARK  7 active torsions:
REMARK  status: ('A' for Active; 'I' for Inactive)
REMARK    1  A    between atoms: C_1  and  C_2
REMARK    2  A    between atoms: C_4  and  C_5
REMARK    3  A    between atoms: N_9  and  C_10
REMARK    4  A    between atoms: C_10  and  C_11
REMARK    5  A    between atoms: C_11  and  C_12
REMARK    6  A    between atoms: C_12  and  S_13
REMARK    7  A    between atoms: S_13  and  C_16
REMARK                            x       y       z     vdW  Elec       q    Type
REMARK                         _______ _______ _______ _____ _____    ______ ____
ROOT
ATOM      1  C   UNL     1       4.818   4.171  18.506  0.00  0.00    +0.000 C 
ATOM      2  C   UNL     1       3.828   3.047  18.188  0.00  0.00    +0.000 C 
ATOM      3  C   UNL     1       2.559   3.541  17.504  0.00  0.00    +0.000 C 
ATOM      4  C   UNL     1       1.938   4.722  18.250  0.00  0.00    +0.000 C 
ATOM      5  N   UNL     1       2.881   5.851  18.329  0.00  0.00    +0.000 NA
ATOM      6  C   UNL     1       4.118   5.436  19.030  0.00  0.00    +0.000 C 
ENDROOT
BRANCH   1  10
ATOM      7  C   UNL     1       7.350   4.873  14.075  0.00  0.00    +0.000 C 
ATOM      8  C   UNL     1       6.864   4.717  15.462  0.00  0.00    +0.000 A 
ATOM      9  C   UNL     1       5.600   4.661  16.014  0.00  0.00    +0.000 A 
ATOM     10  C   UNL     1       5.806   4.410  17.393  0.00  0.00    +0.000 A 
ATOM     11  N   UNL     1       7.114   4.378  17.687  0.00  0.00    +0.000 NA
ATOM     12  N   UNL     1       7.724   4.561  16.510  0.00  0.00    +0.000 N 
ATOM     13  H   UNL     1       8.741   4.554  16.493  0.00  0.00    +0.000 HD
ENDBRANCH   1  10
BRANCH   5  14
ATOM     14  C   UNL     1       2.251   7.005  19.012  0.00  0.00    +0.000 C 
BRANCH  14  15
ATOM     15  C   UNL     1       2.516   8.332  18.290  0.00  0.00    +0.000 C 
BRANCH  15  16
ATOM     16  C   UNL     1       1.254   8.992  17.749  0.00  0.00    +0.000 C 
BRANCH  16  17
ATOM     17  S   UNL     1       0.706  10.256  18.894  0.00  0.00    +0.000 S 
ATOM     18  O   UNL     1       0.683   9.686  20.234  0.00  0.00    +0.000 OA
ATOM     19  O   UNL     1       1.458  11.465  18.619  0.00  0.00    +0.000 OA
BRANCH  17  20
ATOM     20  C   UNL     1      -0.984  10.573  18.448  0.00  0.00    +0.000 A 
ATOM     21  C   UNL     1      -1.734  11.547  19.121  0.00  0.00    +0.000 A 
ATOM     22  C   UNL     1      -3.048  11.796  18.713  0.00  0.00    +0.000 A 
ATOM     23  C   UNL     1      -3.592  11.095  17.635  0.00  0.00    +0.000 A 
ATOM     24  C   UNL     1      -2.826  10.151  16.951  0.00  0.00    +0.000 A 
ATOM     25  C   UNL     1      -1.518   9.892  17.353  0.00  0.00    +0.000 A 
ENDBRANCH  17  20
ENDBRANCH  16  17
ENDBRANCH  15  16
ENDBRANCH  14  15
ENDBRANCH   5  14
TORSDOF 6
ENDMDL
MODEL 5
REMARK VINA RESULT:      -7.4      0.625      1.186
REMARK  Name = 
REMARK  7 active torsions:
REMARK  status: ('A' for Active; 'I' for Inactive)
REMARK    1  A    between atoms: C_1  and  C_2
REMARK    2  A    between atoms: C_4  and  C_5
REMARK    3  A    between atoms: N_9  and  C_10
REMARK    4  A    between atoms: C_10  and  C_11
REMARK    5  A    between atoms: C_11  and  C_12
REMARK    6  A    between atoms: C_12  and  S_13
REMARK    7  A    between atoms: S_13  and  C_16
REMARK                            x       y       z     vdW  Elec       q    Type
REMARK                         _______ _______ _______ _____ _____    ______ ____
ROOT
ATOM      1  C   UNL     1       4.971   5.498  15.918  0.00  0.00    +0.000 C 
ATOM      2  C   UNL     1       5.584   6.798  16.449  0.00  0.00    +0.000 C 
ATOM      3  C   UNL     1       6.633   6.567  17.529  0.00  0.00    +0.000 C 
ATOM      4  C   UNL     1       6.122   5.630  18.623  0.00  0.00    +0.000 C 
ATOM      5  N   UNL     1       5.751   4.318  18.064  0.00  0.00    +0.000 NA
ATOM      6  C   UNL     1       4.696   4.481  17.038  0.00  0.00    +0.000 C 
ENDROOT
BRANCH   1  10
ATOM      7  C   UNL     1       6.732   2.897  11.835  0.00  0.00    +0.000 C 
ATOM      8  C   UNL     1       6.441   3.804  12.965  0.00  0.00    +0.000 A 
ATOM      9  C   UNL     1       5.332   3.977  13.769  0.00  0.00    +0.000 A 
ATOM     10  C   UNL     1       5.716   4.945  14.730  0.00  0.00    +0.000 A 
ATOM     11  N   UNL     1       6.960   5.389  14.497  0.00  0.00    +0.000 NA
ATOM     12  N   UNL     1       7.371   4.685  13.436  0.00  0.00    +0.000 N 
ATOM     13  H   UNL     1       8.314   4.849  13.091  0.00  0.00    +0.000 HD
ENDBRANCH   1  10
BRANCH   5  14
ATOM     14  C   UNL     1       5.303   3.404  19.141  0.00  0.00    +0.000 C 
BRANCH  14  15
ATOM     15  C   UNL     1       4.031   2.633  18.765  0.00  0.00    +0.000 C 
BRANCH  15  16
ATOM     16  C   UNL     1       3.025   2.530  19.906  0.00  0.00    +0.000 C 
BRANCH  16  17
ATOM     17  S   UNL     1       1.478   3.281  19.405  0.00  0.00    +0.000 S 
ATOM     18  O   UNL     1       1.208   2.905  18.024  0.00  0.00    +0.000 OA
ATOM     19  O   UNL     1       0.500   3.025  20.444  0.00  0.00    +0.000 OA
BRANCH  17  20
ATOM     20  C   UNL     1       1.799   5.028  19.402  0.00  0.00    +0.000 A 
ATOM     21  C   UNL     1       2.093   5.703  18.210  0.00  0.00    +0.000 A 
ATOM     22  C   UNL     1       2.299   7.085  18.243  0.00  0.00    +0.000 A 
ATOM     23  C   UNL     1       2.191   7.782  19.449  0.00  0.00    +0.000 A 
ATOM     24  C   UNL     1       1.866   7.105  20.625  0.00  0.00    +0.000 A 
ATOM     25  C   UNL     1       1.663   5.727  20.603  0.00  0.00    +0.000 A 
ENDBRANCH  17  20
ENDBRANCH  16  17
ENDBRANCH  15  16
ENDBRANCH  14  15
ENDBRANCH   5  14
TORSDOF 6
ENDMDL
MODEL 6
REMARK VINA RESULT:      -7.3      1.553      3.290
REMARK  Name = 
REMARK  7 active torsions:
REMARK  status: ('A' for Active; 'I' for Inactive)
REMARK    1  A    between atoms: C_1  and  C_2
REMARK    2  A    between atoms: C_4  and  C_5
REMARK    3  A    between atoms: N_9  and  C_10
REMARK    4  A    between atoms: C_10  and  C_11
REMARK    5  A    between atoms: C_11  and  C_12
REMARK    6  A    between atoms: C_12  and  S_13
REMARK    7  A    between atoms: S_13  and  C_16
REMARK                            x       y       z     vdW  Elec       q    Type
REMARK                         _______ _______ _______ _____ _____    ______ ____
ROOT
ATOM      1  C   UNL     1       6.048   6.615  17.097  0.00  0.00    +0.000 C 
ATOM      2  C   UNL     1       6.856   6.094  18.289  0.00  0.00    +0.000 C 
ATOM      3  C   UNL     1       6.115   5.036  19.098  0.00  0.00    +0.000 C 
ATOM      4  C   UNL     1       4.700   5.489  19.458  0.00  0.00    +0.000 C 
ATOM      5  N   UNL     1       3.911   5.768  18.247  0.00  0.00    +0.000 NA
ATOM      6  C   UNL     1       4.565   6.827  17.444  0.00  0.00    +0.000 C 
ENDROOT
BRANCH   1  10
ATOM      7  C   UNL     1       5.934   3.531  12.972  0.00  0.00    +0.000 C 
ATOM      8  C   UNL     1       6.208   4.492  14.061  0.00  0.00    +0.000 A 
ATOM      9  C   UNL     1       5.417   5.044  15.048  0.00  0.00    +0.000 A 
ATOM     10  C   UNL     1       6.296   5.828  15.835  0.00  0.00    +0.000 A 
ATOM     11  N   UNL     1       7.539   5.814  15.329  0.00  0.00    +0.000 NA
ATOM     12  N   UNL     1       7.456   5.003  14.269  0.00  0.00    +0.000 N 
ATOM     13  H   UNL     1       8.305   4.828  13.734  0.00  0.00    +0.000 HD
ENDBRANCH   1  10
BRANCH   5  14
ATOM     14  C   UNL     1       2.528   6.159  18.608  0.00  0.00    +0.000 C 
BRANCH  14  15
ATOM     15  C   UNL     1       2.243   5.993  20.106  0.00  0.00    +0.000 C 
BRANCH  15  16
ATOM     16  C   UNL     1       1.112   5.015  20.403  0.00  0.00    +0.000 C 
BRANCH  16  17
ATOM     17  S   UNL     1       1.779   3.565  21.216  0.00  0.00    +0.000 S 
ATOM     18  O   UNL     1       2.792   3.995  22.171  0.00  0.00    +0.000 OA
ATOM     19  O   UNL     1       0.666   2.741  21.645  0.00  0.00    +0.000 OA
BRANCH  17  20
ATOM     20  C   UNL     1       2.632   2.676  19.937  0.00  0.00    +0.000 A 
ATOM     21  C   UNL     1       2.074   2.545  18.658  0.00  0.00    +0.000 A 
ATOM     22  C   UNL     1       2.795   1.874  17.667  0.00  0.00    +0.000 A 
ATOM     23  C   UNL     1       4.063   1.359  17.948  0.00  0.00    +0.000 A 
ATOM     24  C   UNL     1       4.623   1.523  19.216  0.00  0.00    +0.000 A 
ATOM     25  C   UNL     1       3.910   2.187  20.212  0.00  0.00    +0.000 A 
ENDBRANCH  17  20
ENDBRANCH  16  17
ENDBRANCH  15  16
ENDBRANCH  14  15
ENDBRANCH   5  14
TORSDOF 6
ENDMDL
MODEL 7
REMARK VINA RESULT:      -7.2      1.456      3.151
REMARK  Name = 
REMARK  7 active torsions:
REMARK  status: ('A' for Active; 'I' for Inactive)
REMARK    1  A    between atoms: C_1  and  C_2
REMARK    2  A    between atoms: C_4  and  C_5
REMARK    3  A    between atoms: N_9  and  C_10
REMARK    4  A    between atoms: C_10  and  C_11
REMARK    5  A    between atoms: C_11  and  C_12
REMARK    6  A    between atoms: C_12  and  S_13
REMARK    7  A    between atoms: S_13  and  C_16
REMARK                            x       y       z     vdW  Elec       q    Type
REMARK                         _______ _______ _______ _____ _____    ______ ____
ROOT
ATOM      1  C   UNL     1       6.844   6.096  16.580  0.00  0.00    +0.000 C 
ATOM      2  C   UNL     1       7.459   5.201  17.661  0.00  0.00    +0.000 C 
ATOM      3  C   UNL     1       6.418   4.437  18.469  0.00  0.00    +0.000 C 
ATOM      4  C   UNL     1       5.312   5.359  18.982  0.00  0.00    +0.000 C 
ATOM      5  N   UNL     1       4.619   6.024  17.865  0.00  0.00    +0.000 NA
ATOM      6  C   UNL     1       5.581   6.822  17.071  0.00  0.00    +0.000 C 
ENDROOT
BRANCH   1  10
ATOM      7  C   UNL     1       5.505   3.213  12.525  0.00  0.00    +0.000 C 
ATOM      8  C   UNL     1       6.081   4.138  13.524  0.00  0.00    +0.000 A 
ATOM      9  C   UNL     1       5.641   4.585  14.753  0.00  0.00    +0.000 A 
ATOM     10  C   UNL     1       6.693   5.390  15.256  0.00  0.00    +0.000 A 
ATOM     11  N   UNL     1       7.692   5.487  14.366  0.00  0.00    +0.000 NA
ATOM     12  N   UNL     1       7.300   4.724  13.341  0.00  0.00    +0.000 N 
ATOM     13  H   UNL     1       7.927   4.635  12.544  0.00  0.00    +0.000 HD
ENDBRANCH   1  10
BRANCH   5  14
ATOM     14  C   UNL     1       3.519   6.877  18.372  0.00  0.00    +0.000 C 
BRANCH  14  15
ATOM     15  C   UNL     1       2.341   6.056  18.914  0.00  0.00    +0.000 C 
BRANCH  15  16
ATOM     16  C   UNL     1       2.402   5.828  20.419  0.00  0.00    +0.000 C 
BRANCH  16  17
ATOM     17  S   UNL     1       1.759   4.200  20.800  0.00  0.00    +0.000 S 
ATOM     18  O   UNL     1       2.172   3.844  22.151  0.00  0.00    +0.000 OA
ATOM     19  O   UNL     1       0.358   4.173  20.427  0.00  0.00    +0.000 OA
BRANCH  17  20
ATOM     20  C   UNL     1       2.618   3.101  19.700  0.00  0.00    +0.000 A 
ATOM     21  C   UNL     1       3.731   2.370  20.138  0.00  0.00    +0.000 A 
ATOM     22  C   UNL     1       4.354   1.485  19.254  0.00  0.00    +0.000 A 
ATOM     23  C   UNL     1       3.857   1.320  17.959  0.00  0.00    +0.000 A 
ATOM     24  C   UNL     1       2.730   2.028  17.544  0.00  0.00    +0.000 A 
ATOM     25  C   UNL     1       2.104   2.916  18.416  0.00  0.00    +0.000 A 
ENDBRANCH  17  20
ENDBRANCH  16  17
ENDBRANCH  15  16
ENDBRANCH  14  15
ENDBRANCH   5  14
TORSDOF 6
ENDMDL
MODEL 8
REMARK VINA RESULT:      -7.1      4.109      5.168
REMARK  Name = 
REMARK  7 active torsions:
REMARK  status: ('A' for Active; 'I' for Inactive)
REMARK    1  A    between atoms: C_1  and  C_2
REMARK    2  A    between atoms: C_4  and  C_5
REMARK    3  A    between atoms: N_9  and  C_10
REMARK    4  A    between atoms: C_10  and  C_11
REMARK    5  A    between atoms: C_11  and  C_12
REMARK    6  A    between atoms: C_12  and  S_13
REMARK    7  A    between atoms: S_13  and  C_16
REMARK                            x       y       z     vdW  Elec       q    Type
REMARK                         _______ _______ _______ _____ _____    ______ ____
ROOT
ATOM      1  C   UNL     1       5.346   4.365  17.483  0.00  0.00    +0.000 C 
ATOM      2  C   UNL     1       4.202   3.347  17.495  0.00  0.00    +0.000 C 
ATOM      3  C   UNL     1       2.845   3.967  17.186  0.00  0.00    +0.000 C 
ATOM      4  C   UNL     1       2.582   5.206  18.042  0.00  0.00    +0.000 C 
ATOM      5  N   UNL     1       3.612   6.234  17.814  0.00  0.00    +0.000 NA
ATOM      6  C   UNL     1       4.952   5.695  18.145  0.00  0.00    +0.000 C 
ENDROOT
BRANCH   1  10
ATOM      7  C   UNL     1       6.819   4.125  12.552  0.00  0.00    +0.000 C 
ATOM      8  C   UNL     1       6.593   4.378  13.991  0.00  0.00    +0.000 A 
ATOM      9  C   UNL     1       5.570   4.043  14.854  0.00  0.00    +0.000 A 
ATOM     10  C   UNL     1       5.992   4.501  16.127  0.00  0.00    +0.000 A 
ATOM     11  N   UNL     1       7.171   5.135  16.045  0.00  0.00    +0.000 NA
ATOM     12  N   UNL     1       7.509   5.042  14.754  0.00  0.00    +0.000 N 
ATOM     13  H   UNL     1       8.395   5.448  14.462  0.00  0.00    +0.000 HD
ENDBRANCH   1  10
BRANCH   5  14
ATOM     14  C   UNL     1       3.320   7.447  18.612  0.00  0.00    +0.000 C 
BRANCH  14  15
ATOM     15  C   UNL     1       2.004   8.119  18.200  0.00  0.00    +0.000 C 
BRANCH  15  16
ATOM     16  C   UNL     1       1.254   8.750  19.366  0.00  0.00    +0.000 C 
BRANCH  16  17
ATOM     17  S   UNL     1       1.062  10.506  19.069  0.00  0.00    +0.000 S 
ATOM     18  O   UNL     1       1.186  11.206  20.341  0.00  0.00    +0.000 OA
ATOM     19  O   UNL     1       1.907  10.865  17.946  0.00  0.00    +0.000 OA
BRANCH  17  20
ATOM     20  C   UNL     1      -0.623  10.700  18.544  0.00  0.00    +0.000 A 
ATOM     21  C   UNL     1      -1.162   9.884  17.539  0.00  0.00    +0.000 A 
ATOM     22  C   UNL     1      -2.504  10.040  17.184  0.00  0.00    +0.000 A 
ATOM     23  C   UNL     1      -3.299  10.983  17.839  0.00  0.00    +0.000 A 
ATOM     24  C   UNL     1      -2.762  11.767  18.860  0.00  0.00    +0.000 A 
ATOM     25  C   UNL     1      -1.424  11.623  19.219  0.00  0.00    +0.000 A 
ENDBRANCH  17  20
ENDBRANCH  16  17
ENDBRANCH  15  16
ENDBRANCH  14  15
ENDBRANCH   5  14
TORSDOF 6
ENDMDL
MODEL 9
REMARK VINA RESULT:      -7.1      4.266      5.493
REMARK  Name = 
REMARK  7 active torsions:
REMARK  status: ('A' for Active; 'I' for Inactive)
REMARK    1  A    between atoms: C_1  and  C_2
REMARK    2  A    between atoms: C_4  and  C_5
REMARK    3  A    between atoms: N_9  and  C_10
REMARK    4  A    between atoms: C_10  and  C_11
REMARK    5  A    between atoms: C_11  and  C_12
REMARK    6  A    between atoms: C_12  and  S_13
REMARK    7  A    between atoms: S_13  and  C_16
REMARK                            x       y       z     vdW  Elec       q    Type
REMARK                         _______ _______ _______ _____ _____    ______ ____
ROOT
ATOM      1  C   UNL     1       5.107   4.447  17.755  0.00  0.00    +0.000 C 
ATOM      2  C   UNL     1       4.107   3.287  17.781  0.00  0.00    +0.000 C 
ATOM      3  C   UNL     1       2.694   3.705  17.394  0.00  0.00    +0.000 C 
ATOM      4  C   UNL     1       2.236   4.937  18.175  0.00  0.00    +0.000 C 
ATOM      5  N   UNL     1       3.130   6.081  17.930  0.00  0.00    +0.000 NA
ATOM      6  C   UNL     1       4.515   5.742  18.334  0.00  0.00    +0.000 C 
ENDROOT
BRANCH   1  10
ATOM      7  C   UNL     1       6.824   4.152  12.907  0.00  0.00    +0.000 C 
ATOM      8  C   UNL     1       6.495   4.451  14.317  0.00  0.00    +0.000 A 
ATOM      9  C   UNL     1       5.501   4.007  15.164  0.00  0.00    +0.000 A 
ATOM     10  C   UNL     1       5.784   4.604  16.418  0.00  0.00    +0.000 A 
ATOM     11  N   UNL     1       6.848   5.417  16.335  0.00  0.00    +0.000 NA
ATOM     12  N   UNL     1       7.255   5.302  15.066  0.00  0.00    +0.000 N 
ATOM     13  H   UNL     1       8.078   5.829  14.779  0.00  0.00    +0.000 HD
ENDBRANCH   1  10
BRANCH   5  14
ATOM     14  C   UNL     1       2.649   7.280  18.654  0.00  0.00    +0.000 C 
BRANCH  14  15
ATOM     15  C   UNL     1       1.828   8.217  17.758  0.00  0.00    +0.000 C 
BRANCH  15  16
ATOM     16  C   UNL     1       2.163   9.691  17.953  0.00  0.00    +0.000 C 
BRANCH  16  17
ATOM     17  S   UNL     1       0.845  10.484  18.871  0.00  0.00    +0.000 S 
ATOM     18  O   UNL     1      -0.400  10.311  18.134  0.00  0.00    +0.000 OA
ATOM     19  O   UNL     1       0.946  10.062  20.255  0.00  0.00    +0.000 OA
BRANCH  17  20
ATOM     20  C   UNL     1       1.231  12.216  18.819  0.00  0.00    +0.000 A 
ATOM     21  C   UNL     1       2.437  12.669  18.266  0.00  0.00    +0.000 A 
ATOM     22  C   UNL     1       2.685  14.042  18.206  0.00  0.00    +0.000 A 
ATOM     23  C   UNL     1       1.730  14.949  18.673  0.00  0.00    +0.000 A 
ATOM     24  C   UNL     1       0.519  14.490  19.191  0.00  0.00    +0.000 A 
ATOM     25  C   UNL     1       0.264  13.122  19.260  0.00  0.00    +0.000 A 
ENDBRANCH  17  20
ENDBRANCH  16  17
ENDBRANCH  15  16
ENDBRANCH  14  15
ENDBRANCH   5  14
TORSDOF 6
ENDMDL
