MODEL 1
REMARK VINA RESULT:      -7.5      0.000      0.000
REMARK  Name = 
REMARK  9 active torsions:
REMARK  status: ('A' for Active; 'I' for Inactive)
REMARK    1  A    between atoms: C_1  and  C_2
REMARK    2  A    between atoms: C_2  and  S_3
REMARK    3  A    between atoms: S_3  and  C_4
REMARK    4  A    between atoms: C_7  and  C_8
REMARK    5  A    between atoms: C_10  and  C_11
REMARK    6  A    between atoms: C_11  and  O_12
REMARK    7  A    between atoms: O_12  and  N_13
REMARK    8  A    between atoms: C_20  and  C_21
REMARK    9  A    between atoms: C_20  and  C_22
REMARK                            x       y       z     vdW  Elec       q    Type
REMARK                         _______ _______ _______ _____ _____    ______ ____
ROOT
ATOM      1  N   UNL     1       2.629   4.735  18.863  0.00  0.00    +0.000 N 
ATOM      2  C   UNL     1       2.298   5.394  20.099  0.00  0.00    +0.000 C 
ATOM      3  N   UNL     1       2.256   6.806  20.198  0.00  0.00    +0.000 N 
ATOM      4  N   UNL     1       2.009   4.710  21.145  0.00  0.00    +0.000 NA
ATOM      5  C   UNL     1       1.976   3.300  21.135  0.00  0.00    +0.000 C 
ATOM      6  N   UNL     1       1.642   2.603  22.320  0.00  0.00    +0.000 N 
ATOM      7  N   UNL     1       2.231   2.647  20.058  0.00  0.00    +0.000 NA
ATOM      8  C   UNL     1       2.593   3.257  18.782  0.00  0.00    +0.000 C 
ATOM      9  C   UNL     1       3.963   2.685  18.395  0.00  0.00    +0.000 C 
ATOM     10  C   UNL     1       1.552   2.823  17.738  0.00  0.00    +0.000 C 
ATOM     11  H   UNL     1       2.429   7.402  19.389  0.00  0.00    +0.000 HD
ATOM     12  H   UNL     1       2.025   7.258  21.095  0.00  0.00    +0.000 HD
ATOM     13  H   UNL     1       1.434   3.124  23.186  0.00  0.00    +0.000 HD
ATOM     14  H   UNL     1       1.602   1.574  22.332  0.00  0.00    +0.000 HD
ENDROOT
BRANCH   1  15
ATOM     15  O   UNL     1       2.805   5.471  17.734  0.00  0.00    +0.000 OA
BRANCH  15  16
ATOM     16  C   UNL     1       4.025   6.186  17.830  0.00  0.00    +0.000 C 
BRANCH  16  23
ATOM     17  C   UNL     1       6.407   5.220  17.560  0.00  0.00    +0.000 A 
ATOM     18  C   UNL     1       7.355   4.537  16.786  0.00  0.00    +0.000 A 
ATOM     19  C   UNL     1       7.064   4.145  15.486  0.00  0.00    +0.000 A 
ATOM     20  C   UNL     1       5.812   4.425  14.930  0.00  0.00    +0.000 A 
ATOM     21  C   UNL     1       5.505   4.006  13.522  0.00  0.00    +0.000 C 
ATOM     22  C   UNL     1       4.845   5.092  15.700  0.00  0.00    +0.000 A 
ATOM     23  C   UNL     1       5.121   5.499  17.024  0.00  0.00    +0.000 A 
BRANCH  17  24
ATOM     24  S   UNL     1       6.889   5.662  19.235  0.00  0.00    +0.000 S 
BRANCH  24  26
ATOM     25  C   UNL     1       7.694   7.854  17.800  0.00  0.00    +0.000 C 
ATOM     26  C   UNL     1       8.242   6.786  18.737  0.00  0.00    +0.000 C 
ENDBRANCH  24  26
ENDBRANCH  17  24
ENDBRANCH  16  23
ENDBRANCH  15  16
ENDBRANCH   1  15
TORSDOF 5
ENDMDL
MODEL 2
REMARK VINA RESULT:      -7.3      1.455      2.266
REMARK  Name = 
REMARK  9 active torsions:
REMARK  status: ('A' for Active; 'I' for Inactive)
REMARK    1  A    between atoms: C_1  and  C_2
REMARK    2  A    between atoms: C_2  and  S_3
REMARK    3  A    between atoms: S_3  and  C_4
REMARK    4  A    between atoms: C_7  and  C_8
REMARK    5  A    between atoms: C_10  and  C_11
REMARK    6  A    between atoms: C_11  and  O_12
REMARK    7  A    between atoms: O_12  and  N_13
REMARK    8  A    between atoms: C_20  and  C_21
REMARK    9  A    between atoms: C_20  and  C_22
REMARK                            x       y       z     vdW  Elec       q    Type
REMARK                         _______ _______ _______ _____ _____    ______ ____
ROOT
ATOM      1  N   UNL     1       3.444   3.907  18.919  0.00  0.00    +0.000 N 
ATOM      2  C   UNL     1       3.867   2.917  19.876  0.00  0.00    +0.000 C 
ATOM      3  N   UNL     1       5.158   2.337  19.821  0.00  0.00    +0.000 N 
ATOM      4  N   UNL     1       3.083   2.548  20.821  0.00  0.00    +0.000 NA
ATOM      5  C   UNL     1       1.796   3.101  20.990  0.00  0.00    +0.000 C 
ATOM      6  N   UNL     1       0.982   2.658  22.058  0.00  0.00    +0.000 N 
ATOM      7  N   UNL     1       1.366   4.012  20.191  0.00  0.00    +0.000 NA
ATOM      8  C   UNL     1       2.113   4.540  19.054  0.00  0.00    +0.000 C 
ATOM      9  C   UNL     1       1.250   4.293  17.809  0.00  0.00    +0.000 C 
ATOM     10  C   UNL     1       2.280   6.054  19.258  0.00  0.00    +0.000 C 
ATOM     11  H   UNL     1       5.842   2.625  19.121  0.00  0.00    +0.000 HD
ATOM     12  H   UNL     1       5.437   1.624  20.509  0.00  0.00    +0.000 HD
ATOM     13  H   UNL     1       1.325   1.929  22.702  0.00  0.00    +0.000 HD
ATOM     14  H   UNL     1       0.044   3.056  22.205  0.00  0.00    +0.000 HD
ENDROOT
BRANCH   1  15
ATOM     15  O   UNL     1       4.331   4.380  18.004  0.00  0.00    +0.000 OA
BRANCH  15  16
ATOM     16  C   UNL     1       4.697   3.330  17.125  0.00  0.00    +0.000 C 
BRANCH  16  23
ATOM     17  C   UNL     1       6.676   4.697  16.181  0.00  0.00    +0.000 A 
ATOM     18  C   UNL     1       7.453   5.104  15.088  0.00  0.00    +0.000 A 
ATOM     19  C   UNL     1       7.124   4.715  13.796  0.00  0.00    +0.000 A 
ATOM     20  C   UNL     1       6.008   3.904  13.568  0.00  0.00    +0.000 A 
ATOM     21  C   UNL     1       5.652   3.493  12.169  0.00  0.00    +0.000 C 
ATOM     22  C   UNL     1       5.231   3.472  14.655  0.00  0.00    +0.000 A 
ATOM     23  C   UNL     1       5.549   3.856  15.977  0.00  0.00    +0.000 A 
BRANCH  17  24
ATOM     24  S   UNL     1       7.208   5.247  17.808  0.00  0.00    +0.000 S 
BRANCH  24  26
ATOM     25  C   UNL     1       7.797   7.915  17.601  0.00  0.00    +0.000 C 
ATOM     26  C   UNL     1       6.609   6.963  17.617  0.00  0.00    +0.000 C 
ENDBRANCH  24  26
ENDBRANCH  17  24
ENDBRANCH  16  23
ENDBRANCH  15  16
ENDBRANCH   1  15
TORSDOF 5
ENDMDL
MODEL 3
REMARK VINA RESULT:      -7.1      1.331      2.471
REMARK  Name = 
REMARK  9 active torsions:
REMARK  status: ('A' for Active; 'I' for Inactive)
REMARK    1  A    between atoms: C_1  and  C_2
REMARK    2  A    between atoms: C_2  and  S_3
REMARK    3  A    between atoms: S_3  and  C_4
REMARK    4  A    between atoms: C_7  and  C_8
REMARK    5  A    between atoms: C_10  and  C_11
REMARK    6  A    between atoms: C_11  and  O_12
REMARK    7  A    between atoms: O_12  and  N_13
REMARK    8  A    between atoms: C_20  and  C_21
REMARK    9  A    between atoms: C_20  and  C_22
REMARK                            x       y       z     vdW  Elec       q    Type
REMARK                         _______ _______ _______ _____ _____    ______ ____
ROOT
ATOM      1  N   UNL     1       2.952   3.922  18.396  0.00  0.00    +0.000 N 
ATOM      2  C   UNL     1       2.407   2.614  18.650  0.00  0.00    +0.000 C 
ATOM      3  N   UNL     1       2.368   1.619  17.644  0.00  0.00    +0.000 N 
ATOM      4  N   UNL     1       1.958   2.310  19.813  0.00  0.00    +0.000 NA
ATOM      5  C   UNL     1       1.996   3.216  20.893  0.00  0.00    +0.000 C 
ATOM      6  N   UNL     1       1.492   2.818  22.154  0.00  0.00    +0.000 N 
ATOM      7  N   UNL     1       2.498   4.391  20.745  0.00  0.00    +0.000 NA
ATOM      8  C   UNL     1       3.039   4.911  19.494  0.00  0.00    +0.000 C 
ATOM      9  C   UNL     1       2.242   6.181  19.165  0.00  0.00    +0.000 C 
ATOM     10  C   UNL     1       4.510   5.287  19.734  0.00  0.00    +0.000 C 
ATOM     11  H   UNL     1       2.754   1.785  16.715  0.00  0.00    +0.000 HD
ATOM     12  H   UNL     1       1.966   0.692  17.844  0.00  0.00    +0.000 HD
ATOM     13  H   UNL     1       1.092   1.876  22.277  0.00  0.00    +0.000 HD
ATOM     14  H   UNL     1       1.521   3.460  22.958  0.00  0.00    +0.000 HD
ENDROOT
BRANCH   1  15
ATOM     15  O   UNL     1       3.541   4.184  17.198  0.00  0.00    +0.000 OA
BRANCH  15  16
ATOM     16  C   UNL     1       4.796   3.529  17.143  0.00  0.00    +0.000 C 
BRANCH  16  23
ATOM     17  C   UNL     1       6.732   4.818  16.018  0.00  0.00    +0.000 A 
ATOM     18  C   UNL     1       7.451   5.153  14.863  0.00  0.00    +0.000 A 
ATOM     19  C   UNL     1       7.051   4.694  13.616  0.00  0.00    +0.000 A 
ATOM     20  C   UNL     1       5.919   3.882  13.494  0.00  0.00    +0.000 A 
ATOM     21  C   UNL     1       5.485   3.395  12.143  0.00  0.00    +0.000 C 
ATOM     22  C   UNL     1       5.198   3.522  14.645  0.00  0.00    +0.000 A 
ATOM     23  C   UNL     1       5.589   3.979  15.923  0.00  0.00    +0.000 A 
BRANCH  17  24
ATOM     24  S   UNL     1       7.354   5.455  17.579  0.00  0.00    +0.000 S 
BRANCH  24  26
ATOM     25  C   UNL     1       7.813   8.157  17.606  0.00  0.00    +0.000 C 
ATOM     26  C   UNL     1       6.702   7.147  17.350  0.00  0.00    +0.000 C 
ENDBRANCH  24  26
ENDBRANCH  17  24
ENDBRANCH  16  23
ENDBRANCH  15  16
ENDBRANCH   1  15
TORSDOF 5
ENDMDL
MODEL 4
REMARK VINA RESULT:      -7.0      1.502      2.243
REMARK  Name = 
REMARK  9 active torsions:
REMARK  status: ('A' for Active; 'I' for Inactive)
REMARK    1  A    between atoms: C_1  and  C_2
REMARK    2  A    between atoms: C_2  and  S_3
REMARK    3  A    between atoms: S_3  and  C_4
REMARK    4  A    between atoms: C_7  and  C_8
REMARK    5  A    between atoms: C_10  and  C_11
REMARK    6  A    between atoms: C_11  and  O_12
REMARK    7  A    between atoms: O_12  and  N_13
REMARK    8  A    between atoms: C_20  and  C_21
REMARK    9  A    between atoms: C_20  and  C_22
REMARK                            x       y       z     vdW  Elec       q    Type
REMARK                         _______ _______ _______ _____ _____    ______ ____
ROOT
ATOM      1  N   UNL     1       3.054   4.909  18.247  0.00  0.00    +0.000 N 
ATOM      2  C   UNL     1       3.215   6.339  18.198  0.00  0.00    +0.000 C 
ATOM      3  N   UNL     1       3.865   6.975  17.112  0.00  0.00    +0.000 N 
ATOM      4  N   UNL     1       2.750   7.079  19.136  0.00  0.00    +0.000 NA
ATOM      5  C   UNL     1       2.046   6.546  20.236  0.00  0.00    +0.000 C 
ATOM      6  N   UNL     1       1.550   7.416  21.235  0.00  0.00    +0.000 N 
ATOM      7  N   UNL     1       1.839   5.280  20.328  0.00  0.00    +0.000 NA
ATOM      8  C   UNL     1       2.307   4.289  19.364  0.00  0.00    +0.000 C 
ATOM      9  C   UNL     1       3.187   3.301  20.143  0.00  0.00    +0.000 C 
ATOM     10  C   UNL     1       1.080   3.546  18.814  0.00  0.00    +0.000 C 
ATOM     11  H   UNL     1       4.212   6.444  16.314  0.00  0.00    +0.000 HD
ATOM     12  H   UNL     1       3.976   7.999  17.101  0.00  0.00    +0.000 HD
ATOM     13  H   UNL     1       1.712   8.432  21.162  0.00  0.00    +0.000 HD
ATOM     14  H   UNL     1       1.025   7.048  22.040  0.00  0.00    +0.000 HD
ENDROOT
BRANCH   1  15
ATOM     15  O   UNL     1       3.437   4.153  17.184  0.00  0.00    +0.000 OA
BRANCH  15  16
ATOM     16  C   UNL     1       4.780   3.739  17.367  0.00  0.00    +0.000 C 
BRANCH  16  23
ATOM     17  C   UNL     1       6.775   4.985  16.296  0.00  0.00    +0.000 A 
ATOM     18  C   UNL     1       7.556   5.273  15.169  0.00  0.00    +0.000 A 
ATOM     19  C   UNL     1       7.224   4.762  13.922  0.00  0.00    +0.000 A 
ATOM     20  C   UNL     1       6.100   3.943  13.773  0.00  0.00    +0.000 A 
ATOM     21  C   UNL     1       5.740   3.400  12.421  0.00  0.00    +0.000 C 
ATOM     22  C   UNL     1       5.318   3.629  14.897  0.00  0.00    +0.000 A 
ATOM     23  C   UNL     1       5.639   4.140  16.174  0.00  0.00    +0.000 A 
BRANCH  17  24
ATOM     24  S   UNL     1       7.311   5.687  17.861  0.00  0.00    +0.000 S 
BRANCH  24  26
ATOM     25  C   UNL     1       8.239   8.239  18.227  0.00  0.00    +0.000 C 
ATOM     26  C   UNL     1       7.415   7.408  17.254  0.00  0.00    +0.000 C 
ENDBRANCH  24  26
ENDBRANCH  17  24
ENDBRANCH  16  23
ENDBRANCH  15  16
ENDBRANCH   1  15
TORSDOF 5
ENDMDL
MODEL 5
REMARK VINA RESULT:      -6.9      3.230      6.455
REMARK  Name = 
REMARK  9 active torsions:
REMARK  status: ('A' for Active; 'I' for Inactive)
REMARK    1  A    between atoms: C_1  and  C_2
REMARK    2  A    between atoms: C_2  and  S_3
REMARK    3  A    between atoms: S_3  and  C_4
REMARK    4  A    between atoms: C_7  and  C_8
REMARK    5  A    between atoms: C_10  and  C_11
REMARK    6  A    between atoms: C_11  and  O_12
REMARK    7  A    between atoms: O_12  and  N_13
REMARK    8  A    between atoms: C_20  and  C_21
REMARK    9  A    between atoms: C_20  and  C_22
REMARK                            x       y       z     vdW  Elec       q    Type
REMARK                         _______ _______ _______ _____ _____    ______ ____
ROOT
ATOM      1  N   UNL     1       5.732   5.059  17.500  0.00  0.00    +0.000 N 
ATOM      2  C   UNL     1       5.601   4.029  16.502  0.00  0.00    +0.000 C 
ATOM      3  N   UNL     1       4.690   2.956  16.659  0.00  0.00    +0.000 N 
ATOM      4  N   UNL     1       6.300   4.071  15.428  0.00  0.00    +0.000 NA
ATOM      5  C   UNL     1       7.200   5.123  15.157  0.00  0.00    +0.000 C 
ATOM      6  N   UNL     1       7.936   5.116  13.949  0.00  0.00    +0.000 N 
ATOM      7  N   UNL     1       7.344   6.092  15.990  0.00  0.00    +0.000 NA
ATOM      8  C   UNL     1       6.644   6.201  17.266  0.00  0.00    +0.000 C 
ATOM      9  C   UNL     1       7.725   6.283  18.353  0.00  0.00    +0.000 C 
ATOM     10  C   UNL     1       5.840   7.510  17.255  0.00  0.00    +0.000 C 
ATOM     11  H   UNL     1       4.074   2.895  17.469  0.00  0.00    +0.000 HD
ATOM     12  H   UNL     1       4.618   2.225  15.937  0.00  0.00    +0.000 HD
ATOM     13  H   UNL     1       7.821   4.342  13.277  0.00  0.00    +0.000 HD
ATOM     14  H   UNL     1       8.590   5.880  13.727  0.00  0.00    +0.000 HD
ENDROOT
BRANCH   1  15
ATOM     15  O   UNL     1       4.893   5.069  18.570  0.00  0.00    +0.000 OA
BRANCH  15  16
ATOM     16  C   UNL     1       3.553   5.099  18.111  0.00  0.00    +0.000 C 
BRANCH  16  23
ATOM     17  C   UNL     1       2.189   6.045  20.091  0.00  0.00    +0.000 A 
ATOM     18  C   UNL     1       1.523   7.119  20.697  0.00  0.00    +0.000 A 
ATOM     19  C   UNL     1       1.398   8.339  20.046  0.00  0.00    +0.000 A 
ATOM     20  C   UNL     1       1.941   8.515  18.769  0.00  0.00    +0.000 A 
ATOM     21  C   UNL     1       1.796   9.832  18.066  0.00  0.00    +0.000 C 
ATOM     22  C   UNL     1       2.628   7.453  18.156  0.00  0.00    +0.000 A 
ATOM     23  C   UNL     1       2.766   6.205  18.802  0.00  0.00    +0.000 A 
BRANCH  17  24
ATOM     24  S   UNL     1       2.305   4.520  21.036  0.00  0.00    +0.000 S 
BRANCH  24  26
ATOM     25  C   UNL     1       1.249   2.589  19.405  0.00  0.00    +0.000 C 
ATOM     26  C   UNL     1       0.824   3.745  20.299  0.00  0.00    +0.000 C 
ENDBRANCH  24  26
ENDBRANCH  17  24
ENDBRANCH  16  23
ENDBRANCH  15  16
ENDBRANCH   1  15
TORSDOF 5
ENDMDL
MODEL 6
REMARK VINA RESULT:      -6.9      1.632      2.738
REMARK  Name = 
REMARK  9 active torsions:
REMARK  status: ('A' for Active; 'I' for Inactive)
REMARK    1  A    between atoms: C_1  and  C_2
REMARK    2  A    between atoms: C_2  and  S_3
REMARK    3  A    between atoms: S_3  and  C_4
REMARK    4  A    between atoms: C_7  and  C_8
REMARK    5  A    between atoms: C_10  and  C_11
REMARK    6  A    between atoms: C_11  and  O_12
REMARK    7  A    between atoms: O_12  and  N_13
REMARK    8  A    between atoms: C_20  and  C_21
REMARK    9  A    between atoms: C_20  and  C_22
REMARK                            x       y       z     vdW  Elec       q    Type
REMARK                         _______ _______ _______ _____ _____    ______ ____
ROOT
ATOM      1  N   UNL     1       3.692   3.400  18.356  0.00  0.00    +0.000 N 
ATOM      2  C   UNL     1       3.319   2.079  18.794  0.00  0.00    +0.000 C 
ATOM      3  N   UNL     1       3.906   0.919  18.232  0.00  0.00    +0.000 N 
ATOM      4  N   UNL     1       2.453   1.922  19.726  0.00  0.00    +0.000 NA
ATOM      5  C   UNL     1       1.846   3.015  20.381  0.00  0.00    +0.000 C 
ATOM      6  N   UNL     1       0.904   2.775  21.408  0.00  0.00    +0.000 N 
ATOM      7  N   UNL     1       2.155   4.221  20.062  0.00  0.00    +0.000 NA
ATOM      8  C   UNL     1       3.106   4.588  19.018  0.00  0.00    +0.000 C 
ATOM      9  C   UNL     1       2.342   5.464  18.016  0.00  0.00    +0.000 C 
ATOM     10  C   UNL     1       4.224   5.420  19.665  0.00  0.00    +0.000 C 
ATOM     11  H   UNL     1       4.635   0.982  17.521  0.00  0.00    +0.000 HD
ATOM     12  H   UNL     1       3.619  -0.016  18.553  0.00  0.00    +0.000 HD
ATOM     13  H   UNL     1       0.656   1.808  21.667  0.00  0.00    +0.000 HD
ATOM     14  H   UNL     1       0.458   3.558  21.906  0.00  0.00    +0.000 HD
ENDROOT
BRANCH   1  15
ATOM     15  O   UNL     1       4.703   3.551  17.460  0.00  0.00    +0.000 OA
BRANCH  15  16
ATOM     16  C   UNL     1       4.207   4.202  16.304  0.00  0.00    +0.000 C 
BRANCH  16  23
ATOM     17  C   UNL     1       6.384   5.334  15.496  0.00  0.00    +0.000 A 
ATOM     18  C   UNL     1       7.406   5.449  14.544  0.00  0.00    +0.000 A 
ATOM     19  C   UNL     1       7.382   4.696  13.378  0.00  0.00    +0.000 A 
ATOM     20  C   UNL     1       6.334   3.802  13.139  0.00  0.00    +0.000 A 
ATOM     21  C   UNL     1       6.308   2.995  11.874  0.00  0.00    +0.000 C 
ATOM     22  C   UNL     1       5.312   3.661  14.093  0.00  0.00    +0.000 A 
ATOM     23  C   UNL     1       5.318   4.419  15.285  0.00  0.00    +0.000 A 
BRANCH  17  24
ATOM     24  S   UNL     1       6.530   6.347  16.974  0.00  0.00    +0.000 S 
BRANCH  24  26
ATOM     25  C   UNL     1       7.936   5.755  19.250  0.00  0.00    +0.000 C 
ATOM     26  C   UNL     1       7.564   5.158  17.899  0.00  0.00    +0.000 C 
ENDBRANCH  24  26
ENDBRANCH  17  24
ENDBRANCH  16  23
ENDBRANCH  15  16
ENDBRANCH   1  15
TORSDOF 5
ENDMDL
MODEL 7
REMARK VINA RESULT:      -6.7      2.879      5.745
REMARK  Name = 
REMARK  9 active torsions:
REMARK  status: ('A' for Active; 'I' for Inactive)
REMARK    1  A    between atoms: C_1  and  C_2
REMARK    2  A    between atoms: C_2  and  S_3
REMARK    3  A    between atoms: S_3  and  C_4
REMARK    4  A    between atoms: C_7  and  C_8
REMARK    5  A    between atoms: C_10  and  C_11
REMARK    6  A    between atoms: C_11  and  O_12
REMARK    7  A    between atoms: O_12  and  N_13
REMARK    8  A    between atoms: C_20  and  C_21
REMARK    9  A    between atoms: C_20  and  C_22
REMARK                            x       y       z     vdW  Elec       q    Type
REMARK                         _______ _______ _______ _____ _____    ______ ____
ROOT
ATOM      1  N   UNL     1       5.574   4.642  17.564  0.00  0.00    +0.000 N 
ATOM      2  C   UNL     1       6.005   4.692  18.937  0.00  0.00    +0.000 C 
ATOM      3  N   UNL     1       5.461   3.826  19.917  0.00  0.00    +0.000 N 
ATOM      4  N   UNL     1       6.914   5.518  19.304  0.00  0.00    +0.000 NA
ATOM      5  C   UNL     1       7.550   6.389  18.396  0.00  0.00    +0.000 C 
ATOM      6  N   UNL     1       8.553   7.272  18.862  0.00  0.00    +0.000 N 
ATOM      7  N   UNL     1       7.237   6.376  17.149  0.00  0.00    +0.000 NA
ATOM      8  C   UNL     1       6.217   5.516  16.557  0.00  0.00    +0.000 C 
ATOM      9  C   UNL     1       5.193   6.445  15.890  0.00  0.00    +0.000 C 
ATOM     10  C   UNL     1       6.892   4.653  15.480  0.00  0.00    +0.000 C 
ATOM     11  H   UNL     1       4.770   3.116  19.675  0.00  0.00    +0.000 HD
ATOM     12  H   UNL     1       5.777   3.884  20.895  0.00  0.00    +0.000 HD
ATOM     13  H   UNL     1       8.808   7.283  19.861  0.00  0.00    +0.000 HD
ATOM     14  H   UNL     1       9.037   7.908  18.213  0.00  0.00    +0.000 HD
ENDROOT
BRANCH   1  15
ATOM     15  O   UNL     1       4.705   3.675  17.167  0.00  0.00    +0.000 OA
BRANCH  15  16
ATOM     16  C   UNL     1       3.416   4.243  17.013  0.00  0.00    +0.000 C 
BRANCH  16  23
ATOM     17  C   UNL     1       2.541   5.842  18.844  0.00  0.00    +0.000 A 
ATOM     18  C   UNL     1       1.905   6.035  20.078  0.00  0.00    +0.000 A 
ATOM     19  C   UNL     1       1.523   4.954  20.860  0.00  0.00    +0.000 A 
ATOM     20  C   UNL     1       1.766   3.648  20.423  0.00  0.00    +0.000 A 
ATOM     21  C   UNL     1       1.359   2.482  21.275  0.00  0.00    +0.000 C 
ATOM     22  C   UNL     1       2.386   3.438  19.180  0.00  0.00    +0.000 A 
ATOM     23  C   UNL     1       2.782   4.525  18.369  0.00  0.00    +0.000 A 
BRANCH  17  24
ATOM     24  S   UNL     1       2.973   7.316  17.911  0.00  0.00    +0.000 S 
BRANCH  24  26
ATOM     25  C   UNL     1       1.328   9.507  17.961  0.00  0.00    +0.000 C 
ATOM     26  C   UNL     1       1.925   8.454  18.884  0.00  0.00    +0.000 C 
ENDBRANCH  24  26
ENDBRANCH  17  24
ENDBRANCH  16  23
ENDBRANCH  15  16
ENDBRANCH   1  15
TORSDOF 5
ENDMDL
MODEL 8
REMARK VINA RESULT:      -6.7      1.210      1.265
REMARK  Name = 
REMARK  9 active torsions:
REMARK  status: ('A' for Active; 'I' for Inactive)
REMARK    1  A    between atoms: C_1  and  C_2
REMARK    2  A    between atoms: C_2  and  S_3
REMARK    3  A    between atoms: S_3  and  C_4
REMARK    4  A    between atoms: C_7  and  C_8
REMARK    5  A    between atoms: C_10  and  C_11
REMARK    6  A    between atoms: C_11  and  O_12
REMARK    7  A    between atoms: O_12  and  N_13
REMARK    8  A    between atoms: C_20  and  C_21
REMARK    9  A    between atoms: C_20  and  C_22
REMARK                            x       y       z     vdW  Elec       q    Type
REMARK                         _______ _______ _______ _____ _____    ______ ____
ROOT
ATOM      1  N   UNL     1       3.143   3.850  19.093  0.00  0.00    +0.000 N 
ATOM      2  C   UNL     1       2.817   4.736  20.181  0.00  0.00    +0.000 C 
ATOM      3  N   UNL     1       3.206   6.098  20.170  0.00  0.00    +0.000 N 
ATOM      4  N   UNL     1       2.141   4.313  21.185  0.00  0.00    +0.000 NA
ATOM      5  C   UNL     1       1.667   2.987  21.268  0.00  0.00    +0.000 C 
ATOM      6  N   UNL     1       0.920   2.583  22.399  0.00  0.00    +0.000 N 
ATOM      7  N   UNL     1       1.895   2.151  20.318  0.00  0.00    +0.000 NA
ATOM      8  C   UNL     1       2.657   2.452  19.110  0.00  0.00    +0.000 C 
ATOM      9  C   UNL     1       3.824   1.456  19.067  0.00  0.00    +0.000 C 
ATOM     10  C   UNL     1       1.742   2.210  17.900  0.00  0.00    +0.000 C 
ATOM     11  H   UNL     1       3.703   6.503  19.378  0.00  0.00    +0.000 HD
ATOM     12  H   UNL     1       2.970   6.712  20.962  0.00  0.00    +0.000 HD
ATOM     13  H   UNL     1       0.733   3.252  23.161  0.00  0.00    +0.000 HD
ATOM     14  H   UNL     1       0.555   1.623  22.474  0.00  0.00    +0.000 HD
ENDROOT
BRANCH   1  15
ATOM     15  O   UNL     1       3.746   4.346  17.980  0.00  0.00    +0.000 OA
BRANCH  15  16
ATOM     16  C   UNL     1       5.085   3.884  17.931  0.00  0.00    +0.000 C 
BRANCH  16  23
ATOM     17  C   UNL     1       6.761   5.408  16.689  0.00  0.00    +0.000 A 
ATOM     18  C   UNL     1       7.407   5.781  15.502  0.00  0.00    +0.000 A 
ATOM     19  C   UNL     1       7.088   5.173  14.296  0.00  0.00    +0.000 A 
ATOM     20  C   UNL     1       6.115   4.170  14.249  0.00  0.00    +0.000 A 
ATOM     21  C   UNL     1       5.767   3.520  12.941  0.00  0.00    +0.000 C 
ATOM     22  C   UNL     1       5.472   3.771  15.433  0.00  0.00    +0.000 A 
ATOM     23  C   UNL     1       5.783   4.378  16.670  0.00  0.00    +0.000 A 
BRANCH  17  24
ATOM     24  S   UNL     1       7.269   6.253  18.192  0.00  0.00    +0.000 S 
BRANCH  24  26
ATOM     25  C   UNL     1       8.313   8.776  17.972  0.00  0.00    +0.000 C 
ATOM     26  C   UNL     1       7.132   7.939  17.501  0.00  0.00    +0.000 C 
ENDBRANCH  24  26
ENDBRANCH  17  24
ENDBRANCH  16  23
ENDBRANCH  15  16
ENDBRANCH   1  15
TORSDOF 5
ENDMDL
MODEL 9
REMARK VINA RESULT:      -6.6      1.552      2.322
REMARK  Name = 
REMARK  9 active torsions:
REMARK  status: ('A' for Active; 'I' for Inactive)
REMARK    1  A    between atoms: C_1  and  C_2
REMARK    2  A    between atoms: C_2  and  S_3
REMARK    3  A    between atoms: S_3  and  C_4
REMARK    4  A    between atoms: C_7  and  C_8
REMARK    5  A    between atoms: C_10  and  C_11
REMARK    6  A    between atoms: C_11  and  O_12
REMARK    7  A    between atoms: O_12  and  N_13
REMARK    8  A    between atoms: C_20  and  C_21
REMARK    9  A    between atoms: C_20  and  C_22
REMARK                            x       y       z     vdW  Elec       q    Type
REMARK                         _______ _______ _______ _____ _____    ______ ____
ROOT
ATOM      1  N   UNL     1       3.657   4.784  18.995  0.00  0.00    +0.000 N 
ATOM      2  C   UNL     1       4.195   3.449  19.004  0.00  0.00    +0.000 C 
ATOM      3  N   UNL     1       5.591   3.212  19.019  0.00  0.00    +0.000 N 
ATOM      4  N   UNL     1       3.414   2.432  19.018  0.00  0.00    +0.000 NA
ATOM      5  C   UNL     1       2.010   2.562  19.052  0.00  0.00    +0.000 C 
ATOM      6  N   UNL     1       1.203   1.401  19.075  0.00  0.00    +0.000 N 
ATOM      7  N   UNL     1       1.462   3.725  19.077  0.00  0.00    +0.000 NA
ATOM      8  C   UNL     1       2.192   4.989  19.051  0.00  0.00    +0.000 C 
ATOM      9  C   UNL     1       1.689   5.759  17.822  0.00  0.00    +0.000 C 
ATOM     10  C   UNL     1       1.828   5.773  20.321  0.00  0.00    +0.000 C 
ATOM     11  H   UNL     1       6.261   3.980  19.056  0.00  0.00    +0.000 HD
ATOM     12  H   UNL     1       5.956   2.249  19.016  0.00  0.00    +0.000 HD
ATOM     13  H   UNL     1       1.639   0.467  19.058  0.00  0.00    +0.000 HD
ATOM     14  H   UNL     1       0.176   1.474  19.111  0.00  0.00    +0.000 HD
ENDROOT
BRANCH   1  15
ATOM     15  O   UNL     1       4.495   5.848  19.110  0.00  0.00    +0.000 OA
BRANCH  15  16
ATOM     16  C   UNL     1       4.496   6.574  17.894  0.00  0.00    +0.000 C 
BRANCH  16  23
ATOM     17  C   UNL     1       6.845   5.945  17.021  0.00  0.00    +0.000 A 
ATOM     18  C   UNL     1       7.649   5.288  16.079  0.00  0.00    +0.000 A 
ATOM     19  C   UNL     1       7.086   4.638  14.990  0.00  0.00    +0.000 A 
ATOM     20  C   UNL     1       5.698   4.626  14.818  0.00  0.00    +0.000 A 
ATOM     21  C   UNL     1       5.093   3.929  13.635  0.00  0.00    +0.000 C 
ATOM     22  C   UNL     1       4.877   5.264  15.763  0.00  0.00    +0.000 A 
ATOM     23  C   UNL     1       5.431   5.931  16.878  0.00  0.00    +0.000 A 
BRANCH  17  24
ATOM     24  S   UNL     1       7.684   6.737  18.399  0.00  0.00    +0.000 S 
BRANCH  24  26
ATOM     25  C   UNL     1       8.622   9.310  18.499  0.00  0.00    +0.000 C 
ATOM     26  C   UNL     1       7.824   8.375  17.600  0.00  0.00    +0.000 C 
ENDBRANCH  24  26
ENDBRANCH  17  24
ENDBRANCH  16  23
ENDBRANCH  15  16
ENDBRANCH   1  15
TORSDOF 5
ENDMDL
