MODEL 1
REMARK VINA RESULT:      -7.8      0.000      0.000
REMARK  Name = 
REMARK  6 active torsions:
REMARK  status: ('A' for Active; 'I' for Inactive)
REMARK    1  A    between atoms: C_2  and  C_3
REMARK    2  A    between atoms: C_6  and  N_7
REMARK    3  A    between atoms: C_10  and  N_11
REMARK    4  A    between atoms: N_11  and  C_12
REMARK    5  A    between atoms: C_15  and  C_16
REMARK    6  A    between atoms: C_21  and  C_22
REMARK                            x       y       z     vdW  Elec       q    Type
REMARK                         _______ _______ _______ _____ _____    ______ ____
ROOT
ATOM      1  N   UNL     1      -0.801  12.280  22.759  0.00  0.00    +0.000 N 
ATOM      2  C   UNL     1      -0.584  11.278  21.779  0.00  0.00    +0.000 A 
ATOM      3  C   UNL     1       0.410  10.343  21.976  0.00  0.00    +0.000 A 
ATOM      4  C   UNL     1       0.650   9.453  20.952  0.00  0.00    +0.000 A 
ATOM      5  N   UNL     1      -0.050   9.486  19.806  0.00  0.00    +0.000 NA
ATOM      6  C   UNL     1      -0.996  10.427  19.681  0.00  0.00    +0.000 A 
ATOM      7  N   UNL     1      -1.284  11.324  20.635  0.00  0.00    +0.000 NA
ATOM      8  H   UNL     1      -0.442  11.984  23.661  0.00  0.00    +0.000 HD
ENDROOT
BRANCH   1  12
ATOM      9  C   UNL     1      -4.422  14.311  23.559  0.00  0.00    +0.000 A 
ATOM     10  C   UNL     1      -4.310  12.956  23.859  0.00  0.00    +0.000 A 
ATOM     11  C   UNL     1      -3.125  12.270  23.573  0.00  0.00    +0.000 A 
ATOM     12  C   UNL     1      -2.046  12.927  22.966  0.00  0.00    +0.000 A 
ATOM     13  C   UNL     1      -2.158  14.295  22.692  0.00  0.00    +0.000 A 
ATOM     14  C   UNL     1      -3.342  14.983  22.973  0.00  0.00    +0.000 A 
BRANCH   9  16
ATOM     15  N   UNL     1      -6.608  15.592  24.110  0.00  0.00    +0.000 NA
ATOM     16  C   UNL     1      -5.633  15.015  23.861  0.00  0.00    +0.000 C 
ENDBRANCH   9  16
ENDBRANCH   1  12
BRANCH   6  17
ATOM     17  C   UNL     1      -1.749  10.511  18.413  0.00  0.00    +0.000 A 
ATOM     18  C   UNL     1      -2.840  11.388  18.251  0.00  0.00    +0.000 A 
ATOM     19  C   UNL     1      -3.565  11.442  17.054  0.00  0.00    +0.000 A 
ATOM     20  C   UNL     1      -3.214  10.620  15.987  0.00  0.00    +0.000 A 
ATOM     21  C   UNL     1      -2.135   9.751  16.111  0.00  0.00    +0.000 A 
ATOM     22  C   UNL     1      -1.413   9.700  17.308  0.00  0.00    +0.000 A 
ENDBRANCH   6  17
BRANCH   4  23
ATOM     23  N   UNL     1       1.700   8.514  21.110  0.00  0.00    +0.000 N 
ATOM     24  H   UNL     1       1.910   8.359  22.088  0.00  0.00    +0.000 HD
BRANCH  23  25
ATOM     25  C   UNL     1       1.886   7.384  20.290  0.00  0.00    +0.000 A 
ATOM     26  C   UNL     1       2.386   7.526  18.987  0.00  0.00    +0.000 A 
ATOM     27  C   UNL     1       2.528   6.426  18.142  0.00  0.00    +0.000 A 
ATOM     28  C   UNL     1       2.176   5.155  18.594  0.00  0.00    +0.000 A 
ATOM     29  C   UNL     1       1.719   4.989  19.906  0.00  0.00    +0.000 A 
ATOM     30  C   UNL     1       1.582   6.098  20.753  0.00  0.00    +0.000 A 
BRANCH  28  31
ATOM     31  C   UNL     1       2.268   4.035  17.705  0.00  0.00    +0.000 C 
ATOM     32  N   UNL     1       2.327   3.126  16.986  0.00  0.00    +0.000 NA
ENDBRANCH  28  31
ENDBRANCH  23  25
ENDBRANCH   4  23
TORSDOF 6
ENDMDL
MODEL 2
REMARK VINA RESULT:      -7.8      0.726      1.661
REMARK  Name = 
REMARK  6 active torsions:
REMARK  status: ('A' for Active; 'I' for Inactive)
REMARK    1  A    between atoms: C_2  and  C_3
REMARK    2  A    between atoms: C_6  and  N_7
REMARK    3  A    between atoms: C_10  and  N_11
REMARK    4  A    between atoms: N_11  and  C_12
REMARK    5  A    between atoms: C_15  and  C_16
REMARK    6  A    between atoms: C_21  and  C_22
REMARK                            x       y       z     vdW  Elec       q    Type
REMARK                         _______ _______ _______ _____ _____    ______ ____
ROOT
ATOM      1  N   UNL     1      -0.553  12.300  22.288  0.00  0.00    +0.000 N 
ATOM      2  C   UNL     1      -0.401  11.346  21.250  0.00  0.00    +0.000 A 
ATOM      3  C   UNL     1       0.685  10.498  21.265  0.00  0.00    +0.000 A 
ATOM      4  C   UNL     1       0.845   9.658  20.183  0.00  0.00    +0.000 A 
ATOM      5  N   UNL     1      -0.018   9.658  19.154  0.00  0.00    +0.000 NA
ATOM      6  C   UNL     1      -1.048  10.515  19.204  0.00  0.00    +0.000 A 
ATOM      7  N   UNL     1      -1.265  11.359  20.223  0.00  0.00    +0.000 NA
ATOM      8  H   UNL     1      -0.041  12.014  23.117  0.00  0.00    +0.000 HD
ENDROOT
BRANCH   1  12
ATOM      9  C   UNL     1      -4.380  13.747  23.355  0.00  0.00    +0.000 A 
ATOM     10  C   UNL     1      -3.527  14.545  22.596  0.00  0.00    +0.000 A 
ATOM     11  C   UNL     1      -2.249  14.085  22.262  0.00  0.00    +0.000 A 
ATOM     12  C   UNL     1      -1.803  12.830  22.699  0.00  0.00    +0.000 A 
ATOM     13  C   UNL     1      -2.677  12.024  23.438  0.00  0.00    +0.000 A 
ATOM     14  C   UNL     1      -3.953  12.482  23.777  0.00  0.00    +0.000 A 
BRANCH   9  16
ATOM     15  N   UNL     1      -6.757  14.587  23.963  0.00  0.00    +0.000 NA
ATOM     16  C   UNL     1      -5.692  14.216  23.689  0.00  0.00    +0.000 C 
ENDBRANCH   9  16
ENDBRANCH   1  12
BRANCH   6  17
ATOM     17  C   UNL     1      -1.984  10.564  18.063  0.00  0.00    +0.000 A 
ATOM     18  C   UNL     1      -1.779   9.795  16.900  0.00  0.00    +0.000 A 
ATOM     19  C   UNL     1      -2.657   9.866  15.811  0.00  0.00    +0.000 A 
ATOM     20  C   UNL     1      -3.763  10.709  15.859  0.00  0.00    +0.000 A 
ATOM     21  C   UNL     1      -3.999  11.473  16.997  0.00  0.00    +0.000 A 
ATOM     22  C   UNL     1      -3.121  11.399  18.083  0.00  0.00    +0.000 A 
ENDBRANCH   6  17
BRANCH   4  23
ATOM     23  N   UNL     1       1.981   8.812  20.151  0.00  0.00    +0.000 N 
ATOM     24  H   UNL     1       2.615   9.019  20.913  0.00  0.00    +0.000 HD
BRANCH  23  25
ATOM     25  C   UNL     1       1.952   7.455  19.773  0.00  0.00    +0.000 A 
ATOM     26  C   UNL     1       1.502   6.477  20.672  0.00  0.00    +0.000 A 
ATOM     27  C   UNL     1       1.514   5.124  20.336  0.00  0.00    +0.000 A 
ATOM     28  C   UNL     1       1.972   4.726  19.081  0.00  0.00    +0.000 A 
ATOM     29  C   UNL     1       2.381   5.692  18.155  0.00  0.00    +0.000 A 
ATOM     30  C   UNL     1       2.363   7.051  18.497  0.00  0.00    +0.000 A 
BRANCH  28  31
ATOM     31  C   UNL     1       2.038   3.331  18.759  0.00  0.00    +0.000 C 
ATOM     32  N   UNL     1       2.104   2.201  18.506  0.00  0.00    +0.000 NA
ENDBRANCH  28  31
ENDBRANCH  23  25
ENDBRANCH   4  23
TORSDOF 6
ENDMDL
MODEL 3
REMARK VINA RESULT:      -7.8      1.110      1.688
REMARK  Name = 
REMARK  6 active torsions:
REMARK  status: ('A' for Active; 'I' for Inactive)
REMARK    1  A    between atoms: C_2  and  C_3
REMARK    2  A    between atoms: C_6  and  N_7
REMARK    3  A    between atoms: C_10  and  N_11
REMARK    4  A    between atoms: N_11  and  C_12
REMARK    5  A    between atoms: C_15  and  C_16
REMARK    6  A    between atoms: C_21  and  C_22
REMARK                            x       y       z     vdW  Elec       q    Type
REMARK                         _______ _______ _______ _____ _____    ______ ____
ROOT
ATOM      1  N   UNL     1      -0.660  12.202  21.873  0.00  0.00    +0.000 N 
ATOM      2  C   UNL     1      -0.497  11.315  20.779  0.00  0.00    +0.000 A 
ATOM      3  C   UNL     1       0.643  10.545  20.696  0.00  0.00    +0.000 A 
ATOM      4  C   UNL     1       0.803   9.775  19.564  0.00  0.00    +0.000 A 
ATOM      5  N   UNL     1      -0.109   9.768  18.577  0.00  0.00    +0.000 NA
ATOM      6  C   UNL     1      -1.189  10.547  18.723  0.00  0.00    +0.000 A 
ATOM      7  N   UNL     1      -1.410  11.321  19.796  0.00  0.00    +0.000 NA
ATOM      8  H   UNL     1      -0.088  11.911  22.660  0.00  0.00    +0.000 HD
ENDROOT
BRANCH   1  12
ATOM      9  C   UNL     1      -4.512  13.276  23.248  0.00  0.00    +0.000 A 
ATOM     10  C   UNL     1      -3.924  13.994  22.209  0.00  0.00    +0.000 A 
ATOM     11  C   UNL     1      -2.639  13.663  21.767  0.00  0.00    +0.000 A 
ATOM     12  C   UNL     1      -1.920  12.621  22.370  0.00  0.00    +0.000 A 
ATOM     13  C   UNL     1      -2.529  11.888  23.395  0.00  0.00    +0.000 A 
ATOM     14  C   UNL     1      -3.812  12.219  23.842  0.00  0.00    +0.000 A 
BRANCH   9  16
ATOM     15  N   UNL     1      -6.901  13.887  24.048  0.00  0.00    +0.000 NA
ATOM     16  C   UNL     1      -5.832  13.610  23.694  0.00  0.00    +0.000 C 
ENDBRANCH   9  16
ENDBRANCH   1  12
BRANCH   6  17
ATOM     17  C   UNL     1      -2.184  10.589  17.631  0.00  0.00    +0.000 A 
ATOM     18  C   UNL     1      -2.014   9.851  16.443  0.00  0.00    +0.000 A 
ATOM     19  C   UNL     1      -2.948   9.916  15.401  0.00  0.00    +0.000 A 
ATOM     20  C   UNL     1      -4.076  10.723  15.523  0.00  0.00    +0.000 A 
ATOM     21  C   UNL     1      -4.277  11.456  16.687  0.00  0.00    +0.000 A 
ATOM     22  C   UNL     1      -3.343  11.387  17.726  0.00  0.00    +0.000 A 
ENDBRANCH   6  17
BRANCH   4  23
ATOM     23  N   UNL     1       1.991   9.013  19.432  0.00  0.00    +0.000 N 
ATOM     24  H   UNL     1       2.768   9.458  19.905  0.00  0.00    +0.000 HD
BRANCH  23  25
ATOM     25  C   UNL     1       2.036   7.605  19.439  0.00  0.00    +0.000 A 
ATOM     26  C   UNL     1       2.428   6.901  18.290  0.00  0.00    +0.000 A 
ATOM     27  C   UNL     1       2.430   5.508  18.260  0.00  0.00    +0.000 A 
ATOM     28  C   UNL     1       2.045   4.790  19.391  0.00  0.00    +0.000 A 
ATOM     29  C   UNL     1       1.695   5.475  20.560  0.00  0.00    +0.000 A 
ATOM     30  C   UNL     1       1.699   6.876  20.586  0.00  0.00    +0.000 A 
BRANCH  28  31
ATOM     31  C   UNL     1       1.992   3.359  19.340  0.00  0.00    +0.000 C 
ATOM     32  N   UNL     1       1.963   2.199  19.304  0.00  0.00    +0.000 NA
ENDBRANCH  28  31
ENDBRANCH  23  25
ENDBRANCH   4  23
TORSDOF 6
ENDMDL
MODEL 4
REMARK VINA RESULT:      -7.7      3.532      7.070
REMARK  Name = 
REMARK  6 active torsions:
REMARK  status: ('A' for Active; 'I' for Inactive)
REMARK    1  A    between atoms: C_2  and  C_3
REMARK    2  A    between atoms: C_6  and  N_7
REMARK    3  A    between atoms: C_10  and  N_11
REMARK    4  A    between atoms: N_11  and  C_12
REMARK    5  A    between atoms: C_15  and  C_16
REMARK    6  A    between atoms: C_21  and  C_22
REMARK                            x       y       z     vdW  Elec       q    Type
REMARK                         _______ _______ _______ _____ _____    ______ ____
ROOT
ATOM      1  N   UNL     1       2.107   9.038  17.591  0.00  0.00    +0.000 N 
ATOM      2  C   UNL     1       2.843   7.859  17.873  0.00  0.00    +0.000 A 
ATOM      3  C   UNL     1       4.064   7.663  17.264  0.00  0.00    +0.000 A 
ATOM      4  C   UNL     1       4.695   6.458  17.489  0.00  0.00    +0.000 A 
ATOM      5  N   UNL     1       4.151   5.509  18.270  0.00  0.00    +0.000 NA
ATOM      6  C   UNL     1       2.958   5.767  18.824  0.00  0.00    +0.000 A 
ATOM      7  N   UNL     1       2.288   6.915  18.648  0.00  0.00    +0.000 NA
ATOM      8  H   UNL     1       2.720   9.772  17.251  0.00  0.00    +0.000 HD
ENDROOT
BRANCH   1  12
ATOM      9  C   UNL     1      -0.667  10.962  20.137  0.00  0.00    +0.000 A 
ATOM     10  C   UNL     1       0.635  10.739  20.578  0.00  0.00    +0.000 A 
ATOM     11  C   UNL     1       1.551  10.079  19.752  0.00  0.00    +0.000 A 
ATOM     12  C   UNL     1       1.170   9.618  18.484  0.00  0.00    +0.000 A 
ATOM     13  C   UNL     1      -0.133   9.869  18.039  0.00  0.00    +0.000 A 
ATOM     14  C   UNL     1      -1.052  10.526  18.863  0.00  0.00    +0.000 A 
BRANCH   9  16
ATOM     15  N   UNL     1      -2.367  12.194  21.659  0.00  0.00    +0.000 NA
ATOM     16  C   UNL     1      -1.602  11.646  20.980  0.00  0.00    +0.000 C 
ENDBRANCH   9  16
ENDBRANCH   1  12
BRANCH   6  17
ATOM     17  C   UNL     1       2.320   4.721  19.650  0.00  0.00    +0.000 A 
ATOM     18  C   UNL     1       2.669   4.525  21.001  0.00  0.00    +0.000 A 
ATOM     19  C   UNL     1       2.080   3.514  21.770  0.00  0.00    +0.000 A 
ATOM     20  C   UNL     1       1.125   2.673  21.205  0.00  0.00    +0.000 A 
ATOM     21  C   UNL     1       0.751   2.848  19.877  0.00  0.00    +0.000 A 
ATOM     22  C   UNL     1       1.341   3.860  19.112  0.00  0.00    +0.000 A 
ENDBRANCH   6  17
BRANCH   4  23
ATOM     23  N   UNL     1       5.927   6.211  16.835  0.00  0.00    +0.000 N 
ATOM     24  H   UNL     1       6.677   6.075  17.502  0.00  0.00    +0.000 HD
BRANCH  23  25
ATOM     25  C   UNL     1       6.061   5.462  15.649  0.00  0.00    +0.000 A 
ATOM     26  C   UNL     1       5.047   4.579  15.249  0.00  0.00    +0.000 A 
ATOM     27  C   UNL     1       5.183   3.790  14.107  0.00  0.00    +0.000 A 
ATOM     28  C   UNL     1       6.342   3.880  13.338  0.00  0.00    +0.000 A 
ATOM     29  C   UNL     1       7.343   4.788  13.697  0.00  0.00    +0.000 A 
ATOM     30  C   UNL     1       7.200   5.582  14.843  0.00  0.00    +0.000 A 
BRANCH  28  31
ATOM     31  C   UNL     1       6.505   3.026  12.198  0.00  0.00    +0.000 C 
ATOM     32  N   UNL     1       6.622   2.334  11.273  0.00  0.00    +0.000 NA
ENDBRANCH  28  31
ENDBRANCH  23  25
ENDBRANCH   4  23
TORSDOF 6
ENDMDL
MODEL 5
REMARK VINA RESULT:      -7.7      1.242      8.830
REMARK  Name = 
REMARK  6 active torsions:
REMARK  status: ('A' for Active; 'I' for Inactive)
REMARK    1  A    between atoms: C_2  and  C_3
REMARK    2  A    between atoms: C_6  and  N_7
REMARK    3  A    between atoms: C_10  and  N_11
REMARK    4  A    between atoms: N_11  and  C_12
REMARK    5  A    between atoms: C_15  and  C_16
REMARK    6  A    between atoms: C_21  and  C_22
REMARK                            x       y       z     vdW  Elec       q    Type
REMARK                         _______ _______ _______ _____ _____    ______ ____
ROOT
ATOM      1  N   UNL     1       0.929   8.909  20.956  0.00  0.00    +0.000 N 
ATOM      2  C   UNL     1       0.031   9.961  20.644  0.00  0.00    +0.000 A 
ATOM      3  C   UNL     1      -0.191  10.958  21.570  0.00  0.00    +0.000 A 
ATOM      4  C   UNL     1      -1.147  11.903  21.263  0.00  0.00    +0.000 A 
ATOM      5  N   UNL     1      -1.838  11.862  20.112  0.00  0.00    +0.000 NA
ATOM      6  C   UNL     1      -1.575  10.860  19.262  0.00  0.00    +0.000 A 
ATOM      7  N   UNL     1      -0.660   9.908  19.495  0.00  0.00    +0.000 NA
ATOM      8  H   UNL     1       1.580   9.195  21.680  0.00  0.00    +0.000 HD
ENDROOT
BRANCH   1  12
ATOM      9  C   UNL     1       3.249   6.732  18.171  0.00  0.00    +0.000 A 
ATOM     10  C   UNL     1       2.782   8.001  17.838  0.00  0.00    +0.000 A 
ATOM     11  C   UNL     1       1.990   8.717  18.743  0.00  0.00    +0.000 A 
ATOM     12  C   UNL     1       1.643   8.164  19.983  0.00  0.00    +0.000 A 
ATOM     13  C   UNL     1       2.139   6.899  20.320  0.00  0.00    +0.000 A 
ATOM     14  C   UNL     1       2.927   6.180  19.417  0.00  0.00    +0.000 A 
BRANCH   9  16
ATOM     15  N   UNL     1       4.734   5.423  16.497  0.00  0.00    +0.000 NA
ATOM     16  C   UNL     1       4.067   6.004  17.247  0.00  0.00    +0.000 C 
ENDBRANCH   9  16
ENDBRANCH   1  12
BRANCH   6  17
ATOM     17  C   UNL     1      -2.354  10.770  18.011  0.00  0.00    +0.000 A 
ATOM     18  C   UNL     1      -1.942   9.960  16.934  0.00  0.00    +0.000 A 
ATOM     19  C   UNL     1      -2.672   9.900  15.741  0.00  0.00    +0.000 A 
ATOM     20  C   UNL     1      -3.835  10.651  15.595  0.00  0.00    +0.000 A 
ATOM     21  C   UNL     1      -4.275  11.452  16.643  0.00  0.00    +0.000 A 
ATOM     22  C   UNL     1      -3.544  11.508  17.834  0.00  0.00    +0.000 A 
ENDBRANCH   6  17
BRANCH   4  23
ATOM     23  N   UNL     1      -1.428  12.909  22.220  0.00  0.00    +0.000 N 
ATOM     24  H   UNL     1      -0.814  13.706  22.106  0.00  0.00    +0.000 HD
BRANCH  23  25
ATOM     25  C   UNL     1      -2.722  13.233  22.676  0.00  0.00    +0.000 A 
ATOM     26  C   UNL     1      -3.382  12.398  23.590  0.00  0.00    +0.000 A 
ATOM     27  C   UNL     1      -4.681  12.672  24.014  0.00  0.00    +0.000 A 
ATOM     28  C   UNL     1      -5.343  13.801  23.532  0.00  0.00    +0.000 A 
ATOM     29  C   UNL     1      -4.683  14.669  22.655  0.00  0.00    +0.000 A 
ATOM     30  C   UNL     1      -3.375  14.390  22.236  0.00  0.00    +0.000 A 
BRANCH  28  31
ATOM     31  C   UNL     1      -6.699  14.050  23.923  0.00  0.00    +0.000 C 
ATOM     32  N   UNL     1      -7.793  14.265  24.247  0.00  0.00    +0.000 NA
ENDBRANCH  28  31
ENDBRANCH  23  25
ENDBRANCH   4  23
TORSDOF 6
ENDMDL
MODEL 6
REMARK VINA RESULT:      -7.6      1.206      1.326
REMARK  Name = 
REMARK  6 active torsions:
REMARK  status: ('A' for Active; 'I' for Inactive)
REMARK    1  A    between atoms: C_2  and  C_3
REMARK    2  A    between atoms: C_6  and  N_7
REMARK    3  A    between atoms: C_10  and  N_11
REMARK    4  A    between atoms: N_11  and  C_12
REMARK    5  A    between atoms: C_15  and  C_16
REMARK    6  A    between atoms: C_21  and  C_22
REMARK                            x       y       z     vdW  Elec       q    Type
REMARK                         _______ _______ _______ _____ _____    ______ ____
ROOT
ATOM      1  N   UNL     1      -0.798  11.977  21.731  0.00  0.00    +0.000 N 
ATOM      2  C   UNL     1      -0.582  11.151  20.599  0.00  0.00    +0.000 A 
ATOM      3  C   UNL     1       0.578  10.410  20.514  0.00  0.00    +0.000 A 
ATOM      4  C   UNL     1       0.790   9.702  19.350  0.00  0.00    +0.000 A 
ATOM      5  N   UNL     1      -0.091   9.724  18.337  0.00  0.00    +0.000 NA
ATOM      6  C   UNL     1      -1.194  10.472  18.488  0.00  0.00    +0.000 A 
ATOM      7  N   UNL     1      -1.465  11.185  19.590  0.00  0.00    +0.000 NA
ATOM      8  H   UNL     1      -0.243  11.659  22.519  0.00  0.00    +0.000 HD
ENDROOT
BRANCH   1  12
ATOM      9  C   UNL     1      -4.540  13.275  23.210  0.00  0.00    +0.000 A 
ATOM     10  C   UNL     1      -3.767  12.396  23.964  0.00  0.00    +0.000 A 
ATOM     11  C   UNL     1      -2.540  11.940  23.470  0.00  0.00    +0.000 A 
ATOM     12  C   UNL     1      -2.081  12.344  22.208  0.00  0.00    +0.000 A 
ATOM     13  C   UNL     1      -2.852  13.248  21.469  0.00  0.00    +0.000 A 
ATOM     14  C   UNL     1      -4.081  13.702  21.958  0.00  0.00    +0.000 A 
BRANCH   9  16
ATOM     15  N   UNL     1      -6.804  14.126  24.143  0.00  0.00    +0.000 NA
ATOM     16  C   UNL     1      -5.792  13.748  23.721  0.00  0.00    +0.000 C 
ENDBRANCH   9  16
ENDBRANCH   1  12
BRANCH   6  17
ATOM     17  C   UNL     1      -2.156  10.547  17.369  0.00  0.00    +0.000 A 
ATOM     18  C   UNL     1      -3.266  11.414  17.399  0.00  0.00    +0.000 A 
ATOM     19  C   UNL     1      -4.188  11.461  16.346  0.00  0.00    +0.000 A 
ATOM     20  C   UNL     1      -4.021  10.639  15.235  0.00  0.00    +0.000 A 
ATOM     21  C   UNL     1      -2.930   9.780  15.170  0.00  0.00    +0.000 A 
ATOM     22  C   UNL     1      -2.010   9.737  16.222  0.00  0.00    +0.000 A 
ENDBRANCH   6  17
BRANCH   4  23
ATOM     23  N   UNL     1       1.998   8.973  19.218  0.00  0.00    +0.000 N 
ATOM     24  H   UNL     1       2.775   9.471  19.636  0.00  0.00    +0.000 HD
BRANCH  23  25
ATOM     25  C   UNL     1       2.094   7.570  19.303  0.00  0.00    +0.000 A 
ATOM     26  C   UNL     1       2.521   6.820  18.197  0.00  0.00    +0.000 A 
ATOM     27  C   UNL     1       2.574   5.427  18.244  0.00  0.00    +0.000 A 
ATOM     28  C   UNL     1       2.204   4.759  19.410  0.00  0.00    +0.000 A 
ATOM     29  C   UNL     1       1.818   5.494  20.537  0.00  0.00    +0.000 A 
ATOM     30  C   UNL     1       1.772   6.894  20.486  0.00  0.00    +0.000 A 
BRANCH  28  31
ATOM     31  C   UNL     1       2.202   3.326  19.438  0.00  0.00    +0.000 C 
ATOM     32  N   UNL     1       2.214   2.166  19.467  0.00  0.00    +0.000 NA
ENDBRANCH  28  31
ENDBRANCH  23  25
ENDBRANCH   4  23
TORSDOF 6
ENDMDL
MODEL 7
REMARK VINA RESULT:      -7.6      0.978      1.200
REMARK  Name = 
REMARK  6 active torsions:
REMARK  status: ('A' for Active; 'I' for Inactive)
REMARK    1  A    between atoms: C_2  and  C_3
REMARK    2  A    between atoms: C_6  and  N_7
REMARK    3  A    between atoms: C_10  and  N_11
REMARK    4  A    between atoms: N_11  and  C_12
REMARK    5  A    between atoms: C_15  and  C_16
REMARK    6  A    between atoms: C_21  and  C_22
REMARK                            x       y       z     vdW  Elec       q    Type
REMARK                         _______ _______ _______ _____ _____    ______ ____
ROOT
ATOM      1  N   UNL     1      -1.141  12.108  22.409  0.00  0.00    +0.000 N 
ATOM      2  C   UNL     1      -0.835  11.257  21.316  0.00  0.00    +0.000 A 
ATOM      3  C   UNL     1       0.319  10.504  21.348  0.00  0.00    +0.000 A 
ATOM      4  C   UNL     1       0.625   9.771  20.221  0.00  0.00    +0.000 A 
ATOM      5  N   UNL     1      -0.163   9.783  19.133  0.00  0.00    +0.000 NA
ATOM      6  C   UNL     1      -1.266  10.544  19.171  0.00  0.00    +0.000 A 
ATOM      7  N   UNL     1      -1.625  11.282  20.232  0.00  0.00    +0.000 NA
ATOM      8  H   UNL     1      -0.662  11.799  23.250  0.00  0.00    +0.000 HD
ENDROOT
BRANCH   1  12
ATOM      9  C   UNL     1      -5.131  13.051  23.439  0.00  0.00    +0.000 A 
ATOM     10  C   UNL     1      -4.642  13.399  22.183  0.00  0.00    +0.000 A 
ATOM     11  C   UNL     1      -3.315  13.115  21.844  0.00  0.00    +0.000 A 
ATOM     12  C   UNL     1      -2.457  12.497  22.764  0.00  0.00    +0.000 A 
ATOM     13  C   UNL     1      -2.965  12.126  24.015  0.00  0.00    +0.000 A 
ATOM     14  C   UNL     1      -4.290  12.412  24.358  0.00  0.00    +0.000 A 
BRANCH   9  16
ATOM     15  N   UNL     1      -7.599  13.564  24.050  0.00  0.00    +0.000 NA
ATOM     16  C   UNL     1      -6.493  13.334  23.782  0.00  0.00    +0.000 C 
ENDBRANCH   9  16
ENDBRANCH   1  12
BRANCH   6  17
ATOM     17  C   UNL     1      -2.124  10.608  17.970  0.00  0.00    +0.000 A 
ATOM     18  C   UNL     1      -3.262  11.436  17.913  0.00  0.00    +0.000 A 
ATOM     19  C   UNL     1      -4.086  11.471  16.781  0.00  0.00    +0.000 A 
ATOM     20  C   UNL     1      -3.789  10.677  15.676  0.00  0.00    +0.000 A 
ATOM     21  C   UNL     1      -2.666   9.857  15.698  0.00  0.00    +0.000 A 
ATOM     22  C   UNL     1      -1.845   9.826  16.829  0.00  0.00    +0.000 A 
ENDBRANCH   6  17
BRANCH   4  23
ATOM     23  N   UNL     1       1.831   9.027  20.210  0.00  0.00    +0.000 N 
ATOM     24  H   UNL     1       2.393   9.226  21.029  0.00  0.00    +0.000 HD
BRANCH  23  25
ATOM     25  C   UNL     1       1.946   7.707  19.733  0.00  0.00    +0.000 A 
ATOM     26  C   UNL     1       2.397   7.460  18.427  0.00  0.00    +0.000 A 
ATOM     27  C   UNL     1       2.470   6.164  17.919  0.00  0.00    +0.000 A 
ATOM     28  C   UNL     1       2.096   5.085  18.718  0.00  0.00    +0.000 A 
ATOM     29  C   UNL     1       1.687   5.309  20.037  0.00  0.00    +0.000 A 
ATOM     30  C   UNL     1       1.621   6.614  20.545  0.00  0.00    +0.000 A 
BRANCH  28  31
ATOM     31  C   UNL     1       2.115   3.759  18.175  0.00  0.00    +0.000 C 
ATOM     32  N   UNL     1       2.117   2.687  17.731  0.00  0.00    +0.000 NA
ENDBRANCH  28  31
ENDBRANCH  23  25
ENDBRANCH   4  23
TORSDOF 6
ENDMDL
MODEL 8
REMARK VINA RESULT:      -7.6      3.719      7.626
REMARK  Name = 
REMARK  6 active torsions:
REMARK  status: ('A' for Active; 'I' for Inactive)
REMARK    1  A    between atoms: C_2  and  C_3
REMARK    2  A    between atoms: C_6  and  N_7
REMARK    3  A    between atoms: C_10  and  N_11
REMARK    4  A    between atoms: N_11  and  C_12
REMARK    5  A    between atoms: C_15  and  C_16
REMARK    6  A    between atoms: C_21  and  C_22
REMARK                            x       y       z     vdW  Elec       q    Type
REMARK                         _______ _______ _______ _____ _____    ______ ____
ROOT
ATOM      1  N   UNL     1       2.292   8.678  17.841  0.00  0.00    +0.000 N 
ATOM      2  C   UNL     1       3.190   7.585  17.934  0.00  0.00    +0.000 A 
ATOM      3  C   UNL     1       4.257   7.510  17.063  0.00  0.00    +0.000 A 
ATOM      4  C   UNL     1       5.043   6.379  17.125  0.00  0.00    +0.000 A 
ATOM      5  N   UNL     1       4.789   5.387  17.994  0.00  0.00    +0.000 NA
ATOM      6  C   UNL     1       3.731   5.525  18.805  0.00  0.00    +0.000 A 
ATOM      7  N   UNL     1       2.924   6.595  18.800  0.00  0.00    +0.000 NA
ATOM      8  H   UNL     1       2.733   9.468  17.382  0.00  0.00    +0.000 HD
ENDROOT
BRANCH   1  12
ATOM      9  C   UNL     1       0.169  10.289  21.123  0.00  0.00    +0.000 A 
ATOM     10  C   UNL     1       0.852   9.084  21.268  0.00  0.00    +0.000 A 
ATOM     11  C   UNL     1       1.535   8.530  20.179  0.00  0.00    +0.000 A 
ATOM     12  C   UNL     1       1.525   9.166  18.930  0.00  0.00    +0.000 A 
ATOM     13  C   UNL     1       0.858  10.389  18.801  0.00  0.00    +0.000 A 
ATOM     14  C   UNL     1       0.172  10.944  19.886  0.00  0.00    +0.000 A 
BRANCH   9  16
ATOM     15  N   UNL     1      -1.075  11.318  23.153  0.00  0.00    +0.000 NA
ATOM     16  C   UNL     1      -0.522  10.860  22.241  0.00  0.00    +0.000 C 
ENDBRANCH   9  16
ENDBRANCH   1  12
BRANCH   6  17
ATOM     17  C   UNL     1       3.407   4.426  19.738  0.00  0.00    +0.000 A 
ATOM     18  C   UNL     1       4.085   3.192  19.697  0.00  0.00    +0.000 A 
ATOM     19  C   UNL     1       3.755   2.145  20.567  0.00  0.00    +0.000 A 
ATOM     20  C   UNL     1       2.736   2.309  21.502  0.00  0.00    +0.000 A 
ATOM     21  C   UNL     1       2.055   3.519  21.574  0.00  0.00    +0.000 A 
ATOM     22  C   UNL     1       2.389   4.563  20.705  0.00  0.00    +0.000 A 
ENDBRANCH   6  17
BRANCH   4  23
ATOM     23  N   UNL     1       6.115   6.256  16.207  0.00  0.00    +0.000 N 
ATOM     24  H   UNL     1       7.010   6.349  16.672  0.00  0.00    +0.000 HD
BRANCH  23  25
ATOM     25  C   UNL     1       6.122   5.376  15.106  0.00  0.00    +0.000 A 
ATOM     26  C   UNL     1       5.031   4.527  14.869  0.00  0.00    +0.000 A 
ATOM     27  C   UNL     1       5.040   3.613  13.816  0.00  0.00    +0.000 A 
ATOM     28  C   UNL     1       6.147   3.539  12.973  0.00  0.00    +0.000 A 
ATOM     29  C   UNL     1       7.226   4.409  13.168  0.00  0.00    +0.000 A 
ATOM     30  C   UNL     1       7.209   5.329  14.225  0.00  0.00    +0.000 A 
BRANCH  28  31
ATOM     31  C   UNL     1       6.180   2.559  11.928  0.00  0.00    +0.000 C 
ATOM     32  N   UNL     1       6.220   1.762  11.085  0.00  0.00    +0.000 NA
ENDBRANCH  28  31
ENDBRANCH  23  25
ENDBRANCH   4  23
TORSDOF 6
ENDMDL
MODEL 9
REMARK VINA RESULT:      -7.5      0.292      1.272
REMARK  Name = 
REMARK  6 active torsions:
REMARK  status: ('A' for Active; 'I' for Inactive)
REMARK    1  A    between atoms: C_2  and  C_3
REMARK    2  A    between atoms: C_6  and  N_7
REMARK    3  A    between atoms: C_10  and  N_11
REMARK    4  A    between atoms: N_11  and  C_12
REMARK    5  A    between atoms: C_15  and  C_16
REMARK    6  A    between atoms: C_21  and  C_22
REMARK                            x       y       z     vdW  Elec       q    Type
REMARK                         _______ _______ _______ _____ _____    ______ ____
ROOT
ATOM      1  N   UNL     1      -0.661  12.579  22.650  0.00  0.00    +0.000 N 
ATOM      2  C   UNL     1      -0.508  11.539  21.699  0.00  0.00    +0.000 A 
ATOM      3  C   UNL     1       0.516  10.629  21.850  0.00  0.00    +0.000 A 
ATOM      4  C   UNL     1       0.687   9.698  20.847  0.00  0.00    +0.000 A 
ATOM      5  N   UNL     1      -0.107   9.672  19.764  0.00  0.00    +0.000 NA
ATOM      6  C   UNL     1      -1.078  10.592  19.680  0.00  0.00    +0.000 A 
ATOM      7  N   UNL     1      -1.301  11.525  20.617  0.00  0.00    +0.000 NA
ATOM      8  H   UNL     1      -0.222  12.328  23.531  0.00  0.00    +0.000 HD
ENDROOT
BRANCH   1  12
ATOM      9  C   UNL     1      -4.439  14.350  23.332  0.00  0.00    +0.000 A 
ATOM     10  C   UNL     1      -3.457  15.061  22.647  0.00  0.00    +0.000 A 
ATOM     11  C   UNL     1      -2.195  14.493  22.441  0.00  0.00    +0.000 A 
ATOM     12  C   UNL     1      -1.896  13.215  22.934  0.00  0.00    +0.000 A 
ATOM     13  C   UNL     1      -2.897  12.498  23.599  0.00  0.00    +0.000 A 
ATOM     14  C   UNL     1      -4.158  13.065  23.810  0.00  0.00    +0.000 A 
BRANCH   9  16
ATOM     15  N   UNL     1      -6.782  15.402  23.690  0.00  0.00    +0.000 NA
ATOM     16  C   UNL     1      -5.733  14.930  23.535  0.00  0.00    +0.000 C 
ENDBRANCH   9  16
ENDBRANCH   1  12
BRANCH   6  17
ATOM     17  C   UNL     1      -1.934  10.609  18.477  0.00  0.00    +0.000 A 
ATOM     18  C   UNL     1      -1.607   9.873  17.321  0.00  0.00    +0.000 A 
ATOM     19  C   UNL     1      -2.410   9.915  16.174  0.00  0.00    +0.000 A 
ATOM     20  C   UNL     1      -3.563  10.695  16.157  0.00  0.00    +0.000 A 
ATOM     21  C   UNL     1      -3.919  11.424  17.286  0.00  0.00    +0.000 A 
ATOM     22  C   UNL     1      -3.115  11.379  18.430  0.00  0.00    +0.000 A 
ENDBRANCH   6  17
BRANCH   4  23
ATOM     23  N   UNL     1       1.764   8.784  20.955  0.00  0.00    +0.000 N 
ATOM     24  H   UNL     1       2.059   8.676  21.918  0.00  0.00    +0.000 HD
BRANCH  23  25
ATOM     25  C   UNL     1       1.901   7.620  20.172  0.00  0.00    +0.000 A 
ATOM     26  C   UNL     1       2.394   7.701  18.862  0.00  0.00    +0.000 A 
ATOM     27  C   UNL     1       2.488   6.569  18.052  0.00  0.00    +0.000 A 
ATOM     28  C   UNL     1       2.094   5.328  18.550  0.00  0.00    +0.000 A 
ATOM     29  C   UNL     1       1.643   5.222  19.870  0.00  0.00    +0.000 A 
ATOM     30  C   UNL     1       1.555   6.362  20.680  0.00  0.00    +0.000 A 
BRANCH  28  31
ATOM     31  C   UNL     1       2.137   4.176  17.698  0.00  0.00    +0.000 C 
ATOM     32  N   UNL     1       2.160   3.237  17.017  0.00  0.00    +0.000 NA
ENDBRANCH  28  31
ENDBRANCH  23  25
ENDBRANCH   4  23
TORSDOF 6
ENDMDL
