MODEL 1
REMARK VINA RESULT:      -7.0      0.000      0.000
REMARK  Name = 
REMARK  5 active torsions:
REMARK  status: ('A' for Active; 'I' for Inactive)
REMARK    1  A    between atoms: C_2  and  C_4
REMARK    2  A    between atoms: C_9  and  S_10
REMARK    3  A    between atoms: S_10  and  N_13
REMARK    4  A    between atoms: N_13  and  C_14
REMARK    5  A    between atoms: C_14  and  C_15
REMARK                            x       y       z     vdW  Elec       q    Type
REMARK                         _______ _______ _______ _____ _____    ______ ____
ROOT
ATOM      1  C   UNL     1       3.283   4.086  17.766  0.00  0.00    +0.000 A 
ATOM      2  C   UNL     1       2.630   5.318  17.904  0.00  0.00    +0.000 A 
ATOM      3  C   UNL     1       3.358   6.505  17.809  0.00  0.00    +0.000 A 
ATOM      4 BR   UNL     1       2.479   8.163  18.031  0.00  0.00    +0.000 Br
ATOM      5  C   UNL     1       4.729   6.479  17.562  0.00  0.00    +0.000 A 
ATOM      6  C   UNL     1       5.367   5.247  17.400  0.00  0.00    +0.000 A 
ATOM      7  C   UNL     1       4.655   4.047  17.502  0.00  0.00    +0.000 A 
ENDROOT
BRANCH   1   9
ATOM      8  N   UNL     1       3.155   1.663  17.969  0.00  0.00    +0.000 N 
ATOM      9  C   UNL     1       2.477   2.845  17.889  0.00  0.00    +0.000 C 
ATOM     10  O   UNL     1       1.255   2.883  17.948  0.00  0.00    +0.000 OA
ATOM     11  H   UNL     1       2.599   0.837  18.156  0.00  0.00    +0.000 HD
ATOM     12  H   UNL     1       4.146   1.606  18.164  0.00  0.00    +0.000 HD
ENDBRANCH   1   9
BRANCH   6  13
ATOM     13  S   UNL     1       7.118   5.210  17.125  0.00  0.00    +0.000 S 
ATOM     14  O   UNL     1       7.513   6.544  16.740  0.00  0.00    +0.000 OA
ATOM     15  O   UNL     1       7.739   4.514  18.230  0.00  0.00    +0.000 OA
BRANCH  13  16
ATOM     16  N   UNL     1       7.255   4.249  15.753  0.00  0.00    +0.000 NA
ATOM     17  H   UNL     1       6.849   3.322  15.907  0.00  0.00    +0.000 HD
BRANCH  16  18
ATOM     18  C   UNL     1       6.946   4.867  14.448  0.00  0.00    +0.000 C 
BRANCH  18  19
ATOM     19  C   UNL     1       6.232   3.865  13.551  0.00  0.00    +0.000 C 
ATOM     20  F   UNL     1       4.890   4.100  13.611  0.00  0.00    +0.000 F 
ENDBRANCH  18  19
ENDBRANCH  16  18
ENDBRANCH  13  16
ENDBRANCH   6  13
TORSDOF 5
ENDMDL
MODEL 2
REMARK VINA RESULT:      -6.9      1.271      1.312
REMARK  Name = 
REMARK  5 active torsions:
REMARK  status: ('A' for Active; 'I' for Inactive)
REMARK    1  A    between atoms: C_2  and  C_4
REMARK    2  A    between atoms: C_9  and  S_10
REMARK    3  A    between atoms: S_10  and  N_13
REMARK    4  A    between atoms: N_13  and  C_14
REMARK    5  A    between atoms: C_14  and  C_15
REMARK                            x       y       z     vdW  Elec       q    Type
REMARK                         _______ _______ _______ _____ _____    ______ ____
ROOT
ATOM      1  C   UNL     1       3.229   3.755  17.635  0.00  0.00    +0.000 A 
ATOM      2  C   UNL     1       2.711   5.016  17.960  0.00  0.00    +0.000 A 
ATOM      3  C   UNL     1       3.417   6.168  17.612  0.00  0.00    +0.000 A 
ATOM      4 BR   UNL     1       2.732   7.864  18.083  0.00  0.00    +0.000 Br
ATOM      5  C   UNL     1       4.628   6.080  16.929  0.00  0.00    +0.000 A 
ATOM      6  C   UNL     1       5.124   4.819  16.586  0.00  0.00    +0.000 A 
ATOM      7  C   UNL     1       4.435   3.653  16.936  0.00  0.00    +0.000 A 
ENDROOT
BRANCH   1   9
ATOM      8  N   UNL     1       3.165   1.430  18.356  0.00  0.00    +0.000 N 
ATOM      9  C   UNL     1       2.456   2.552  18.036  0.00  0.00    +0.000 C 
ATOM     10  O   UNL     1       1.235   2.575  18.107  0.00  0.00    +0.000 OA
ATOM     11  H   UNL     1       2.632   0.652  18.726  0.00  0.00    +0.000 HD
ATOM     12  H   UNL     1       4.159   1.439  18.542  0.00  0.00    +0.000 HD
ENDBRANCH   1   9
BRANCH   6  13
ATOM     13  S   UNL     1       6.684   4.702  15.752  0.00  0.00    +0.000 S 
ATOM     14  O   UNL     1       6.845   5.914  14.984  0.00  0.00    +0.000 OA
ATOM     15  O   UNL     1       7.678   4.259  16.703  0.00  0.00    +0.000 OA
BRANCH  13  16
ATOM     16  N   UNL     1       6.419   3.461  14.649  0.00  0.00    +0.000 NA
ATOM     17  H   UNL     1       6.113   2.606  15.120  0.00  0.00    +0.000 HD
BRANCH  16  18
ATOM     18  C   UNL     1       5.701   3.792  13.403  0.00  0.00    +0.000 C 
BRANCH  18  19
ATOM     19  C   UNL     1       6.576   3.480  12.196  0.00  0.00    +0.000 C 
ATOM     20  F   UNL     1       7.401   4.540  11.966  0.00  0.00    +0.000 F 
ENDBRANCH  18  19
ENDBRANCH  16  18
ENDBRANCH  13  16
ENDBRANCH   6  13
TORSDOF 5
ENDMDL
MODEL 3
REMARK VINA RESULT:      -6.9      3.446      5.677
REMARK  Name = 
REMARK  5 active torsions:
REMARK  status: ('A' for Active; 'I' for Inactive)
REMARK    1  A    between atoms: C_2  and  C_4
REMARK    2  A    between atoms: C_9  and  S_10
REMARK    3  A    between atoms: S_10  and  N_13
REMARK    4  A    between atoms: N_13  and  C_14
REMARK    5  A    between atoms: C_14  and  C_15
REMARK                            x       y       z     vdW  Elec       q    Type
REMARK                         _______ _______ _______ _____ _____    ______ ____
ROOT
ATOM      1  C   UNL     1       6.244   4.370  15.693  0.00  0.00    +0.000 A 
ATOM      2  C   UNL     1       7.071   4.970  16.652  0.00  0.00    +0.000 A 
ATOM      3  C   UNL     1       6.697   4.960  17.996  0.00  0.00    +0.000 A 
ATOM      4 BR   UNL     1       7.800   5.801  19.281  0.00  0.00    +0.000 Br
ATOM      5  C   UNL     1       5.514   4.346  18.400  0.00  0.00    +0.000 A 
ATOM      6  C   UNL     1       4.709   3.727  17.440  0.00  0.00    +0.000 A 
ATOM      7  C   UNL     1       5.062   3.737  16.087  0.00  0.00    +0.000 A 
ENDROOT
BRANCH   1   9
ATOM      8  N   UNL     1       6.194   3.436  13.445  0.00  0.00    +0.000 N 
ATOM      9  C   UNL     1       6.668   4.415  14.271  0.00  0.00    +0.000 C 
ATOM     10  O   UNL     1       7.387   5.310  13.849  0.00  0.00    +0.000 OA
ATOM     11  H   UNL     1       6.407   3.538  12.460  0.00  0.00    +0.000 HD
ATOM     12  H   UNL     1       5.421   2.832  13.691  0.00  0.00    +0.000 HD
ENDBRANCH   1   9
BRANCH   6  13
ATOM     13  S   UNL     1       3.183   2.979  17.946  0.00  0.00    +0.000 S 
ATOM     14  O   UNL     1       2.164   3.436  17.031  0.00  0.00    +0.000 OA
ATOM     15  O   UNL     1       3.422   1.575  18.190  0.00  0.00    +0.000 OA
BRANCH  13  16
ATOM     16  N   UNL     1       2.878   3.726  19.421  0.00  0.00    +0.000 NA
ATOM     17  H   UNL     1       2.150   4.440  19.332  0.00  0.00    +0.000 HD
BRANCH  16  18
ATOM     18  C   UNL     1       2.784   2.869  20.619  0.00  0.00    +0.000 C 
BRANCH  18  19
ATOM     19  C   UNL     1       1.350   2.839  21.129  0.00  0.00    +0.000 C 
ATOM     20  F   UNL     1       0.646   3.836  20.520  0.00  0.00    +0.000 F 
ENDBRANCH  18  19
ENDBRANCH  16  18
ENDBRANCH  13  16
ENDBRANCH   6  13
TORSDOF 5
ENDMDL
MODEL 4
REMARK VINA RESULT:      -6.8      1.550      1.606
REMARK  Name = 
REMARK  5 active torsions:
REMARK  status: ('A' for Active; 'I' for Inactive)
REMARK    1  A    between atoms: C_2  and  C_4
REMARK    2  A    between atoms: C_9  and  S_10
REMARK    3  A    between atoms: S_10  and  N_13
REMARK    4  A    between atoms: N_13  and  C_14
REMARK    5  A    between atoms: C_14  and  C_15
REMARK                            x       y       z     vdW  Elec       q    Type
REMARK                         _______ _______ _______ _____ _____    ______ ____
ROOT
ATOM      1  C   UNL     1       3.502   3.355  17.805  0.00  0.00    +0.000 A 
ATOM      2  C   UNL     1       2.872   4.539  18.210  0.00  0.00    +0.000 A 
ATOM      3  C   UNL     1       3.383   5.772  17.805  0.00  0.00    +0.000 A 
ATOM      4 BR   UNL     1       2.549   7.367  18.383  0.00  0.00    +0.000 Br
ATOM      5  C   UNL     1       4.509   5.841  16.988  0.00  0.00    +0.000 A 
ATOM      6  C   UNL     1       5.116   4.655  16.567  0.00  0.00    +0.000 A 
ATOM      7  C   UNL     1       4.623   3.409  16.972  0.00  0.00    +0.000 A 
ENDROOT
BRANCH   1   9
ATOM      8  N   UNL     1       1.582   1.986  18.411  0.00  0.00    +0.000 N 
ATOM      9  C   UNL     1       2.938   2.063  18.268  0.00  0.00    +0.000 C 
ATOM     10  O   UNL     1       3.655   1.095  18.482  0.00  0.00    +0.000 OA
ATOM     11  H   UNL     1       1.204   1.071  18.627  0.00  0.00    +0.000 HD
ATOM     12  H   UNL     1       0.946   2.669  18.021  0.00  0.00    +0.000 HD
ENDBRANCH   1   9
BRANCH   6  13
ATOM     13  S   UNL     1       6.573   4.740  15.560  0.00  0.00    +0.000 S 
ATOM     14  O   UNL     1       6.526   5.998  14.855  0.00  0.00    +0.000 OA
ATOM     15  O   UNL     1       7.708   4.352  16.366  0.00  0.00    +0.000 OA
BRANCH  13  16
ATOM     16  N   UNL     1       6.300   3.536  14.419  0.00  0.00    +0.000 NA
ATOM     17  H   UNL     1       5.517   2.936  14.692  0.00  0.00    +0.000 HD
BRANCH  16  18
ATOM     18  C   UNL     1       6.340   3.918  12.994  0.00  0.00    +0.000 C 
BRANCH  18  19
ATOM     19  C   UNL     1       5.557   2.912  12.160  0.00  0.00    +0.000 C 
ATOM     20  F   UNL     1       4.472   3.538  11.623  0.00  0.00    +0.000 F 
ENDBRANCH  18  19
ENDBRANCH  16  18
ENDBRANCH  13  16
ENDBRANCH   6  13
TORSDOF 5
ENDMDL
MODEL 5
REMARK VINA RESULT:      -6.7      3.611      5.911
REMARK  Name = 
REMARK  5 active torsions:
REMARK  status: ('A' for Active; 'I' for Inactive)
REMARK    1  A    between atoms: C_2  and  C_4
REMARK    2  A    between atoms: C_9  and  S_10
REMARK    3  A    between atoms: S_10  and  N_13
REMARK    4  A    between atoms: N_13  and  C_14
REMARK    5  A    between atoms: C_14  and  C_15
REMARK                            x       y       z     vdW  Elec       q    Type
REMARK                         _______ _______ _______ _____ _____    ______ ____
ROOT
ATOM      1  C   UNL     1       6.776   5.264  18.098  0.00  0.00    +0.000 A 
ATOM      2  C   UNL     1       7.053   5.161  16.729  0.00  0.00    +0.000 A 
ATOM      3  C   UNL     1       6.169   4.482  15.890  0.00  0.00    +0.000 A 
ATOM      4 BR   UNL     1       6.566   4.316  14.050  0.00  0.00    +0.000 Br
ATOM      5  C   UNL     1       5.003   3.915  16.397  0.00  0.00    +0.000 A 
ATOM      6  C   UNL     1       4.721   4.044  17.759  0.00  0.00    +0.000 A 
ATOM      7  C   UNL     1       5.601   4.713  18.617  0.00  0.00    +0.000 A 
ENDROOT
BRANCH   1   9
ATOM      8  N   UNL     1       8.151   5.356  20.107  0.00  0.00    +0.000 N 
ATOM      9  C   UNL     1       7.748   5.981  18.961  0.00  0.00    +0.000 C 
ATOM     10  O   UNL     1       8.195   7.075  18.644  0.00  0.00    +0.000 OA
ATOM     11  H   UNL     1       8.889   5.810  20.631  0.00  0.00    +0.000 HD
ATOM     12  H   UNL     1       7.997   4.372  20.281  0.00  0.00    +0.000 HD
ENDBRANCH   1   9
BRANCH   6  13
ATOM     13  S   UNL     1       3.257   3.290  18.415  0.00  0.00    +0.000 S 
ATOM     14  O   UNL     1       2.130   4.000  17.859  0.00  0.00    +0.000 OA
ATOM     15  O   UNL     1       3.392   1.855  18.299  0.00  0.00    +0.000 OA
BRANCH  13  16
ATOM     16  N   UNL     1       3.331   3.697  20.044  0.00  0.00    +0.000 NA
ATOM     17  H   UNL     1       2.935   4.627  20.212  0.00  0.00    +0.000 HD
BRANCH  16  18
ATOM     18  C   UNL     1       2.961   2.662  21.029  0.00  0.00    +0.000 C 
BRANCH  18  19
ATOM     19  C   UNL     1       1.559   2.926  21.563  0.00  0.00    +0.000 C 
ATOM     20  F   UNL     1       0.668   2.800  20.539  0.00  0.00    +0.000 F 
ENDBRANCH  18  19
ENDBRANCH  16  18
ENDBRANCH  13  16
ENDBRANCH   6  13
TORSDOF 5
ENDMDL
MODEL 6
REMARK VINA RESULT:      -6.7      1.084      1.086
REMARK  Name = 
REMARK  5 active torsions:
REMARK  status: ('A' for Active; 'I' for Inactive)
REMARK    1  A    between atoms: C_2  and  C_4
REMARK    2  A    between atoms: C_9  and  S_10
REMARK    3  A    between atoms: S_10  and  N_13
REMARK    4  A    between atoms: N_13  and  C_14
REMARK    5  A    between atoms: C_14  and  C_15
REMARK                            x       y       z     vdW  Elec       q    Type
REMARK                         _______ _______ _______ _____ _____    ______ ____
ROOT
ATOM      1  C   UNL     1       3.745   4.029  18.139  0.00  0.00    +0.000 A 
ATOM      2  C   UNL     1       2.968   5.186  18.282  0.00  0.00    +0.000 A 
ATOM      3  C   UNL     1       3.459   6.412  17.834  0.00  0.00    +0.000 A 
ATOM      4 BR   UNL     1       2.421   7.976  18.061  0.00  0.00    +0.000 Br
ATOM      5  C   UNL     1       4.711   6.499  17.229  0.00  0.00    +0.000 A 
ATOM      6  C   UNL     1       5.468   5.335  17.067  0.00  0.00    +0.000 A 
ATOM      7  C   UNL     1       4.996   4.099  17.520  0.00  0.00    +0.000 A 
ENDROOT
BRANCH   1   9
ATOM      8  N   UNL     1       3.853   1.601  18.292  0.00  0.00    +0.000 N 
ATOM      9  C   UNL     1       3.195   2.745  18.642  0.00  0.00    +0.000 C 
ATOM     10  O   UNL     1       2.210   2.715  19.368  0.00  0.00    +0.000 OA
ATOM     11  H   UNL     1       3.529   0.745  18.725  0.00  0.00    +0.000 HD
ATOM     12  H   UNL     1       4.788   1.597  17.905  0.00  0.00    +0.000 HD
ENDBRANCH   1   9
BRANCH   6  13
ATOM     13  S   UNL     1       7.078   5.448  16.334  0.00  0.00    +0.000 S 
ATOM     14  O   UNL     1       7.509   6.819  16.469  0.00  0.00    +0.000 OA
ATOM     15  O   UNL     1       7.876   4.342  16.813  0.00  0.00    +0.000 OA
BRANCH  13  16
ATOM     16  N   UNL     1       6.758   5.200  14.703  0.00  0.00    +0.000 NA
ATOM     17  H   UNL     1       7.437   5.689  14.113  0.00  0.00    +0.000 HD
BRANCH  16  18
ATOM     18  C   UNL     1       6.409   3.833  14.271  0.00  0.00    +0.000 C 
BRANCH  18  19
ATOM     19  C   UNL     1       5.932   3.846  12.825  0.00  0.00    +0.000 C 
ATOM     20  F   UNL     1       6.934   3.379  12.027  0.00  0.00    +0.000 F 
ENDBRANCH  18  19
ENDBRANCH  16  18
ENDBRANCH  13  16
ENDBRANCH   6  13
TORSDOF 5
ENDMDL
MODEL 7
REMARK VINA RESULT:      -6.6      3.593      5.738
REMARK  Name = 
REMARK  5 active torsions:
REMARK  status: ('A' for Active; 'I' for Inactive)
REMARK    1  A    between atoms: C_2  and  C_4
REMARK    2  A    between atoms: C_9  and  S_10
REMARK    3  A    between atoms: S_10  and  N_13
REMARK    4  A    between atoms: N_13  and  C_14
REMARK    5  A    between atoms: C_14  and  C_15
REMARK                            x       y       z     vdW  Elec       q    Type
REMARK                         _______ _______ _______ _____ _____    ______ ____
ROOT
ATOM      1  C   UNL     1       6.178   4.392  15.825  0.00  0.00    +0.000 A 
ATOM      2  C   UNL     1       7.006   4.954  16.806  0.00  0.00    +0.000 A 
ATOM      3  C   UNL     1       6.625   4.906  18.147  0.00  0.00    +0.000 A 
ATOM      4 BR   UNL     1       7.729   5.696  19.462  0.00  0.00    +0.000 Br
ATOM      5  C   UNL     1       5.434   4.291  18.526  0.00  0.00    +0.000 A 
ATOM      6  C   UNL     1       4.627   3.711  17.544  0.00  0.00    +0.000 A 
ATOM      7  C   UNL     1       4.988   3.758  16.194  0.00  0.00    +0.000 A 
ENDROOT
BRANCH   1   9
ATOM      8  N   UNL     1       7.597   5.369  14.104  0.00  0.00    +0.000 N 
ATOM      9  C   UNL     1       6.610   4.476  14.407  0.00  0.00    +0.000 C 
ATOM     10  O   UNL     1       6.123   3.751  13.550  0.00  0.00    +0.000 OA
ATOM     11  H   UNL     1       7.952   5.342  13.156  0.00  0.00    +0.000 HD
ATOM     12  H   UNL     1       8.183   5.803  14.805  0.00  0.00    +0.000 HD
ENDBRANCH   1   9
BRANCH   6  13
ATOM     13  S   UNL     1       3.091   2.963  18.019  0.00  0.00    +0.000 S 
ATOM     14  O   UNL     1       2.129   3.285  16.993  0.00  0.00    +0.000 OA
ATOM     15  O   UNL     1       3.354   1.601  18.426  0.00  0.00    +0.000 OA
BRANCH  13  16
ATOM     16  N   UNL     1       2.658   3.846  19.382  0.00  0.00    +0.000 NA
ATOM     17  H   UNL     1       2.708   4.853  19.203  0.00  0.00    +0.000 HD
BRANCH  16  18
ATOM     18  C   UNL     1       1.480   3.395  20.148  0.00  0.00    +0.000 C 
BRANCH  18  19
ATOM     19  C   UNL     1       1.871   3.116  21.593  0.00  0.00    +0.000 C 
ATOM     20  F   UNL     1       3.049   2.429  21.605  0.00  0.00    +0.000 F 
ENDBRANCH  18  19
ENDBRANCH  16  18
ENDBRANCH  13  16
ENDBRANCH   6  13
TORSDOF 5
ENDMDL
MODEL 8
REMARK VINA RESULT:      -6.6      2.849      5.391
REMARK  Name = 
REMARK  5 active torsions:
REMARK  status: ('A' for Active; 'I' for Inactive)
REMARK    1  A    between atoms: C_2  and  C_4
REMARK    2  A    between atoms: C_9  and  S_10
REMARK    3  A    between atoms: S_10  and  N_13
REMARK    4  A    between atoms: N_13  and  C_14
REMARK    5  A    between atoms: C_14  and  C_15
REMARK                            x       y       z     vdW  Elec       q    Type
REMARK                         _______ _______ _______ _____ _____    ______ ____
ROOT
ATOM      1  C   UNL     1       5.435   5.160  16.740  0.00  0.00    +0.000 A 
ATOM      2  C   UNL     1       4.797   6.383  16.984  0.00  0.00    +0.000 A 
ATOM      3  C   UNL     1       3.558   6.405  17.624  0.00  0.00    +0.000 A 
ATOM      4 BR   UNL     1       2.685   8.055  17.920  0.00  0.00    +0.000 Br
ATOM      5  C   UNL     1       2.951   5.222  18.039  0.00  0.00    +0.000 A 
ATOM      6  C   UNL     1       3.607   4.008  17.814  0.00  0.00    +0.000 A 
ATOM      7  C   UNL     1       4.845   3.966  17.165  0.00  0.00    +0.000 A 
ENDROOT
BRANCH   1   9
ATOM      8  N   UNL     1       7.796   4.568  16.667  0.00  0.00    +0.000 N 
ATOM      9  C   UNL     1       6.746   5.177  16.043  0.00  0.00    +0.000 C 
ATOM     10  O   UNL     1       6.873   5.687  14.938  0.00  0.00    +0.000 OA
ATOM     11  H   UNL     1       8.655   4.496  16.136  0.00  0.00    +0.000 HD
ATOM     12  H   UNL     1       7.683   3.937  17.450  0.00  0.00    +0.000 HD
ENDBRANCH   1   9
BRANCH   6  13
ATOM     13  S   UNL     1       2.819   2.497  18.305  0.00  0.00    +0.000 S 
ATOM     14  O   UNL     1       1.405   2.661  18.067  0.00  0.00    +0.000 OA
ATOM     15  O   UNL     1       3.567   1.392  17.750  0.00  0.00    +0.000 OA
BRANCH  13  16
ATOM     16  N   UNL     1       3.033   2.496  19.972  0.00  0.00    +0.000 NA
ATOM     17  H   UNL     1       3.903   2.968  20.235  0.00  0.00    +0.000 HD
BRANCH  16  18
ATOM     18  C   UNL     1       1.862   2.808  20.815  0.00  0.00    +0.000 C 
BRANCH  18  19
ATOM     19  C   UNL     1       1.936   4.251  21.299  0.00  0.00    +0.000 C 
ATOM     20  F   UNL     1       0.943   4.966  20.699  0.00  0.00    +0.000 F 
ENDBRANCH  18  19
ENDBRANCH  16  18
ENDBRANCH  13  16
ENDBRANCH   6  13
TORSDOF 5
ENDMDL
MODEL 9
REMARK VINA RESULT:      -6.6      3.748      5.965
REMARK  Name = 
REMARK  5 active torsions:
REMARK  status: ('A' for Active; 'I' for Inactive)
REMARK    1  A    between atoms: C_2  and  C_4
REMARK    2  A    between atoms: C_9  and  S_10
REMARK    3  A    between atoms: S_10  and  N_13
REMARK    4  A    between atoms: N_13  and  C_14
REMARK    5  A    between atoms: C_14  and  C_15
REMARK                            x       y       z     vdW  Elec       q    Type
REMARK                         _______ _______ _______ _____ _____    ______ ____
ROOT
ATOM      1  C   UNL     1       6.741   5.827  17.397  0.00  0.00    +0.000 A 
ATOM      2  C   UNL     1       6.783   5.492  16.038  0.00  0.00    +0.000 A 
ATOM      3  C   UNL     1       5.996   4.446  15.555  0.00  0.00    +0.000 A 
ATOM      4 BR   UNL     1       6.082   3.976  13.727  0.00  0.00    +0.000 Br
ATOM      5  C   UNL     1       5.155   3.736  16.410  0.00  0.00    +0.000 A 
ATOM      6  C   UNL     1       5.101   4.094  17.759  0.00  0.00    +0.000 A 
ATOM      7  C   UNL     1       5.890   5.133  18.263  0.00  0.00    +0.000 A 
ENDROOT
BRANCH   1   9
ATOM      8  N   UNL     1       8.266   6.751  19.056  0.00  0.00    +0.000 N 
ATOM      9  C   UNL     1       7.604   6.936  17.876  0.00  0.00    +0.000 C 
ATOM     10  O   UNL     1       7.743   7.962  17.224  0.00  0.00    +0.000 OA
ATOM     11  H   UNL     1       8.929   7.471  19.317  0.00  0.00    +0.000 HD
ATOM     12  H   UNL     1       8.370   5.846  19.495  0.00  0.00    +0.000 HD
ENDBRANCH   1   9
BRANCH   6  13
ATOM     13  S   UNL     1       4.061   3.167  18.857  0.00  0.00    +0.000 S 
ATOM     14  O   UNL     1       3.288   2.261  18.043  0.00  0.00    +0.000 OA
ATOM     15  O   UNL     1       4.865   2.708  19.967  0.00  0.00    +0.000 OA
BRANCH  13  16
ATOM     16  N   UNL     1       2.995   4.336  19.427  0.00  0.00    +0.000 NA
ATOM     17  H   UNL     1       2.306   4.589  18.712  0.00  0.00    +0.000 HD
BRANCH  16  18
ATOM     18  C   UNL     1       2.461   4.171  20.793  0.00  0.00    +0.000 C 
BRANCH  18  19
ATOM     19  C   UNL     1       1.250   3.249  20.773  0.00  0.00    +0.000 C 
ATOM     20  F   UNL     1       1.146   2.634  21.986  0.00  0.00    +0.000 F 
ENDBRANCH  18  19
ENDBRANCH  16  18
ENDBRANCH  13  16
ENDBRANCH   6  13
TORSDOF 5
ENDMDL
