MODEL 1
REMARK VINA RESULT:      -7.0      0.000      0.000
REMARK  Name = 
REMARK  8 active torsions:
REMARK  status: ('A' for Active; 'I' for Inactive)
REMARK    1  A    between atoms: C_2  and  C_3
REMARK    2  A    between atoms: C_3  and  N_4
REMARK    3  A    between atoms: C_7  and  C_8
REMARK    4  A    between atoms: C_8  and  O_9
REMARK    5  A    between atoms: N_11  and  C_12
REMARK    6  A    between atoms: C_14  and  N_15
REMARK    7  A    between atoms: C_18  and  C_19
REMARK    8  A    between atoms: C_19  and  O_20
REMARK                            x       y       z     vdW  Elec       q    Type
REMARK                         _______ _______ _______ _____ _____    ______ ____
ROOT
ATOM      1  N   UNL     1       2.316   3.836  18.834  0.00  0.00    +0.000 N 
ATOM      2  C   UNL     1       1.896   5.055  19.339  0.00  0.00    +0.000 A 
ATOM      3  O   UNL     1       0.989   5.197  20.158  0.00  0.00    +0.000 OA
ATOM      4  C   UNL     1       2.627   6.247  18.872  0.00  0.00    +0.000 A 
ATOM      5  C   UNL     1       3.619   6.074  17.995  0.00  0.00    +0.000 A 
ATOM      6  N   UNL     1       3.977   4.846  17.485  0.00  0.00    +0.000 N 
ATOM      7  C   UNL     1       3.361   3.669  17.926  0.00  0.00    +0.000 A 
ATOM      8  O   UNL     1       3.727   2.561  17.535  0.00  0.00    +0.000 OA
ENDROOT
BRANCH   6   9
ATOM      9  C   UNL     1       5.132   4.730  16.573  0.00  0.00    +0.000 C 
ATOM     10  C   UNL     1       5.676   6.056  16.056  0.00  0.00    +0.000 C 
ATOM     11  C   UNL     1       6.637   6.465  17.147  0.00  0.00    +0.000 C 
ATOM     12  C   UNL     1       7.241   5.122  17.551  0.00  0.00    +0.000 C 
ATOM     13  O   UNL     1       6.246   4.110  17.262  0.00  0.00    +0.000 OA
BRANCH  11  14
ATOM     14  N   UNL     1       7.670   7.369  16.637  0.00  0.00    +0.000 NA
ATOM     15  N   UNL     1       7.975   8.322  17.377  0.00  0.00    +0.000 NA
ATOM     16  N   UNL     1       8.250   9.189  18.064  0.00  0.00    +0.000 NA
ENDBRANCH  11  14
BRANCH  12  17
ATOM     17  C   UNL     1       7.620   5.091  19.036  0.00  0.00    +0.000 C 
BRANCH  17  18
ATOM     18  O   UNL     1       8.214   6.320  19.444  0.00  0.00    +0.000 OA
ATOM     19  H   UNL     1       9.049   6.409  18.950  0.00  0.00    +0.000 HD
ENDBRANCH  17  18
ENDBRANCH  12  17
ENDBRANCH   6   9
BRANCH   1  20
ATOM     20  C   UNL     1       1.614   2.651  19.301  0.00  0.00    +0.000 C 
BRANCH  20  22
ATOM     21  C   UNL     1       1.806   2.426  21.959  0.00  0.00    +0.000 C 
ATOM     22  C   UNL     1       1.721   2.518  20.765  0.00  0.00    +0.000 C 
ENDBRANCH  20  22
ENDBRANCH   1  20
BRANCH   4  23
ATOM     23  C   UNL     1       2.205   7.583  19.387  0.00  0.00    +0.000 C 
BRANCH  23  24
ATOM     24  O   UNL     1       2.185   7.579  20.806  0.00  0.00    +0.000 OA
ATOM     25  H   UNL     1       2.848   8.241  21.086  0.00  0.00    +0.000 HD
ENDBRANCH  23  24
ENDBRANCH   4  23
TORSDOF 8
ENDMDL
MODEL 2
REMARK VINA RESULT:      -6.8      0.849      1.066
REMARK  Name = 
REMARK  8 active torsions:
REMARK  status: ('A' for Active; 'I' for Inactive)
REMARK    1  A    between atoms: C_2  and  C_3
REMARK    2  A    between atoms: C_3  and  N_4
REMARK    3  A    between atoms: C_7  and  C_8
REMARK    4  A    between atoms: C_8  and  O_9
REMARK    5  A    between atoms: N_11  and  C_12
REMARK    6  A    between atoms: C_14  and  N_15
REMARK    7  A    between atoms: C_18  and  C_19
REMARK    8  A    between atoms: C_19  and  O_20
REMARK                            x       y       z     vdW  Elec       q    Type
REMARK                         _______ _______ _______ _____ _____    ______ ____
ROOT
ATOM      1  N   UNL     1       2.870   4.279  19.407  0.00  0.00    +0.000 N 
ATOM      2  C   UNL     1       2.239   5.402  19.914  0.00  0.00    +0.000 A 
ATOM      3  O   UNL     1       1.462   5.396  20.868  0.00  0.00    +0.000 OA
ATOM      4  C   UNL     1       2.566   6.687  19.270  0.00  0.00    +0.000 A 
ATOM      5  C   UNL     1       3.423   6.679  18.246  0.00  0.00    +0.000 A 
ATOM      6  N   UNL     1       3.997   5.532  17.745  0.00  0.00    +0.000 N 
ATOM      7  C   UNL     1       3.773   4.286  18.344  0.00  0.00    +0.000 A 
ATOM      8  O   UNL     1       4.342   3.267  17.952  0.00  0.00    +0.000 OA
ENDROOT
BRANCH   6   9
ATOM      9  C   UNL     1       4.991   5.614  16.657  0.00  0.00    +0.000 C 
ATOM     10  C   UNL     1       5.575   7.002  16.426  0.00  0.00    +0.000 C 
ATOM     11  C   UNL     1       6.718   7.046  17.412  0.00  0.00    +0.000 C 
ATOM     12  C   UNL     1       7.246   5.616  17.340  0.00  0.00    +0.000 C 
ATOM     13  O   UNL     1       6.130   4.773  16.963  0.00  0.00    +0.000 OA
BRANCH  11  14
ATOM     14  N   UNL     1       7.746   8.003  16.995  0.00  0.00    +0.000 NA
ATOM     15  N   UNL     1       8.227   8.714  17.896  0.00  0.00    +0.000 NA
ATOM     16  N   UNL     1       8.664   9.358  18.728  0.00  0.00    +0.000 NA
ENDBRANCH  11  14
BRANCH  12  17
ATOM     17  C   UNL     1       7.834   5.157  18.680  0.00  0.00    +0.000 C 
BRANCH  17  18
ATOM     18  O   UNL     1       8.245   6.268  19.472  0.00  0.00    +0.000 OA
ATOM     19  H   UNL     1       7.450   6.804  19.643  0.00  0.00    +0.000 HD
ENDBRANCH  17  18
ENDBRANCH  12  17
ENDBRANCH   6   9
BRANCH   1  20
ATOM     20  C   UNL     1       2.570   3.008  20.046  0.00  0.00    +0.000 C 
BRANCH  20  22
ATOM     21  C   UNL     1       0.464   1.834  18.888  0.00  0.00    +0.000 C 
ATOM     22  C   UNL     1       1.415   2.355  19.403  0.00  0.00    +0.000 C 
ENDBRANCH  20  22
ENDBRANCH   1  20
BRANCH   4  23
ATOM     23  C   UNL     1       1.904   7.924  19.781  0.00  0.00    +0.000 C 
BRANCH  23  24
ATOM     24  O   UNL     1       2.048   8.011  21.191  0.00  0.00    +0.000 OA
ATOM     25  H   UNL     1       2.146   7.091  21.508  0.00  0.00    +0.000 HD
ENDBRANCH  23  24
ENDBRANCH   4  23
TORSDOF 8
ENDMDL
MODEL 3
REMARK VINA RESULT:      -6.6      2.443      6.652
REMARK  Name = 
REMARK  8 active torsions:
REMARK  status: ('A' for Active; 'I' for Inactive)
REMARK    1  A    between atoms: C_2  and  C_3
REMARK    2  A    between atoms: C_3  and  N_4
REMARK    3  A    between atoms: C_7  and  C_8
REMARK    4  A    between atoms: C_8  and  O_9
REMARK    5  A    between atoms: N_11  and  C_12
REMARK    6  A    between atoms: C_14  and  N_15
REMARK    7  A    between atoms: C_18  and  C_19
REMARK    8  A    between atoms: C_19  and  O_20
REMARK                            x       y       z     vdW  Elec       q    Type
REMARK                         _______ _______ _______ _____ _____    ______ ____
ROOT
ATOM      1  N   UNL     1       7.211   5.650  17.929  0.00  0.00    +0.000 N 
ATOM      2  C   UNL     1       6.910   5.527  16.583  0.00  0.00    +0.000 A 
ATOM      3  O   UNL     1       7.497   6.119  15.679  0.00  0.00    +0.000 OA
ATOM      4  C   UNL     1       5.829   4.588  16.234  0.00  0.00    +0.000 A 
ATOM      5  C   UNL     1       5.212   3.941  17.226  0.00  0.00    +0.000 A 
ATOM      6  N   UNL     1       5.514   4.124  18.556  0.00  0.00    +0.000 N 
ATOM      7  C   UNL     1       6.565   4.959  18.954  0.00  0.00    +0.000 A 
ATOM      8  O   UNL     1       6.894   5.069  20.135  0.00  0.00    +0.000 OA
ENDROOT
BRANCH   6   9
ATOM      9  C   UNL     1       4.835   3.317  19.589  0.00  0.00    +0.000 C 
ATOM     10  C   UNL     1       3.837   4.085  20.448  0.00  0.00    +0.000 C 
ATOM     11  C   UNL     1       2.573   4.013  19.625  0.00  0.00    +0.000 C 
ATOM     12  C   UNL     1       2.655   2.603  19.048  0.00  0.00    +0.000 C 
ATOM     13  O   UNL     1       4.061   2.264  18.965  0.00  0.00    +0.000 OA
BRANCH  11  14
ATOM     14  N   UNL     1       1.381   4.165  20.463  0.00  0.00    +0.000 NA
ATOM     15  N   UNL     1       1.261   3.347  21.394  0.00  0.00    +0.000 NA
ATOM     16  N   UNL     1       1.162   2.597  22.245  0.00  0.00    +0.000 NA
ENDBRANCH  11  14
BRANCH  12  17
ATOM     17  C   UNL     1       2.001   2.513  17.665  0.00  0.00    +0.000 C 
BRANCH  17  18
ATOM     18  O   UNL     1       1.060   3.565  17.468  0.00  0.00    +0.000 OA
ATOM     19  H   UNL     1       1.573   4.379  17.310  0.00  0.00    +0.000 HD
ENDBRANCH  17  18
ENDBRANCH  12  17
ENDBRANCH   6   9
BRANCH   1  20
ATOM     20  C   UNL     1       8.288   6.560  18.285  0.00  0.00    +0.000 C 
BRANCH  20  22
ATOM     21  C   UNL     1       7.661   9.077  17.633  0.00  0.00    +0.000 C 
ATOM     22  C   UNL     1       7.948   7.947  17.919  0.00  0.00    +0.000 C 
ENDBRANCH  20  22
ENDBRANCH   1  20
BRANCH   4  23
ATOM     23  C   UNL     1       5.467   4.428  14.795  0.00  0.00    +0.000 C 
BRANCH  23  24
ATOM     24  O   UNL     1       6.340   3.498  14.169  0.00  0.00    +0.000 OA
ATOM     25  H   UNL     1       5.776   2.949  13.588  0.00  0.00    +0.000 HD
ENDBRANCH  23  24
ENDBRANCH   4  23
TORSDOF 8
ENDMDL
MODEL 4
REMARK VINA RESULT:      -6.5      2.357      6.522
REMARK  Name = 
REMARK  8 active torsions:
REMARK  status: ('A' for Active; 'I' for Inactive)
REMARK    1  A    between atoms: C_2  and  C_3
REMARK    2  A    between atoms: C_3  and  N_4
REMARK    3  A    between atoms: C_7  and  C_8
REMARK    4  A    between atoms: C_8  and  O_9
REMARK    5  A    between atoms: N_11  and  C_12
REMARK    6  A    between atoms: C_14  and  N_15
REMARK    7  A    between atoms: C_18  and  C_19
REMARK    8  A    between atoms: C_19  and  O_20
REMARK                            x       y       z     vdW  Elec       q    Type
REMARK                         _______ _______ _______ _____ _____    ______ ____
ROOT
ATOM      1  N   UNL     1       6.926   5.208  17.523  0.00  0.00    +0.000 N 
ATOM      2  C   UNL     1       6.834   5.224  16.141  0.00  0.00    +0.000 A 
ATOM      3  O   UNL     1       7.581   5.860  15.399  0.00  0.00    +0.000 OA
ATOM      4  C   UNL     1       5.781   4.385  15.542  0.00  0.00    +0.000 A 
ATOM      5  C   UNL     1       4.988   3.689  16.361  0.00  0.00    +0.000 A 
ATOM      6  N   UNL     1       5.086   3.734  17.733  0.00  0.00    +0.000 N 
ATOM      7  C   UNL     1       6.098   4.467  18.366  0.00  0.00    +0.000 A 
ATOM      8  O   UNL     1       6.242   4.451  19.588  0.00  0.00    +0.000 OA
ENDROOT
BRANCH   6   9
ATOM      9  C   UNL     1       4.219   2.879  18.567  0.00  0.00    +0.000 C 
ATOM     10  C   UNL     1       3.941   3.419  19.965  0.00  0.00    +0.000 C 
ATOM     11  C   UNL     1       2.754   4.324  19.738  0.00  0.00    +0.000 C 
ATOM     12  C   UNL     1       1.961   3.543  18.695  0.00  0.00    +0.000 C 
ATOM     13  O   UNL     1       2.915   2.746  17.950  0.00  0.00    +0.000 OA
BRANCH  11  14
ATOM     14  N   UNL     1       1.973   4.497  20.965  0.00  0.00    +0.000 NA
ATOM     15  N   UNL     1       1.732   3.460  21.609  0.00  0.00    +0.000 NA
ATOM     16  N   UNL     1       1.519   2.505  22.194  0.00  0.00    +0.000 NA
ENDBRANCH  11  14
BRANCH  12  17
ATOM     17  C   UNL     1       1.189   4.473  17.751  0.00  0.00    +0.000 C 
BRANCH  17  18
ATOM     18  O   UNL     1       1.816   5.749  17.655  0.00  0.00    +0.000 OA
ATOM     19  H   UNL     1       1.843   5.981  16.709  0.00  0.00    +0.000 HD
ENDBRANCH  17  18
ENDBRANCH  12  17
ENDBRANCH   6   9
BRANCH   1  20
ATOM     20  C   UNL     1       7.972   6.018  18.125  0.00  0.00    +0.000 C 
BRANCH  20  22
ATOM     21  C   UNL     1       7.576   8.619  17.641  0.00  0.00    +0.000 C 
ATOM     22  C   UNL     1       7.746   7.451  17.862  0.00  0.00    +0.000 C 
ENDBRANCH  20  22
ENDBRANCH   1  20
BRANCH   4  23
ATOM     23  C   UNL     1       5.642   4.376  14.056  0.00  0.00    +0.000 C 
BRANCH  23  24
ATOM     24  O   UNL     1       6.600   3.501  13.478  0.00  0.00    +0.000 OA
ATOM     25  H   UNL     1       6.107   2.947  12.841  0.00  0.00    +0.000 HD
ENDBRANCH  23  24
ENDBRANCH   4  23
TORSDOF 8
ENDMDL
MODEL 5
REMARK VINA RESULT:      -6.4      1.211      1.648
REMARK  Name = 
REMARK  8 active torsions:
REMARK  status: ('A' for Active; 'I' for Inactive)
REMARK    1  A    between atoms: C_2  and  C_3
REMARK    2  A    between atoms: C_3  and  N_4
REMARK    3  A    between atoms: C_7  and  C_8
REMARK    4  A    between atoms: C_8  and  O_9
REMARK    5  A    between atoms: N_11  and  C_12
REMARK    6  A    between atoms: C_14  and  N_15
REMARK    7  A    between atoms: C_18  and  C_19
REMARK    8  A    between atoms: C_19  and  O_20
REMARK                            x       y       z     vdW  Elec       q    Type
REMARK                         _______ _______ _______ _____ _____    ______ ____
ROOT
ATOM      1  N   UNL     1       2.179   3.632  19.206  0.00  0.00    +0.000 N 
ATOM      2  C   UNL     1       1.864   4.966  19.406  0.00  0.00    +0.000 A 
ATOM      3  O   UNL     1       0.847   5.367  19.970  0.00  0.00    +0.000 OA
ATOM      4  C   UNL     1       2.850   5.953  18.930  0.00  0.00    +0.000 A 
ATOM      5  C   UNL     1       3.956   5.501  18.333  0.00  0.00    +0.000 A 
ATOM      6  N   UNL     1       4.211   4.166  18.117  0.00  0.00    +0.000 N 
ATOM      7  C   UNL     1       3.344   3.174  18.591  0.00  0.00    +0.000 A 
ATOM      8  O   UNL     1       3.602   1.977  18.471  0.00  0.00    +0.000 OA
ENDROOT
BRANCH   6   9
ATOM      9  C   UNL     1       5.491   3.743  17.514  0.00  0.00    +0.000 C 
ATOM     10  C   UNL     1       5.929   4.558  16.303  0.00  0.00    +0.000 C 
ATOM     11  C   UNL     1       6.662   5.717  16.935  0.00  0.00    +0.000 C 
ATOM     12  C   UNL     1       7.368   5.039  18.106  0.00  0.00    +0.000 C 
ATOM     13  O   UNL     1       6.564   3.893  18.476  0.00  0.00    +0.000 OA
BRANCH  11  14
ATOM     14  N   UNL     1       7.633   6.304  16.008  0.00  0.00    +0.000 NA
ATOM     15  N   UNL     1       7.706   5.770  14.886  0.00  0.00    +0.000 NA
ATOM     16  N   UNL     1       7.763   5.278  13.860  0.00  0.00    +0.000 NA
ENDBRANCH  11  14
BRANCH  12  17
ATOM     17  C   UNL     1       7.531   5.986  19.300  0.00  0.00    +0.000 C 
BRANCH  17  18
ATOM     18  O   UNL     1       8.041   5.300  20.440  0.00  0.00    +0.000 OA
ATOM     19  H   UNL     1       8.923   4.964  20.197  0.00  0.00    +0.000 HD
ENDBRANCH  17  18
ENDBRANCH  12  17
ENDBRANCH   6   9
BRANCH   1  20
ATOM     20  C   UNL     1       1.223   2.649  19.687  0.00  0.00    +0.000 C 
BRANCH  20  22
ATOM     21  C   UNL     1       1.408   2.374  22.342  0.00  0.00    +0.000 C 
ATOM     22  C   UNL     1       1.322   2.489  21.149  0.00  0.00    +0.000 C 
ENDBRANCH  20  22
ENDBRANCH   1  20
BRANCH   4  23
ATOM     23  C   UNL     1       2.549   7.403  19.120  0.00  0.00    +0.000 C 
BRANCH  23  24
ATOM     24  O   UNL     1       2.195   7.658  20.471  0.00  0.00    +0.000 OA
ATOM     25  H   UNL     1       2.889   8.249  20.824  0.00  0.00    +0.000 HD
ENDBRANCH  23  24
ENDBRANCH   4  23
TORSDOF 8
ENDMDL
MODEL 6
REMARK VINA RESULT:      -6.4      1.714      2.257
REMARK  Name = 
REMARK  8 active torsions:
REMARK  status: ('A' for Active; 'I' for Inactive)
REMARK    1  A    between atoms: C_2  and  C_3
REMARK    2  A    between atoms: C_3  and  N_4
REMARK    3  A    between atoms: C_7  and  C_8
REMARK    4  A    between atoms: C_8  and  O_9
REMARK    5  A    between atoms: N_11  and  C_12
REMARK    6  A    between atoms: C_14  and  N_15
REMARK    7  A    between atoms: C_18  and  C_19
REMARK    8  A    between atoms: C_19  and  O_20
REMARK                            x       y       z     vdW  Elec       q    Type
REMARK                         _______ _______ _______ _____ _____    ______ ____
ROOT
ATOM      1  N   UNL     1       2.655   5.717  19.796  0.00  0.00    +0.000 N 
ATOM      2  C   UNL     1       2.274   7.026  19.549  0.00  0.00    +0.000 A 
ATOM      3  O   UNL     1       1.625   7.723  20.326  0.00  0.00    +0.000 OA
ATOM      4  C   UNL     1       2.722   7.610  18.272  0.00  0.00    +0.000 A 
ATOM      5  C   UNL     1       3.440   6.846  17.445  0.00  0.00    +0.000 A 
ATOM      6  N   UNL     1       3.761   5.534  17.712  0.00  0.00    +0.000 N 
ATOM      7  C   UNL     1       3.415   4.933  18.928  0.00  0.00    +0.000 A 
ATOM      8  O   UNL     1       3.765   3.787  19.208  0.00  0.00    +0.000 OA
ENDROOT
BRANCH   6   9
ATOM      9  C   UNL     1       4.619   4.776  16.780  0.00  0.00    +0.000 C 
ATOM     10  C   UNL     1       5.400   5.631  15.788  0.00  0.00    +0.000 C 
ATOM     11  C   UNL     1       6.641   5.989  16.570  0.00  0.00    +0.000 C 
ATOM     12  C   UNL     1       6.907   4.699  17.341  0.00  0.00    +0.000 C 
ATOM     13  O   UNL     1       5.627   4.044  17.519  0.00  0.00    +0.000 OA
BRANCH  11  14
ATOM     14  N   UNL     1       7.760   6.303  15.678  0.00  0.00    +0.000 NA
ATOM     15  N   UNL     1       7.789   5.683  14.599  0.00  0.00    +0.000 NA
ATOM     16  N   UNL     1       7.804   5.113  13.613  0.00  0.00    +0.000 NA
ENDBRANCH  11  14
BRANCH  12  17
ATOM     17  C   UNL     1       7.561   4.972  18.700  0.00  0.00    +0.000 C 
BRANCH  17  18
ATOM     18  O   UNL     1       6.589   5.313  19.684  0.00  0.00    +0.000 OA
ATOM     19  H   UNL     1       7.068   5.453  20.521  0.00  0.00    +0.000 HD
ENDBRANCH  17  18
ENDBRANCH  12  17
ENDBRANCH   6   9
BRANCH   1  20
ATOM     20  C   UNL     1       2.235   5.135  21.060  0.00  0.00    +0.000 C 
BRANCH  20  22
ATOM     21  C   UNL     1       0.743   2.949  20.674  0.00  0.00    +0.000 C 
ATOM     22  C   UNL     1       1.415   3.931  20.839  0.00  0.00    +0.000 C 
ENDBRANCH  20  22
ENDBRANCH   1  20
BRANCH   4  23
ATOM     23  C   UNL     1       2.330   9.017  17.961  0.00  0.00    +0.000 C 
BRANCH  23  24
ATOM     24  O   UNL     1       0.922   9.112  17.804  0.00  0.00    +0.000 OA
ATOM     25  H   UNL     1       0.550   8.310  18.223  0.00  0.00    +0.000 HD
ENDBRANCH  23  24
ENDBRANCH   4  23
TORSDOF 8
ENDMDL
MODEL 7
REMARK VINA RESULT:      -6.3      1.874      2.593
REMARK  Name = 
REMARK  8 active torsions:
REMARK  status: ('A' for Active; 'I' for Inactive)
REMARK    1  A    between atoms: C_2  and  C_3
REMARK    2  A    between atoms: C_3  and  N_4
REMARK    3  A    between atoms: C_7  and  C_8
REMARK    4  A    between atoms: C_8  and  O_9
REMARK    5  A    between atoms: N_11  and  C_12
REMARK    6  A    between atoms: C_14  and  N_15
REMARK    7  A    between atoms: C_18  and  C_19
REMARK    8  A    between atoms: C_19  and  O_20
REMARK                            x       y       z     vdW  Elec       q    Type
REMARK                         _______ _______ _______ _____ _____    ______ ____
ROOT
ATOM      1  N   UNL     1       3.120   3.902  20.020  0.00  0.00    +0.000 N 
ATOM      2  C   UNL     1       2.443   5.108  19.949  0.00  0.00    +0.000 A 
ATOM      3  O   UNL     1       1.295   5.290  20.353  0.00  0.00    +0.000 OA
ATOM      4  C   UNL     1       3.185   6.245  19.375  0.00  0.00    +0.000 A 
ATOM      5  C   UNL     1       4.435   6.035  18.956  0.00  0.00    +0.000 A 
ATOM      6  N   UNL     1       5.057   4.808  19.006  0.00  0.00    +0.000 N 
ATOM      7  C   UNL     1       4.430   3.699  19.587  0.00  0.00    +0.000 A 
ATOM      8  O   UNL     1       5.006   2.618  19.708  0.00  0.00    +0.000 OA
ENDROOT
BRANCH   6   9
ATOM      9  C   UNL     1       6.466   4.673  18.588  0.00  0.00    +0.000 C 
ATOM     10  C   UNL     1       6.667   4.286  17.128  0.00  0.00    +0.000 C 
ATOM     11  C   UNL     1       6.634   5.624  16.427  0.00  0.00    +0.000 C 
ATOM     12  C   UNL     1       7.362   6.518  17.427  0.00  0.00    +0.000 C 
ATOM     13  O   UNL     1       7.151   5.941  18.739  0.00  0.00    +0.000 OA
BRANCH  11  14
ATOM     14  N   UNL     1       7.353   5.575  15.151  0.00  0.00    +0.000 NA
ATOM     15  N   UNL     1       6.914   4.772  14.308  0.00  0.00    +0.000 NA
ATOM     16  N   UNL     1       6.503   4.036  13.541  0.00  0.00    +0.000 NA
ENDBRANCH  11  14
BRANCH  12  17
ATOM     17  C   UNL     1       6.841   7.959  17.387  0.00  0.00    +0.000 C 
BRANCH  17  18
ATOM     18  O   UNL     1       7.861   8.889  17.740  0.00  0.00    +0.000 OA
ATOM     19  H   UNL     1       7.856   8.960  18.712  0.00  0.00    +0.000 HD
ENDBRANCH  17  18
ENDBRANCH  12  17
ENDBRANCH   6   9
BRANCH   1  20
ATOM     20  C   UNL     1       2.404   2.777  20.599  0.00  0.00    +0.000 C 
BRANCH  20  22
ATOM     21  C   UNL     1       0.558   1.831  18.910  0.00  0.00    +0.000 C 
ATOM     22  C   UNL     1       1.385   2.264  19.667  0.00  0.00    +0.000 C 
ENDBRANCH  20  22
ENDBRANCH   1  20
BRANCH   4  23
ATOM     23  C   UNL     1       2.492   7.564  19.275  0.00  0.00    +0.000 C 
BRANCH  23  24
ATOM     24  O   UNL     1       1.958   7.936  20.537  0.00  0.00    +0.000 OA
ATOM     25  H   UNL     1       1.819   8.903  20.495  0.00  0.00    +0.000 HD
ENDBRANCH  23  24
ENDBRANCH   4  23
TORSDOF 8
ENDMDL
MODEL 8
REMARK VINA RESULT:      -6.3      1.000      1.014
REMARK  Name = 
REMARK  8 active torsions:
REMARK  status: ('A' for Active; 'I' for Inactive)
REMARK    1  A    between atoms: C_2  and  C_3
REMARK    2  A    between atoms: C_3  and  N_4
REMARK    3  A    between atoms: C_7  and  C_8
REMARK    4  A    between atoms: C_8  and  O_9
REMARK    5  A    between atoms: N_11  and  C_12
REMARK    6  A    between atoms: C_14  and  N_15
REMARK    7  A    between atoms: C_18  and  C_19
REMARK    8  A    between atoms: C_19  and  O_20
REMARK                            x       y       z     vdW  Elec       q    Type
REMARK                         _______ _______ _______ _____ _____    ______ ____
ROOT
ATOM      1  N   UNL     1       2.851   4.001  19.004  0.00  0.00    +0.000 N 
ATOM      2  C   UNL     1       2.207   5.067  19.610  0.00  0.00    +0.000 A 
ATOM      3  O   UNL     1       1.429   4.965  20.558  0.00  0.00    +0.000 OA
ATOM      4  C   UNL     1       2.519   6.409  19.085  0.00  0.00    +0.000 A 
ATOM      5  C   UNL     1       3.377   6.504  18.067  0.00  0.00    +0.000 A 
ATOM      6  N   UNL     1       3.964   5.414  17.465  0.00  0.00    +0.000 N 
ATOM      7  C   UNL     1       3.754   4.116  17.947  0.00  0.00    +0.000 A 
ATOM      8  O   UNL     1       4.335   3.144  17.465  0.00  0.00    +0.000 OA
ENDROOT
BRANCH   6   9
ATOM      9  C   UNL     1       4.958   5.606  16.390  0.00  0.00    +0.000 C 
ATOM     10  C   UNL     1       5.521   7.018  16.282  0.00  0.00    +0.000 C 
ATOM     11  C   UNL     1       6.662   6.992  17.271  0.00  0.00    +0.000 C 
ATOM     12  C   UNL     1       7.212   5.582  17.076  0.00  0.00    +0.000 C 
ATOM     13  O   UNL     1       6.110   4.759  16.624  0.00  0.00    +0.000 OA
BRANCH  11  14
ATOM     14  N   UNL     1       7.675   7.998  16.941  0.00  0.00    +0.000 NA
ATOM     15  N   UNL     1       8.164   8.616  17.905  0.00  0.00    +0.000 NA
ATOM     16  N   UNL     1       8.608   9.173  18.794  0.00  0.00    +0.000 NA
ENDBRANCH  11  14
BRANCH  12  17
ATOM     17  C   UNL     1       7.805   5.017  18.371  0.00  0.00    +0.000 C 
BRANCH  17  18
ATOM     18  O   UNL     1       7.970   6.036  19.353  0.00  0.00    +0.000 OA
ATOM     19  H   UNL     1       7.610   6.858  18.972  0.00  0.00    +0.000 HD
ENDBRANCH  17  18
ENDBRANCH  12  17
ENDBRANCH   6   9
BRANCH   1  20
ATOM     20  C   UNL     1       2.565   2.675  19.523  0.00  0.00    +0.000 C 
BRANCH  20  22
ATOM     21  C   UNL     1       4.645   1.700  20.894  0.00  0.00    +0.000 C 
ATOM     22  C   UNL     1       3.716   2.143  20.274  0.00  0.00    +0.000 C 
ENDBRANCH  20  22
ENDBRANCH   1  20
BRANCH   4  23
ATOM     23  C   UNL     1       1.843   7.586  19.706  0.00  0.00    +0.000 C 
BRANCH  23  24
ATOM     24  O   UNL     1       2.020   7.569  21.115  0.00  0.00    +0.000 OA
ATOM     25  H   UNL     1       1.729   6.683  21.411  0.00  0.00    +0.000 HD
ENDBRANCH  23  24
ENDBRANCH   4  23
TORSDOF 8
ENDMDL
MODEL 9
REMARK VINA RESULT:      -6.3      2.357      6.337
REMARK  Name = 
REMARK  8 active torsions:
REMARK  status: ('A' for Active; 'I' for Inactive)
REMARK    1  A    between atoms: C_2  and  C_3
REMARK    2  A    between atoms: C_3  and  N_4
REMARK    3  A    between atoms: C_7  and  C_8
REMARK    4  A    between atoms: C_8  and  O_9
REMARK    5  A    between atoms: N_11  and  C_12
REMARK    6  A    between atoms: C_14  and  N_15
REMARK    7  A    between atoms: C_18  and  C_19
REMARK    8  A    between atoms: C_19  and  O_20
REMARK                            x       y       z     vdW  Elec       q    Type
REMARK                         _______ _______ _______ _____ _____    ______ ____
ROOT
ATOM      1  N   UNL     1       7.092   5.659  17.819  0.00  0.00    +0.000 N 
ATOM      2  C   UNL     1       6.888   5.458  16.464  0.00  0.00    +0.000 A 
ATOM      3  O   UNL     1       7.608   5.911  15.574  0.00  0.00    +0.000 OA
ATOM      4  C   UNL     1       5.743   4.609  16.090  0.00  0.00    +0.000 A 
ATOM      5  C   UNL     1       4.981   4.112  17.067  0.00  0.00    +0.000 A 
ATOM      6  N   UNL     1       5.194   4.371  18.402  0.00  0.00    +0.000 N 
ATOM      7  C   UNL     1       6.294   5.125  18.830  0.00  0.00    +0.000 A 
ATOM      8  O   UNL     1       6.536   5.297  20.024  0.00  0.00    +0.000 OA
ENDROOT
BRANCH   6   9
ATOM      9  C   UNL     1       4.350   3.726  19.427  0.00  0.00    +0.000 C 
ATOM     10  C   UNL     1       3.667   4.687  20.393  0.00  0.00    +0.000 C 
ATOM     11  C   UNL     1       2.405   5.057  19.651  0.00  0.00    +0.000 C 
ATOM     12  C   UNL     1       2.034   3.735  18.987  0.00  0.00    +0.000 C 
ATOM     13  O   UNL     1       3.268   3.001  18.792  0.00  0.00    +0.000 OA
BRANCH  11  14
ATOM     14  N   UNL     1       1.353   5.491  20.573  0.00  0.00    +0.000 NA
ATOM     15  N   UNL     1       1.335   6.705  20.849  0.00  0.00    +0.000 NA
ATOM     16  N   UNL     1       1.325   7.818  21.092  0.00  0.00    +0.000 NA
ENDBRANCH  11  14
BRANCH  12  17
ATOM     17  C   UNL     1       1.323   3.950  17.646  0.00  0.00    +0.000 C 
BRANCH  17  18
ATOM     18  O   UNL     1       2.029   3.323  16.579  0.00  0.00    +0.000 OA
ATOM     19  H   UNL     1       2.922   3.118  16.912  0.00  0.00    +0.000 HD
ENDBRANCH  17  18
ENDBRANCH  12  17
ENDBRANCH   6   9
BRANCH   1  20
ATOM     20  C   UNL     1       8.229   6.480  18.201  0.00  0.00    +0.000 C 
BRANCH  20  22
ATOM     21  C   UNL     1       7.726   9.064  17.727  0.00  0.00    +0.000 C 
ATOM     22  C   UNL     1       7.960   7.906  17.941  0.00  0.00    +0.000 C 
ENDBRANCH  20  22
ENDBRANCH   1  20
BRANCH   4  23
ATOM     23  C   UNL     1       5.483   4.369  14.639  0.00  0.00    +0.000 C 
BRANCH  23  24
ATOM     24  O   UNL     1       6.511   3.562  14.083  0.00  0.00    +0.000 OA
ATOM     25  H   UNL     1       7.243   3.576  14.730  0.00  0.00    +0.000 HD
ENDBRANCH  23  24
ENDBRANCH   4  23
TORSDOF 8
ENDMDL
