MODEL 1
REMARK VINA RESULT:      -7.6      0.000      0.000
REMARK  Name = 
REMARK  11 active torsions:
REMARK  status: ('A' for Active; 'I' for Inactive)
REMARK    1  A    between atoms: C_1  and  C_2
REMARK    2  A    between atoms: C_5  and  N_6
REMARK    3  A    between atoms: N_9  and  C_10
REMARK    4  A    between atoms: C_12  and  C_13
REMARK    5  A    between atoms: C_13  and  C_14
REMARK    6  A    between atoms: C_13  and  C_15
REMARK    7  A    between atoms: C_13  and  C_16
REMARK    8  A    between atoms: C_18  and  C_19
REMARK    9  A    between atoms: C_19  and  N_20
REMARK   10  A    between atoms: C_21  and  C_23
REMARK   11  A    between atoms: C_23  and  N_24
REMARK                            x       y       z     vdW  Elec       q    Type
REMARK                         _______ _______ _______ _____ _____    ______ ____
ROOT
ATOM      1  C   UNL     1       3.264   6.670  17.803  0.00  0.00    +0.000 A 
ATOM      2  C   UNL     1       4.680   6.889  17.791  0.00  0.00    +0.000 A 
ATOM      3  C   UNL     1       5.454   5.760  17.954  0.00  0.00    +0.000 A 
ATOM      4  S   UNL     1       4.442   4.387  18.049  0.00  0.00    +0.000 S 
ATOM      5  C   UNL     1       2.994   5.316  17.904  0.00  0.00    +0.000 A 
ENDROOT
BRANCH   1   9
ATOM      6  N   UNL     1       1.064   9.443  18.658  0.00  0.00    +0.000 N 
ATOM      7  C   UNL     1       1.852   8.324  18.873  0.00  0.00    +0.000 C 
ATOM      8  O   UNL     1       2.156   7.925  19.994  0.00  0.00    +0.000 OA
ATOM      9  N   UNL     1       2.299   7.695  17.718  0.00  0.00    +0.000 N 
ATOM     10  H   UNL     1       0.771   9.645  17.713  0.00  0.00    +0.000 HD
ATOM     11  H   UNL     1       1.693   7.698  16.905  0.00  0.00    +0.000 HD
BRANCH   6  16
ATOM     12  C   UNL     1      -0.850  12.961  22.814  0.00  0.00    +0.000 C 
ATOM     13  C   UNL     1      -0.340  12.040  21.749  0.00  0.00    +0.000 A 
ATOM     14  C   UNL     1       0.604  12.489  20.832  0.00  0.00    +0.000 A 
ATOM     15  C   UNL     1       1.067  11.640  19.825  0.00  0.00    +0.000 A 
ATOM     16  C   UNL     1       0.619  10.320  19.694  0.00  0.00    +0.000 A 
ATOM     17  C   UNL     1      -0.328   9.868  20.618  0.00  0.00    +0.000 A 
ATOM     18  C   UNL     1      -0.801  10.720  21.635  0.00  0.00    +0.000 A 
ENDBRANCH   6  16
ENDBRANCH   1   9
BRANCH   3  19
ATOM     19  C   UNL     1       6.985   5.735  18.031  0.00  0.00    +0.000 C 
ATOM     20  C   UNL     1       7.431   5.640  19.509  0.00  0.00    +0.000 C 
ATOM     21  C   UNL     1       7.619   4.564  17.263  0.00  0.00    +0.000 C 
ATOM     22  C   UNL     1       7.545   7.052  17.446  0.00  0.00    +0.000 C 
ENDBRANCH   3  19
BRANCH   5  23
ATOM     23  C   UNL     1       1.685   4.591  17.922  0.00  0.00    +0.000 C 
BRANCH  23  24
ATOM     24  N   UNL     1       1.693   3.582  18.952  0.00  0.00    +0.000 N 
ATOM     25  C   UNL     1       1.308   3.840  20.245  0.00  0.00    +0.000 C 
ATOM     26  O   UNL     1       0.945   4.959  20.621  0.00  0.00    +0.000 OA
ATOM     27  H   UNL     1       2.064   2.654  18.762  0.00  0.00    +0.000 HD
BRANCH  25  28
ATOM     28  C   UNL     1       1.393   2.628  21.186  0.00  0.00    +0.000 C 
BRANCH  28  29
ATOM     29  N   UNL     1       2.633   2.659  21.988  0.00  0.00    +0.000 NA
ATOM     30  H   UNL     1       3.419   2.463  21.366  0.00  0.00    +0.000 HD
ATOM     31  H   UNL     1       2.606   1.873  22.642  0.00  0.00    +0.000 HD
ENDBRANCH  28  29
ENDBRANCH  25  28
ENDBRANCH  23  24
ENDBRANCH   5  23
TORSDOF 7
ENDMDL
MODEL 2
REMARK VINA RESULT:      -7.5      1.022      1.595
REMARK  Name = 
REMARK  11 active torsions:
REMARK  status: ('A' for Active; 'I' for Inactive)
REMARK    1  A    between atoms: C_1  and  C_2
REMARK    2  A    between atoms: C_5  and  N_6
REMARK    3  A    between atoms: N_9  and  C_10
REMARK    4  A    between atoms: C_12  and  C_13
REMARK    5  A    between atoms: C_13  and  C_14
REMARK    6  A    between atoms: C_13  and  C_15
REMARK    7  A    between atoms: C_13  and  C_16
REMARK    8  A    between atoms: C_18  and  C_19
REMARK    9  A    between atoms: C_19  and  N_20
REMARK   10  A    between atoms: C_21  and  C_23
REMARK   11  A    between atoms: C_23  and  N_24
REMARK                            x       y       z     vdW  Elec       q    Type
REMARK                         _______ _______ _______ _____ _____    ______ ____
ROOT
ATOM      1  C   UNL     1       3.413   6.798  17.627  0.00  0.00    +0.000 A 
ATOM      2  C   UNL     1       4.834   6.967  17.571  0.00  0.00    +0.000 A 
ATOM      3  C   UNL     1       5.576   5.887  18.001  0.00  0.00    +0.000 A 
ATOM      4  S   UNL     1       4.525   4.605  18.411  0.00  0.00    +0.000 S 
ATOM      5  C   UNL     1       3.104   5.514  18.044  0.00  0.00    +0.000 A 
ENDROOT
BRANCH   1   9
ATOM      6  N   UNL     1       1.142   9.635  17.859  0.00  0.00    +0.000 N 
ATOM      7  C   UNL     1       1.883   8.552  18.303  0.00  0.00    +0.000 C 
ATOM      8  O   UNL     1       2.029   8.282  19.493  0.00  0.00    +0.000 OA
ATOM      9  N   UNL     1       2.477   7.800  17.298  0.00  0.00    +0.000 N 
ATOM     10  H   UNL     1       0.983   9.728  16.866  0.00  0.00    +0.000 HD
ATOM     11  H   UNL     1       1.988   7.709  16.414  0.00  0.00    +0.000 HD
BRANCH   6  16
ATOM     12  C   UNL     1      -1.079  13.603  21.413  0.00  0.00    +0.000 C 
ATOM     13  C   UNL     1      -0.508  12.586  20.475  0.00  0.00    +0.000 A 
ATOM     14  C   UNL     1      -1.273  11.495  20.077  0.00  0.00    +0.000 A 
ATOM     15  C   UNL     1      -0.738  10.534  19.219  0.00  0.00    +0.000 A 
ATOM     16  C   UNL     1       0.568  10.619  18.720  0.00  0.00    +0.000 A 
ATOM     17  C   UNL     1       1.337  11.718  19.118  0.00  0.00    +0.000 A 
ATOM     18  C   UNL     1       0.802  12.691  19.985  0.00  0.00    +0.000 A 
ENDBRANCH   6  16
ENDBRANCH   1   9
BRANCH   3  19
ATOM     19  C   UNL     1       7.106   5.838  18.089  0.00  0.00    +0.000 C 
ATOM     20  C   UNL     1       7.704   7.127  17.480  0.00  0.00    +0.000 C 
ATOM     21  C   UNL     1       7.633   5.699  19.528  0.00  0.00    +0.000 C 
ATOM     22  C   UNL     1       7.625   4.634  17.270  0.00  0.00    +0.000 C 
ENDBRANCH   3  19
BRANCH   5  23
ATOM     23  C   UNL     1       1.775   4.851  18.226  0.00  0.00    +0.000 C 
BRANCH  23  24
ATOM     24  N   UNL     1       1.650   4.356  19.573  0.00  0.00    +0.000 N 
ATOM     25  C   UNL     1       1.343   3.048  19.857  0.00  0.00    +0.000 C 
ATOM     26  O   UNL     1       1.133   2.207  18.976  0.00  0.00    +0.000 OA
ATOM     27  H   UNL     1       1.714   4.993  20.365  0.00  0.00    +0.000 HD
BRANCH  25  28
ATOM     28  C   UNL     1       1.256   2.726  21.357  0.00  0.00    +0.000 C 
BRANCH  28  29
ATOM     29  N   UNL     1       2.600   2.646  21.965  0.00  0.00    +0.000 NA
ATOM     30  H   UNL     1       2.761   3.503  22.497  0.00  0.00    +0.000 HD
ATOM     31  H   UNL     1       3.290   2.666  21.211  0.00  0.00    +0.000 HD
ENDBRANCH  28  29
ENDBRANCH  25  28
ENDBRANCH  23  24
ENDBRANCH   5  23
TORSDOF 7
ENDMDL
MODEL 3
REMARK VINA RESULT:      -7.4      1.048      1.048
REMARK  Name = 
REMARK  11 active torsions:
REMARK  status: ('A' for Active; 'I' for Inactive)
REMARK    1  A    between atoms: C_1  and  C_2
REMARK    2  A    between atoms: C_5  and  N_6
REMARK    3  A    between atoms: N_9  and  C_10
REMARK    4  A    between atoms: C_12  and  C_13
REMARK    5  A    between atoms: C_13  and  C_14
REMARK    6  A    between atoms: C_13  and  C_15
REMARK    7  A    between atoms: C_13  and  C_16
REMARK    8  A    between atoms: C_18  and  C_19
REMARK    9  A    between atoms: C_19  and  N_20
REMARK   10  A    between atoms: C_21  and  C_23
REMARK   11  A    between atoms: C_23  and  N_24
REMARK                            x       y       z     vdW  Elec       q    Type
REMARK                         _______ _______ _______ _____ _____    ______ ____
ROOT
ATOM      1  C   UNL     1       3.416   6.815  17.670  0.00  0.00    +0.000 A 
ATOM      2  C   UNL     1       4.838   6.953  17.567  0.00  0.00    +0.000 A 
ATOM      3  C   UNL     1       5.571   5.878  18.022  0.00  0.00    +0.000 A 
ATOM      4  S   UNL     1       4.509   4.636  18.518  0.00  0.00    +0.000 S 
ATOM      5  C   UNL     1       3.095   5.557  18.151  0.00  0.00    +0.000 A 
ENDROOT
BRANCH   1   9
ATOM      6  N   UNL     1       1.148   9.658  17.861  0.00  0.00    +0.000 N 
ATOM      7  C   UNL     1       1.877   8.571  18.318  0.00  0.00    +0.000 C 
ATOM      8  O   UNL     1       1.996   8.298  19.510  0.00  0.00    +0.000 OA
ATOM      9  N   UNL     1       2.490   7.821  17.323  0.00  0.00    +0.000 N 
ATOM     10  H   UNL     1       1.010   9.754  16.866  0.00  0.00    +0.000 HD
ATOM     11  H   UNL     1       2.019   7.733  16.429  0.00  0.00    +0.000 HD
BRANCH   6  16
ATOM     12  C   UNL     1      -1.322  13.648  21.220  0.00  0.00    +0.000 C 
ATOM     13  C   UNL     1      -0.679  12.601  20.365  0.00  0.00    +0.000 A 
ATOM     14  C   UNL     1       0.673  12.688  20.055  0.00  0.00    +0.000 A 
ATOM     15  C   UNL     1       1.272  11.724  19.241  0.00  0.00    +0.000 A 
ATOM     16  C   UNL     1       0.559  10.641  18.713  0.00  0.00    +0.000 A 
ATOM     17  C   UNL     1      -0.800  10.553  19.028  0.00  0.00    +0.000 A 
ATOM     18  C   UNL     1      -1.412  11.523  19.848  0.00  0.00    +0.000 A 
ENDBRANCH   6  16
ENDBRANCH   1   9
BRANCH   3  19
ATOM     19  C   UNL     1       7.102   5.802  18.069  0.00  0.00    +0.000 C 
ATOM     20  C   UNL     1       7.573   5.701  19.539  0.00  0.00    +0.000 C 
ATOM     21  C   UNL     1       7.681   4.604  17.298  0.00  0.00    +0.000 C 
ATOM     22  C   UNL     1       7.695   7.095  17.463  0.00  0.00    +0.000 C 
ENDBRANCH   3  19
BRANCH   5  23
ATOM     23  C   UNL     1       1.759   4.930  18.399  0.00  0.00    +0.000 C 
BRANCH  23  24
ATOM     24  N   UNL     1       1.733   4.327  19.708  0.00  0.00    +0.000 N 
ATOM     25  C   UNL     1       1.141   3.112  19.953  0.00  0.00    +0.000 C 
ATOM     26  O   UNL     1       0.574   2.458  19.071  0.00  0.00    +0.000 OA
ATOM     27  H   UNL     1       2.093   4.831  20.516  0.00  0.00    +0.000 HD
BRANCH  25  28
ATOM     28  C   UNL     1       1.222   2.649  21.416  0.00  0.00    +0.000 C 
BRANCH  28  29
ATOM     29  N   UNL     1       2.540   2.960  22.003  0.00  0.00    +0.000 NA
ATOM     30  H   UNL     1       3.262   2.619  21.366  0.00  0.00    +0.000 HD
ATOM     31  H   UNL     1       2.648   2.401  22.853  0.00  0.00    +0.000 HD
ENDBRANCH  28  29
ENDBRANCH  25  28
ENDBRANCH  23  24
ENDBRANCH   5  23
TORSDOF 7
ENDMDL
MODEL 4
REMARK VINA RESULT:      -7.4      0.698      1.448
REMARK  Name = 
REMARK  11 active torsions:
REMARK  status: ('A' for Active; 'I' for Inactive)
REMARK    1  A    between atoms: C_1  and  C_2
REMARK    2  A    between atoms: C_5  and  N_6
REMARK    3  A    between atoms: N_9  and  C_10
REMARK    4  A    between atoms: C_12  and  C_13
REMARK    5  A    between atoms: C_13  and  C_14
REMARK    6  A    between atoms: C_13  and  C_15
REMARK    7  A    between atoms: C_13  and  C_16
REMARK    8  A    between atoms: C_18  and  C_19
REMARK    9  A    between atoms: C_19  and  N_20
REMARK   10  A    between atoms: C_21  and  C_23
REMARK   11  A    between atoms: C_23  and  N_24
REMARK                            x       y       z     vdW  Elec       q    Type
REMARK                         _______ _______ _______ _____ _____    ______ ____
ROOT
ATOM      1  C   UNL     1       3.328   6.818  17.869  0.00  0.00    +0.000 A 
ATOM      2  C   UNL     1       4.737   7.023  17.715  0.00  0.00    +0.000 A 
ATOM      3  C   UNL     1       5.525   5.914  17.942  0.00  0.00    +0.000 A 
ATOM      4  S   UNL     1       4.528   4.569  18.276  0.00  0.00    +0.000 S 
ATOM      5  C   UNL     1       3.070   5.486  18.146  0.00  0.00    +0.000 A 
ENDROOT
BRANCH   1   9
ATOM      6  N   UNL     1       1.061   9.561  18.642  0.00  0.00    +0.000 N 
ATOM      7  C   UNL     1       1.850   8.448  18.885  0.00  0.00    +0.000 C 
ATOM      8  O   UNL     1       2.107   8.043  20.016  0.00  0.00    +0.000 OA
ATOM      9  N   UNL     1       2.357   7.833  17.747  0.00  0.00    +0.000 N 
ATOM     10  H   UNL     1       0.810   9.767  17.686  0.00  0.00    +0.000 HD
ATOM     11  H   UNL     1       1.789   7.836  16.907  0.00  0.00    +0.000 HD
BRANCH   6  16
ATOM     12  C   UNL     1      -0.851  13.075  22.801  0.00  0.00    +0.000 C 
ATOM     13  C   UNL     1      -0.368  12.173  21.709  0.00  0.00    +0.000 A 
ATOM     14  C   UNL     1      -0.871  10.881  21.598  0.00  0.00    +0.000 A 
ATOM     15  C   UNL     1      -0.409  10.029  20.594  0.00  0.00    +0.000 A 
ATOM     16  C   UNL     1       0.559  10.425  19.663  0.00  0.00    +0.000 A 
ATOM     17  C   UNL     1       1.062  11.724  19.772  0.00  0.00    +0.000 A 
ATOM     18  C   UNL     1       0.601  12.589  20.785  0.00  0.00    +0.000 A 
ENDBRANCH   6  16
ENDBRANCH   1   9
BRANCH   3  19
ATOM     19  C   UNL     1       7.058   5.888  17.895  0.00  0.00    +0.000 C 
ATOM     20  C   UNL     1       7.531   4.688  17.043  0.00  0.00    +0.000 C 
ATOM     21  C   UNL     1       7.675   7.168  17.306  0.00  0.00    +0.000 C 
ATOM     22  C   UNL     1       7.608   5.705  19.328  0.00  0.00    +0.000 C 
ENDBRANCH   3  19
BRANCH   5  23
ATOM     23  C   UNL     1       1.769   4.777  18.355  0.00  0.00    +0.000 C 
BRANCH  23  24
ATOM     24  N   UNL     1       1.718   4.219  19.683  0.00  0.00    +0.000 N 
ATOM     25  C   UNL     1       1.162   2.992  19.951  0.00  0.00    +0.000 C 
ATOM     26  O   UNL     1       0.650   2.288  19.075  0.00  0.00    +0.000 OA
ATOM     27  H   UNL     1       2.031   4.765  20.484  0.00  0.00    +0.000 HD
BRANCH  25  28
ATOM     28  C   UNL     1       1.207   2.584  21.432  0.00  0.00    +0.000 C 
BRANCH  28  29
ATOM     29  N   UNL     1       2.418   3.110  22.095  0.00  0.00    +0.000 NA
ATOM     30  H   UNL     1       3.134   2.383  22.074  0.00  0.00    +0.000 HD
ATOM     31  H   UNL     1       2.202   3.246  23.085  0.00  0.00    +0.000 HD
ENDBRANCH  28  29
ENDBRANCH  25  28
ENDBRANCH  23  24
ENDBRANCH   5  23
TORSDOF 7
ENDMDL
MODEL 5
REMARK VINA RESULT:      -7.4      0.759      1.101
REMARK  Name = 
REMARK  11 active torsions:
REMARK  status: ('A' for Active; 'I' for Inactive)
REMARK    1  A    between atoms: C_1  and  C_2
REMARK    2  A    between atoms: C_5  and  N_6
REMARK    3  A    between atoms: N_9  and  C_10
REMARK    4  A    between atoms: C_12  and  C_13
REMARK    5  A    between atoms: C_13  and  C_14
REMARK    6  A    between atoms: C_13  and  C_15
REMARK    7  A    between atoms: C_13  and  C_16
REMARK    8  A    between atoms: C_18  and  C_19
REMARK    9  A    between atoms: C_19  and  N_20
REMARK   10  A    between atoms: C_21  and  C_23
REMARK   11  A    between atoms: C_23  and  N_24
REMARK                            x       y       z     vdW  Elec       q    Type
REMARK                         _______ _______ _______ _____ _____    ______ ____
ROOT
ATOM      1  C   UNL     1       3.239   6.795  17.694  0.00  0.00    +0.000 A 
ATOM      2  C   UNL     1       4.652   7.011  17.601  0.00  0.00    +0.000 A 
ATOM      3  C   UNL     1       5.434   5.889  17.773  0.00  0.00    +0.000 A 
ATOM      4  S   UNL     1       4.430   4.523  17.979  0.00  0.00    +0.000 S 
ATOM      5  C   UNL     1       2.975   5.446  17.868  0.00  0.00    +0.000 A 
ENDROOT
BRANCH   1   9
ATOM      6  N   UNL     1       1.044   9.570  18.555  0.00  0.00    +0.000 N 
ATOM      7  C   UNL     1       1.839   8.455  18.769  0.00  0.00    +0.000 C 
ATOM      8  O   UNL     1       2.162   8.068  19.889  0.00  0.00    +0.000 OA
ATOM      9  N   UNL     1       2.269   7.816  17.614  0.00  0.00    +0.000 N 
ATOM     10  H   UNL     1       0.736   9.762  17.612  0.00  0.00    +0.000 HD
ATOM     11  H   UNL     1       1.651   7.809  16.810  0.00  0.00    +0.000 HD
BRANCH   6  16
ATOM     12  C   UNL     1      -0.814  13.134  22.696  0.00  0.00    +0.000 C 
ATOM     13  C   UNL     1      -0.320  12.200  21.636  0.00  0.00    +0.000 A 
ATOM     14  C   UNL     1       0.699  12.597  20.777  0.00  0.00    +0.000 A 
ATOM     15  C   UNL     1       1.149  11.737  19.774  0.00  0.00    +0.000 A 
ATOM     16  C   UNL     1       0.613  10.456  19.589  0.00  0.00    +0.000 A 
ATOM     17  C   UNL     1      -0.410  10.057  20.454  0.00  0.00    +0.000 A 
ATOM     18  C   UNL     1      -0.870  10.921  21.468  0.00  0.00    +0.000 A 
ENDBRANCH   6  16
ENDBRANCH   1   9
BRANCH   3  19
ATOM     19  C   UNL     1       6.968   5.867  17.773  0.00  0.00    +0.000 C 
ATOM     20  C   UNL     1       7.509   7.253  17.355  0.00  0.00    +0.000 C 
ATOM     21  C   UNL     1       7.575   5.508  19.140  0.00  0.00    +0.000 C 
ATOM     22  C   UNL     1       7.462   4.828  16.741  0.00  0.00    +0.000 C 
ENDBRANCH   3  19
BRANCH   5  23
ATOM     23  C   UNL     1       1.670   4.724  17.983  0.00  0.00    +0.000 C 
BRANCH  23  24
ATOM     24  N   UNL     1       1.458   4.303  19.346  0.00  0.00    +0.000 N 
ATOM     25  C   UNL     1       1.619   3.001  19.752  0.00  0.00    +0.000 C 
ATOM     26  O   UNL     1       1.939   2.096  18.975  0.00  0.00    +0.000 OA
ATOM     27  H   UNL     1       1.103   4.959  20.039  0.00  0.00    +0.000 HD
BRANCH  25  28
ATOM     28  C   UNL     1       1.342   2.763  21.245  0.00  0.00    +0.000 C 
BRANCH  28  29
ATOM     29  N   UNL     1       2.593   2.506  21.986  0.00  0.00    +0.000 NA
ATOM     30  H   UNL     1       2.646   3.168  22.763  0.00  0.00    +0.000 HD
ATOM     31  H   UNL     1       3.378   2.747  21.376  0.00  0.00    +0.000 HD
ENDBRANCH  28  29
ENDBRANCH  25  28
ENDBRANCH  23  24
ENDBRANCH   5  23
TORSDOF 7
ENDMDL
MODEL 6
REMARK VINA RESULT:      -7.4      1.288      1.607
REMARK  Name = 
REMARK  11 active torsions:
REMARK  status: ('A' for Active; 'I' for Inactive)
REMARK    1  A    between atoms: C_1  and  C_2
REMARK    2  A    between atoms: C_5  and  N_6
REMARK    3  A    between atoms: N_9  and  C_10
REMARK    4  A    between atoms: C_12  and  C_13
REMARK    5  A    between atoms: C_13  and  C_14
REMARK    6  A    between atoms: C_13  and  C_15
REMARK    7  A    between atoms: C_13  and  C_16
REMARK    8  A    between atoms: C_18  and  C_19
REMARK    9  A    between atoms: C_19  and  N_20
REMARK   10  A    between atoms: C_21  and  C_23
REMARK   11  A    between atoms: C_23  and  N_24
REMARK                            x       y       z     vdW  Elec       q    Type
REMARK                         _______ _______ _______ _____ _____    ______ ____
ROOT
ATOM      1  C   UNL     1       3.528   5.930  18.717  0.00  0.00    +0.000 A 
ATOM      2  C   UNL     1       4.867   6.229  18.307  0.00  0.00    +0.000 A 
ATOM      3  C   UNL     1       5.401   5.378  17.363  0.00  0.00    +0.000 A 
ATOM      4  S   UNL     1       4.223   4.230  16.904  0.00  0.00    +0.000 S 
ATOM      5  C   UNL     1       3.036   4.860  17.988  0.00  0.00    +0.000 A 
ENDROOT
BRANCH   1   9
ATOM      6  N   UNL     1       1.390   8.346  20.406  0.00  0.00    +0.000 N 
ATOM      7  C   UNL     1       2.219   7.847  19.414  0.00  0.00    +0.000 C 
ATOM      8  O   UNL     1       2.393   8.414  18.338  0.00  0.00    +0.000 OA
ATOM      9  N   UNL     1       2.824   6.634  19.716  0.00  0.00    +0.000 N 
ATOM     10  H   UNL     1       1.382   7.878  21.300  0.00  0.00    +0.000 HD
ATOM     11  H   UNL     1       3.078   6.451  20.681  0.00  0.00    +0.000 HD
BRANCH   6  16
ATOM     12  C   UNL     1      -2.026  12.968  19.877  0.00  0.00    +0.000 C 
ATOM     13  C   UNL     1      -1.123  11.781  20.011  0.00  0.00    +0.000 A 
ATOM     14  C   UNL     1      -0.896  10.951  18.920  0.00  0.00    +0.000 A 
ATOM     15  C   UNL     1      -0.071   9.831  19.046  0.00  0.00    +0.000 A 
ATOM     16  C   UNL     1       0.560   9.499  20.251  0.00  0.00    +0.000 A 
ATOM     17  C   UNL     1       0.334  10.336  21.347  0.00  0.00    +0.000 A 
ATOM     18  C   UNL     1      -0.499  11.466  21.227  0.00  0.00    +0.000 A 
ENDBRANCH   6  16
ENDBRANCH   1   9
BRANCH   3  19
ATOM     19  C   UNL     1       6.828   5.452  16.804  0.00  0.00    +0.000 C 
ATOM     20  C   UNL     1       7.374   6.890  16.961  0.00  0.00    +0.000 C 
ATOM     21  C   UNL     1       7.808   4.489  17.495  0.00  0.00    +0.000 C 
ATOM     22  C   UNL     1       6.802   5.111  15.296  0.00  0.00    +0.000 C 
ENDBRANCH   3  19
BRANCH   5  23
ATOM     23  C   UNL     1       1.693   4.203  18.024  0.00  0.00    +0.000 C 
BRANCH  23  24
ATOM     24  N   UNL     1       1.625   3.278  19.128  0.00  0.00    +0.000 N 
ATOM     25  C   UNL     1       1.192   3.646  20.378  0.00  0.00    +0.000 C 
ATOM     26  O   UNL     1       0.847   4.800  20.650  0.00  0.00    +0.000 OA
ATOM     27  H   UNL     1       1.976   2.327  19.026  0.00  0.00    +0.000 HD
BRANCH  25  28
ATOM     28  C   UNL     1       1.199   2.509  21.412  0.00  0.00    +0.000 C 
BRANCH  28  29
ATOM     29  N   UNL     1       2.458   2.496  22.184  0.00  0.00    +0.000 NA
ATOM     30  H   UNL     1       2.335   3.090  23.006  0.00  0.00    +0.000 HD
ATOM     31  H   UNL     1       3.177   2.959  21.624  0.00  0.00    +0.000 HD
ENDBRANCH  28  29
ENDBRANCH  25  28
ENDBRANCH  23  24
ENDBRANCH   5  23
TORSDOF 7
ENDMDL
MODEL 7
REMARK VINA RESULT:      -7.3      0.755      1.140
REMARK  Name = 
REMARK  11 active torsions:
REMARK  status: ('A' for Active; 'I' for Inactive)
REMARK    1  A    between atoms: C_1  and  C_2
REMARK    2  A    between atoms: C_5  and  N_6
REMARK    3  A    between atoms: N_9  and  C_10
REMARK    4  A    between atoms: C_12  and  C_13
REMARK    5  A    between atoms: C_13  and  C_14
REMARK    6  A    between atoms: C_13  and  C_15
REMARK    7  A    between atoms: C_13  and  C_16
REMARK    8  A    between atoms: C_18  and  C_19
REMARK    9  A    between atoms: C_19  and  N_20
REMARK   10  A    between atoms: C_21  and  C_23
REMARK   11  A    between atoms: C_23  and  N_24
REMARK                            x       y       z     vdW  Elec       q    Type
REMARK                         _______ _______ _______ _____ _____    ______ ____
ROOT
ATOM      1  C   UNL     1       3.399   6.735  17.604  0.00  0.00    +0.000 A 
ATOM      2  C   UNL     1       4.819   6.916  17.636  0.00  0.00    +0.000 A 
ATOM      3  C   UNL     1       5.548   5.814  18.031  0.00  0.00    +0.000 A 
ATOM      4  S   UNL     1       4.490   4.500  18.297  0.00  0.00    +0.000 S 
ATOM      5  C   UNL     1       3.081   5.423  17.916  0.00  0.00    +0.000 A 
ENDROOT
BRANCH   1   9
ATOM      6  N   UNL     1       1.154   9.588  17.887  0.00  0.00    +0.000 N 
ATOM      7  C   UNL     1       1.887   8.491  18.312  0.00  0.00    +0.000 C 
ATOM      8  O   UNL     1       2.031   8.200  19.497  0.00  0.00    +0.000 OA
ATOM      9  N   UNL     1       2.472   7.751  17.293  0.00  0.00    +0.000 N 
ATOM     10  H   UNL     1       0.995   9.699  16.897  0.00  0.00    +0.000 HD
ATOM     11  H   UNL     1       1.980   7.679  16.409  0.00  0.00    +0.000 HD
BRANCH   6  16
ATOM     12  C   UNL     1      -1.214  13.544  21.359  0.00  0.00    +0.000 C 
ATOM     13  C   UNL     1      -0.597  12.505  20.475  0.00  0.00    +0.000 A 
ATOM     14  C   UNL     1       0.741  12.607  20.108  0.00  0.00    +0.000 A 
ATOM     15  C   UNL     1       1.315  11.652  19.267  0.00  0.00    +0.000 A 
ATOM     16  C   UNL     1       0.591  10.563  18.766  0.00  0.00    +0.000 A 
ATOM     17  C   UNL     1      -0.753  10.460  19.137  0.00  0.00    +0.000 A 
ATOM     18  C   UNL     1      -1.339  11.421  19.984  0.00  0.00    +0.000 A 
ENDBRANCH   6  16
ENDBRANCH   1   9
BRANCH   3  19
ATOM     19  C   UNL     1       7.071   5.769  18.199  0.00  0.00    +0.000 C 
ATOM     20  C   UNL     1       7.645   4.561  17.422  0.00  0.00    +0.000 C 
ATOM     21  C   UNL     1       7.781   7.040  17.701  0.00  0.00    +0.000 C 
ATOM     22  C   UNL     1       7.414   5.584  19.695  0.00  0.00    +0.000 C 
ENDBRANCH   3  19
BRANCH   5  23
ATOM     23  C   UNL     1       1.751   4.741  17.981  0.00  0.00    +0.000 C 
BRANCH  23  24
ATOM     24  N   UNL     1       1.752   3.754  19.031  0.00  0.00    +0.000 N 
ATOM     25  C   UNL     1       1.345   4.034  20.312  0.00  0.00    +0.000 C 
ATOM     26  O   UNL     1       0.964   5.157  20.659  0.00  0.00    +0.000 OA
ATOM     27  H   UNL     1       2.135   2.825  18.865  0.00  0.00    +0.000 HD
BRANCH  25  28
ATOM     28  C   UNL     1       1.426   2.843  21.279  0.00  0.00    +0.000 C 
BRANCH  28  29
ATOM     29  N   UNL     1       2.794   2.679  21.812  0.00  0.00    +0.000 NA
ATOM     30  H   UNL     1       3.399   2.376  21.047  0.00  0.00    +0.000 HD
ATOM     31  H   UNL     1       2.785   1.897  22.471  0.00  0.00    +0.000 HD
ENDBRANCH  28  29
ENDBRANCH  25  28
ENDBRANCH  23  24
ENDBRANCH   5  23
TORSDOF 7
ENDMDL
MODEL 8
REMARK VINA RESULT:      -7.3      2.597      4.769
REMARK  Name = 
REMARK  11 active torsions:
REMARK  status: ('A' for Active; 'I' for Inactive)
REMARK    1  A    between atoms: C_1  and  C_2
REMARK    2  A    between atoms: C_5  and  N_6
REMARK    3  A    between atoms: N_9  and  C_10
REMARK    4  A    between atoms: C_12  and  C_13
REMARK    5  A    between atoms: C_13  and  C_14
REMARK    6  A    between atoms: C_13  and  C_15
REMARK    7  A    between atoms: C_13  and  C_16
REMARK    8  A    between atoms: C_18  and  C_19
REMARK    9  A    between atoms: C_19  and  N_20
REMARK   10  A    between atoms: C_21  and  C_23
REMARK   11  A    between atoms: C_23  and  N_24
REMARK                            x       y       z     vdW  Elec       q    Type
REMARK                         _______ _______ _______ _____ _____    ______ ____
ROOT
ATOM      1  C   UNL     1       3.118   6.363  18.151  0.00  0.00    +0.000 A 
ATOM      2  C   UNL     1       2.434   5.379  18.935  0.00  0.00    +0.000 A 
ATOM      3  C   UNL     1       3.203   4.311  19.348  0.00  0.00    +0.000 A 
ATOM      4  S   UNL     1       4.816   4.544  18.837  0.00  0.00    +0.000 S 
ATOM      5  C   UNL     1       4.461   6.039  18.050  0.00  0.00    +0.000 A 
ENDROOT
BRANCH   1   9
ATOM      6  N   UNL     1       1.600   9.645  17.725  0.00  0.00    +0.000 N 
ATOM      7  C   UNL     1       1.996   8.497  18.393  0.00  0.00    +0.000 C 
ATOM      8  O   UNL     1       1.929   8.375  19.614  0.00  0.00    +0.000 OA
ATOM      9  N   UNL     1       2.502   7.494  17.577  0.00  0.00    +0.000 N 
ATOM     10  H   UNL     1       1.586   9.628  16.716  0.00  0.00    +0.000 HD
ATOM     11  H   UNL     1       2.112   7.390  16.646  0.00  0.00    +0.000 HD
BRANCH   6  16
ATOM     12  C   UNL     1       0.033  14.499  20.426  0.00  0.00    +0.000 C 
ATOM     13  C   UNL     1       0.435  13.249  19.707  0.00  0.00    +0.000 A 
ATOM     14  C   UNL     1      -0.460  12.191  19.594  0.00  0.00    +0.000 A 
ATOM     15  C   UNL     1      -0.083  11.015  18.943  0.00  0.00    +0.000 A 
ATOM     16  C   UNL     1       1.187  10.848  18.377  0.00  0.00    +0.000 A 
ATOM     17  C   UNL     1       2.085  11.913  18.487  0.00  0.00    +0.000 A 
ATOM     18  C   UNL     1       1.711  13.101  19.146  0.00  0.00    +0.000 A 
ENDBRANCH   6  16
ENDBRANCH   1   9
BRANCH   3  19
ATOM     19  C   UNL     1       2.695   3.106  20.148  0.00  0.00    +0.000 C 
ATOM     20  C   UNL     1       2.039   3.592  21.462  0.00  0.00    +0.000 C 
ATOM     21  C   UNL     1       1.666   2.254  19.386  0.00  0.00    +0.000 C 
ATOM     22  C   UNL     1       3.891   2.199  20.517  0.00  0.00    +0.000 C 
ENDBRANCH   3  19
BRANCH   5  23
ATOM     23  C   UNL     1       5.580   6.763  17.371  0.00  0.00    +0.000 C 
BRANCH  23  24
ATOM     24  N   UNL     1       5.808   6.205  16.062  0.00  0.00    +0.000 N 
ATOM     25  C   UNL     1       6.824   5.317  15.801  0.00  0.00    +0.000 C 
ATOM     26  O   UNL     1       7.625   4.950  16.667  0.00  0.00    +0.000 OA
ATOM     27  H   UNL     1       5.258   6.518  15.265  0.00  0.00    +0.000 HD
BRANCH  25  28
ATOM     28  C   UNL     1       6.894   4.843  14.341  0.00  0.00    +0.000 C 
BRANCH  28  29
ATOM     29  N   UNL     1       7.937   5.572  13.592  0.00  0.00    +0.000 NA
ATOM     30  H   UNL     1       8.772   4.985  13.554  0.00  0.00    +0.000 HD
ATOM     31  H   UNL     1       8.210   6.389  14.143  0.00  0.00    +0.000 HD
ENDBRANCH  28  29
ENDBRANCH  25  28
ENDBRANCH  23  24
ENDBRANCH   5  23
TORSDOF 7
ENDMDL
MODEL 9
REMARK VINA RESULT:      -7.3      2.536      4.633
REMARK  Name = 
REMARK  11 active torsions:
REMARK  status: ('A' for Active; 'I' for Inactive)
REMARK    1  A    between atoms: C_1  and  C_2
REMARK    2  A    between atoms: C_5  and  N_6
REMARK    3  A    between atoms: N_9  and  C_10
REMARK    4  A    between atoms: C_12  and  C_13
REMARK    5  A    between atoms: C_13  and  C_14
REMARK    6  A    between atoms: C_13  and  C_15
REMARK    7  A    between atoms: C_13  and  C_16
REMARK    8  A    between atoms: C_18  and  C_19
REMARK    9  A    between atoms: C_19  and  N_20
REMARK   10  A    between atoms: C_21  and  C_23
REMARK   11  A    between atoms: C_23  and  N_24
REMARK                            x       y       z     vdW  Elec       q    Type
REMARK                         _______ _______ _______ _____ _____    ______ ____
ROOT
ATOM      1  C   UNL     1       3.123   6.545  17.953  0.00  0.00    +0.000 A 
ATOM      2  C   UNL     1       2.295   5.603  18.645  0.00  0.00    +0.000 A 
ATOM      3  C   UNL     1       2.918   4.432  19.021  0.00  0.00    +0.000 A 
ATOM      4  S   UNL     1       4.569   4.505  18.592  0.00  0.00    +0.000 S 
ATOM      5  C   UNL     1       4.424   6.075  17.887  0.00  0.00    +0.000 A 
ENDROOT
BRANCH   1   9
ATOM      6  N   UNL     1       1.855   9.949  17.684  0.00  0.00    +0.000 N 
ATOM      7  C   UNL     1       2.078   8.710  18.264  0.00  0.00    +0.000 C 
ATOM      8  O   UNL     1       1.800   8.458  19.435  0.00  0.00    +0.000 OA
ATOM      9  N   UNL     1       2.667   7.772  17.427  0.00  0.00    +0.000 N 
ATOM     10  H   UNL     1       2.011  10.045  16.692  0.00  0.00    +0.000 HD
ATOM     11  H   UNL     1       2.436   7.797  16.439  0.00  0.00    +0.000 HD
BRANCH   6  16
ATOM     12  C   UNL     1      -0.101  14.589  20.503  0.00  0.00    +0.000 C 
ATOM     13  C   UNL     1       0.410  13.376  19.790  0.00  0.00    +0.000 A 
ATOM     14  C   UNL     1       1.713  13.350  19.304  0.00  0.00    +0.000 A 
ATOM     15  C   UNL     1       2.187  12.229  18.621  0.00  0.00    +0.000 A 
ATOM     16  C   UNL     1       1.395  11.096  18.400  0.00  0.00    +0.000 A 
ATOM     17  C   UNL     1       0.087  11.121  18.891  0.00  0.00    +0.000 A 
ATOM     18  C   UNL     1      -0.399  12.251  19.581  0.00  0.00    +0.000 A 
ENDBRANCH   6  16
ENDBRANCH   1   9
BRANCH   3  19
ATOM     19  C   UNL     1       2.239   3.249  19.722  0.00  0.00    +0.000 C 
ATOM     20  C   UNL     1       1.053   3.759  20.573  0.00  0.00    +0.000 C 
ATOM     21  C   UNL     1       1.707   2.183  18.749  0.00  0.00    +0.000 C 
ATOM     22  C   UNL     1       3.253   2.569  20.670  0.00  0.00    +0.000 C 
ENDBRANCH   3  19
BRANCH   5  23
ATOM     23  C   UNL     1       5.649   6.703  17.301  0.00  0.00    +0.000 C 
BRANCH  23  24
ATOM     24  N   UNL     1       5.890   6.179  15.980  0.00  0.00    +0.000 N 
ATOM     25  C   UNL     1       6.864   5.247  15.718  0.00  0.00    +0.000 C 
ATOM     26  O   UNL     1       7.616   4.806  16.594  0.00  0.00    +0.000 OA
ATOM     27  H   UNL     1       5.383   6.549  15.178  0.00  0.00    +0.000 HD
BRANCH  25  28
ATOM     28  C   UNL     1       6.956   4.821  14.245  0.00  0.00    +0.000 C 
BRANCH  28  29
ATOM     29  N   UNL     1       6.273   3.532  14.017  0.00  0.00    +0.000 NA
ATOM     30  H   UNL     1       5.321   3.727  13.703  0.00  0.00    +0.000 HD
ATOM     31  H   UNL     1       6.167   3.066  14.921  0.00  0.00    +0.000 HD
ENDBRANCH  28  29
ENDBRANCH  25  28
ENDBRANCH  23  24
ENDBRANCH   5  23
TORSDOF 7
ENDMDL
