MODEL 1
REMARK VINA RESULT:      -8.9      0.000      0.000
REMARK  Name = 
REMARK  5 active torsions:
REMARK  status: ('A' for Active; 'I' for Inactive)
REMARK    1  A    between atoms: C_2  and  C_11
REMARK    2  A    between atoms: N_3  and  C_4
REMARK    3  A    between atoms: C_9  and  O_10
REMARK    4  A    between atoms: N_13  and  C_14
REMARK    5  A    between atoms: C_14  and  C_15
REMARK                            x       y       z     vdW  Elec       q    Type
REMARK                         _______ _______ _______ _____ _____    ______ ____
ROOT
ATOM      1  C   UNL     1       2.196   4.515  17.214  0.00  0.00    +0.000 C 
ATOM      2  C   UNL     1       1.766   5.831  17.863  0.00  0.00    +0.000 C 
ATOM      3  N   UNL     1       2.151   5.857  19.275  0.00  0.00    +0.000 N 
ATOM      4  C   UNL     1       2.026   4.652  19.953  0.00  0.00    +0.000 A 
ATOM      5  C   UNL     1       2.185   4.542  21.341  0.00  0.00    +0.000 A 
ATOM      6  C   UNL     1       1.979   3.327  22.010  0.00  0.00    +0.000 A 
ATOM      7  C   UNL     1       1.598   2.190  21.302  0.00  0.00    +0.000 A 
ATOM      8  C   UNL     1       1.462   2.260  19.921  0.00  0.00    +0.000 A 
ATOM      9  C   UNL     1       1.703   3.465  19.255  0.00  0.00    +0.000 A 
ATOM     10  O   UNL     1       1.605   3.392  17.880  0.00  0.00    +0.000 OA
ENDROOT
BRANCH   1  12
ATOM     11  O   UNL     1       4.305   3.372  16.717  0.00  0.00    +0.000 OA
ATOM     12  C   UNL     1       3.731   4.411  17.031  0.00  0.00    +0.000 C 
ATOM     13  N   UNL     1       4.398   5.576  17.353  0.00  0.00    +0.000 N 
ATOM     14  H   UNL     1       3.831   6.328  17.736  0.00  0.00    +0.000 HD
BRANCH  13  15
ATOM     15  C   UNL     1       5.852   5.778  17.317  0.00  0.00    +0.000 C 
ATOM     16  C   UNL     1       6.225   7.243  17.042  0.00  0.00    +0.000 C 
ATOM     17  C   UNL     1       7.714   7.515  17.245  0.00  0.00    +0.000 C 
ATOM     18  C   UNL     1       8.145   7.146  18.656  0.00  0.00    +0.000 C 
ATOM     19  C   UNL     1       7.905   5.665  18.904  0.00  0.00    +0.000 C 
ATOM     20  C   UNL     1       6.449   5.274  18.660  0.00  0.00    +0.000 C 
BRANCH  20  21
ATOM     21  O   UNL     1       6.334   3.848  18.732  0.00  0.00    +0.000 OA
ATOM     22  H   UNL     1       6.271   3.511  17.820  0.00  0.00    +0.000 HD
ENDBRANCH  20  21
ENDBRANCH  13  15
ENDBRANCH   1  12
BRANCH   3  23
ATOM     23  C   UNL     1       2.683   7.094  19.838  0.00  0.00    +0.000 C 
BRANCH  23  24
ATOM     24  C   UNL     1       1.646   8.144  20.166  0.00  0.00    +0.000 A 
ATOM     25  C   UNL     1       0.982   8.268  21.389  0.00  0.00    +0.000 A 
ATOM     26  C   UNL     1       0.068   9.305  21.591  0.00  0.00    +0.000 A 
ATOM     27  C   UNL     1      -0.167  10.203  20.554  0.00  0.00    +0.000 A 
ATOM     28  N   UNL     1      -1.073  11.291  20.757  0.00  0.00    +0.000 N 
ATOM     29  C   UNL     1      -1.405  12.255  19.825  0.00  0.00    +0.000 A 
ATOM     30  C   UNL     1      -2.280  13.124  20.430  0.00  0.00    +0.000 A 
ATOM     31  C   UNL     1      -2.433  12.615  21.730  0.00  0.00    +0.000 A 
ATOM     32  N   UNL     1      -1.720  11.506  21.939  0.00  0.00    +0.000 NA
ATOM     33  N   UNL     1       0.451  10.104  19.348  0.00  0.00    +0.000 NA
ATOM     34  C   UNL     1       1.331   9.089  19.189  0.00  0.00    +0.000 A 
ENDBRANCH  23  24
ENDBRANCH   3  23
TORSDOF 5
ENDMDL
MODEL 2
REMARK VINA RESULT:      -8.5      0.594      1.082
REMARK  Name = 
REMARK  5 active torsions:
REMARK  status: ('A' for Active; 'I' for Inactive)
REMARK    1  A    between atoms: C_2  and  C_11
REMARK    2  A    between atoms: N_3  and  C_4
REMARK    3  A    between atoms: C_9  and  O_10
REMARK    4  A    between atoms: N_13  and  C_14
REMARK    5  A    between atoms: C_14  and  C_15
REMARK                            x       y       z     vdW  Elec       q    Type
REMARK                         _______ _______ _______ _____ _____    ______ ____
ROOT
ATOM      1  C   UNL     1       2.191   4.561  17.226  0.00  0.00    +0.000 C 
ATOM      2  C   UNL     1       1.776   5.868  17.901  0.00  0.00    +0.000 C 
ATOM      3  N   UNL     1       2.159   5.862  19.314  0.00  0.00    +0.000 N 
ATOM      4  C   UNL     1       2.020   4.645  19.968  0.00  0.00    +0.000 A 
ATOM      5  C   UNL     1       2.177   4.505  21.354  0.00  0.00    +0.000 A 
ATOM      6  C   UNL     1       1.956   3.279  21.998  0.00  0.00    +0.000 A 
ATOM      7  C   UNL     1       1.564   2.162  21.267  0.00  0.00    +0.000 A 
ATOM      8  C   UNL     1       1.430   2.260  19.887  0.00  0.00    +0.000 A 
ATOM      9  C   UNL     1       1.685   3.476  19.246  0.00  0.00    +0.000 A 
ATOM     10  O   UNL     1       1.588   3.432  17.870  0.00  0.00    +0.000 OA
ENDROOT
BRANCH   1  12
ATOM     11  O   UNL     1       4.289   3.400  16.724  0.00  0.00    +0.000 OA
ATOM     12  C   UNL     1       3.725   4.444  17.043  0.00  0.00    +0.000 C 
ATOM     13  N   UNL     1       4.403   5.600  17.370  0.00  0.00    +0.000 N 
ATOM     14  H   UNL     1       3.844   6.356  17.757  0.00  0.00    +0.000 HD
BRANCH  13  15
ATOM     15  C   UNL     1       5.860   5.789  17.335  0.00  0.00    +0.000 C 
ATOM     16  C   UNL     1       6.246   7.248  17.048  0.00  0.00    +0.000 C 
ATOM     17  C   UNL     1       7.737   7.508  17.250  0.00  0.00    +0.000 C 
ATOM     18  C   UNL     1       8.163   7.147  18.666  0.00  0.00    +0.000 C 
ATOM     19  C   UNL     1       7.908   5.670  18.926  0.00  0.00    +0.000 C 
ATOM     20  C   UNL     1       6.449   5.290  18.683  0.00  0.00    +0.000 C 
BRANCH  20  21
ATOM     21  O   UNL     1       6.321   3.866  18.767  0.00  0.00    +0.000 OA
ATOM     22  H   UNL     1       7.179   3.478  18.515  0.00  0.00    +0.000 HD
ENDBRANCH  20  21
ENDBRANCH  13  15
ENDBRANCH   1  12
BRANCH   3  23
ATOM     23  C   UNL     1       2.705   7.081  19.902  0.00  0.00    +0.000 C 
BRANCH  23  24
ATOM     24  C   UNL     1       1.736   8.239  19.986  0.00  0.00    +0.000 A 
ATOM     25  C   UNL     1       1.311   9.014  18.904  0.00  0.00    +0.000 A 
ATOM     26  C   UNL     1       0.379  10.037  19.095  0.00  0.00    +0.000 A 
ATOM     27  C   UNL     1      -0.109  10.268  20.378  0.00  0.00    +0.000 A 
ATOM     28  N   UNL     1      -1.089  11.289  20.585  0.00  0.00    +0.000 N 
ATOM     29  C   UNL     1      -1.661  11.631  21.795  0.00  0.00    +0.000 A 
ATOM     30  C   UNL     1      -2.566  12.634  21.550  0.00  0.00    +0.000 A 
ATOM     31  C   UNL     1      -2.482  12.848  20.164  0.00  0.00    +0.000 A 
ATOM     32  N   UNL     1      -1.590  12.051  19.571  0.00  0.00    +0.000 NA
ATOM     33  N   UNL     1       0.293   9.542  21.454  0.00  0.00    +0.000 NA
ATOM     34  C   UNL     1       1.194   8.559  21.230  0.00  0.00    +0.000 A 
ENDBRANCH  23  24
ENDBRANCH   3  23
TORSDOF 5
ENDMDL
MODEL 3
REMARK VINA RESULT:      -8.4      4.592      8.566
REMARK  Name = 
REMARK  5 active torsions:
REMARK  status: ('A' for Active; 'I' for Inactive)
REMARK    1  A    between atoms: C_2  and  C_11
REMARK    2  A    between atoms: N_3  and  C_4
REMARK    3  A    between atoms: C_9  and  O_10
REMARK    4  A    between atoms: N_13  and  C_14
REMARK    5  A    between atoms: C_14  and  C_15
REMARK                            x       y       z     vdW  Elec       q    Type
REMARK                         _______ _______ _______ _____ _____    ______ ____
ROOT
ATOM      1  C   UNL     1      -0.168  12.593  20.501  0.00  0.00    +0.000 C 
ATOM      2  C   UNL     1       0.651  11.302  20.467  0.00  0.00    +0.000 C 
ATOM      3  N   UNL     1       0.511  10.637  19.170  0.00  0.00    +0.000 N 
ATOM      4  C   UNL     1      -0.755  10.696  18.601  0.00  0.00    +0.000 A 
ATOM      5  C   UNL     1      -1.105   9.971  17.453  0.00  0.00    +0.000 A 
ATOM      6  C   UNL     1      -2.411   9.989  16.943  0.00  0.00    +0.000 A 
ATOM      7  C   UNL     1      -3.403  10.730  17.577  0.00  0.00    +0.000 A 
ATOM      8  C   UNL     1      -3.080  11.485  18.699  0.00  0.00    +0.000 A 
ATOM      9  C   UNL     1      -1.768  11.491  19.183  0.00  0.00    +0.000 A 
ATOM     10  O   UNL     1      -1.556  12.331  20.257  0.00  0.00    +0.000 OA
ENDROOT
BRANCH   1  12
ATOM     11  O   UNL     1      -0.107  14.122  18.588  0.00  0.00    +0.000 OA
ATOM     12  C   UNL     1       0.435  13.707  19.610  0.00  0.00    +0.000 C 
ATOM     13  N   UNL     1       1.686  14.117  20.022  0.00  0.00    +0.000 N 
ATOM     14  H   UNL     1       2.095  13.604  20.798  0.00  0.00    +0.000 HD
BRANCH  13  15
ATOM     15  C   UNL     1       2.526  15.128  19.364  0.00  0.00    +0.000 C 
ATOM     16  C   UNL     1       3.222  16.049  20.378  0.00  0.00    +0.000 C 
ATOM     17  C   UNL     1       4.281  16.938  19.729  0.00  0.00    +0.000 C 
ATOM     18  C   UNL     1       5.329  16.098  19.014  0.00  0.00    +0.000 C 
ATOM     19  C   UNL     1       4.676  15.273  17.915  0.00  0.00    +0.000 C 
ATOM     20  C   UNL     1       3.549  14.394  18.453  0.00  0.00    +0.000 C 
BRANCH  20  21
ATOM     21  O   UNL     1       2.865  13.791  17.350  0.00  0.00    +0.000 OA
ATOM     22  H   UNL     1       3.215  12.887  17.245  0.00  0.00    +0.000 HD
ENDBRANCH  20  21
ENDBRANCH  13  15
ENDBRANCH   1  12
BRANCH   3  23
ATOM     23  C   UNL     1       1.689  10.034  18.555  0.00  0.00    +0.000 C 
BRANCH  23  24
ATOM     24  C   UNL     1       1.891   8.568  18.865  0.00  0.00    +0.000 A 
ATOM     25  C   UNL     1       2.407   7.621  17.977  0.00  0.00    +0.000 A 
ATOM     26  C   UNL     1       2.585   6.297  18.388  0.00  0.00    +0.000 A 
ATOM     27  C   UNL     1       2.237   5.946  19.689  0.00  0.00    +0.000 A 
ATOM     28  N   UNL     1       2.446   4.604  20.135  0.00  0.00    +0.000 N 
ATOM     29  C   UNL     1       2.149   4.111  21.391  0.00  0.00    +0.000 A 
ATOM     30  C   UNL     1       2.528   2.791  21.412  0.00  0.00    +0.000 A 
ATOM     31  C   UNL     1       3.044   2.556  20.127  0.00  0.00    +0.000 A 
ATOM     32  N   UNL     1       2.992   3.636  19.343  0.00  0.00    +0.000 NA
ATOM     33  N   UNL     1       1.720   6.839  20.573  0.00  0.00    +0.000 NA
ATOM     34  C   UNL     1       1.563   8.112  20.141  0.00  0.00    +0.000 A 
ENDBRANCH  23  24
ENDBRANCH   3  23
TORSDOF 5
ENDMDL
MODEL 4
REMARK VINA RESULT:      -8.4      4.488      8.500
REMARK  Name = 
REMARK  5 active torsions:
REMARK  status: ('A' for Active; 'I' for Inactive)
REMARK    1  A    between atoms: C_2  and  C_11
REMARK    2  A    between atoms: N_3  and  C_4
REMARK    3  A    between atoms: C_9  and  O_10
REMARK    4  A    between atoms: N_13  and  C_14
REMARK    5  A    between atoms: C_14  and  C_15
REMARK                            x       y       z     vdW  Elec       q    Type
REMARK                         _______ _______ _______ _____ _____    ______ ____
ROOT
ATOM      1  C   UNL     1      -0.773  12.640  20.530  0.00  0.00    +0.000 C 
ATOM      2  C   UNL     1       0.084  11.375  20.579  0.00  0.00    +0.000 C 
ATOM      3  N   UNL     1       0.097  10.711  19.275  0.00  0.00    +0.000 N 
ATOM      4  C   UNL     1      -1.104  10.734  18.579  0.00  0.00    +0.000 A 
ATOM      5  C   UNL     1      -1.314  10.003  17.401  0.00  0.00    +0.000 A 
ATOM      6  C   UNL     1      -2.560   9.984  16.759  0.00  0.00    +0.000 A 
ATOM      7  C   UNL     1      -3.634  10.693  17.289  0.00  0.00    +0.000 A 
ATOM      8  C   UNL     1      -3.451  11.453  18.439  0.00  0.00    +0.000 A 
ATOM      9  C   UNL     1      -2.196  11.496  19.055  0.00  0.00    +0.000 A 
ATOM     10  O   UNL     1      -2.119  12.338  20.145  0.00  0.00    +0.000 OA
ENDROOT
BRANCH   1  12
ATOM     11  O   UNL     1      -0.741  14.504  18.941  0.00  0.00    +0.000 OA
ATOM     12  C   UNL     1      -0.115  13.775  19.706  0.00  0.00    +0.000 C 
ATOM     13  N   UNL     1       1.257  13.822  19.841  0.00  0.00    +0.000 N 
ATOM     14  H   UNL     1       1.681  13.079  20.391  0.00  0.00    +0.000 HD
BRANCH  13  15
ATOM     15  C   UNL     1       2.162  14.759  19.161  0.00  0.00    +0.000 C 
ATOM     16  C   UNL     1       2.767  15.784  20.133  0.00  0.00    +0.000 C 
ATOM     17  C   UNL     1       3.889  16.602  19.495  0.00  0.00    +0.000 C 
ATOM     18  C   UNL     1       4.993  15.693  18.975  0.00  0.00    +0.000 C 
ATOM     19  C   UNL     1       4.439  14.755  17.913  0.00  0.00    +0.000 C 
ATOM     20  C   UNL     1       3.261  13.935  18.434  0.00  0.00    +0.000 C 
BRANCH  20  21
ATOM     21  O   UNL     1       2.678  13.216  17.341  0.00  0.00    +0.000 OA
ATOM     22  H   UNL     1       2.422  12.336  17.671  0.00  0.00    +0.000 HD
ENDBRANCH  20  21
ENDBRANCH  13  15
ENDBRANCH   1  12
BRANCH   3  23
ATOM     23  C   UNL     1       1.349  10.145  18.784  0.00  0.00    +0.000 C 
BRANCH  23  24
ATOM     24  C   UNL     1       1.649   8.744  19.265  0.00  0.00    +0.000 A 
ATOM     25  C   UNL     1       1.310   8.233  20.521  0.00  0.00    +0.000 A 
ATOM     26  C   UNL     1       1.605   6.905  20.843  0.00  0.00    +0.000 A 
ATOM     27  C   UNL     1       2.242   6.112  19.894  0.00  0.00    +0.000 A 
ATOM     28  N   UNL     1       2.520   4.741  20.195  0.00  0.00    +0.000 N 
ATOM     29  C   UNL     1       3.145   3.837  19.359  0.00  0.00    +0.000 A 
ATOM     30  C   UNL     1       3.189   2.634  20.018  0.00  0.00    +0.000 A 
ATOM     31  C   UNL     1       2.573   2.890  21.253  0.00  0.00    +0.000 A 
ATOM     32  N   UNL     1       2.173   4.158  21.379  0.00  0.00    +0.000 NA
ATOM     33  N   UNL     1       2.599   6.580  18.669  0.00  0.00    +0.000 NA
ATOM     34  C   UNL     1       2.295   7.869  18.392  0.00  0.00    +0.000 A 
ENDBRANCH  23  24
ENDBRANCH   3  23
TORSDOF 5
ENDMDL
MODEL 5
REMARK VINA RESULT:      -8.3      1.564      2.085
REMARK  Name = 
REMARK  5 active torsions:
REMARK  status: ('A' for Active; 'I' for Inactive)
REMARK    1  A    between atoms: C_2  and  C_11
REMARK    2  A    between atoms: N_3  and  C_4
REMARK    3  A    between atoms: C_9  and  O_10
REMARK    4  A    between atoms: N_13  and  C_14
REMARK    5  A    between atoms: C_14  and  C_15
REMARK                            x       y       z     vdW  Elec       q    Type
REMARK                         _______ _______ _______ _____ _____    ______ ____
ROOT
ATOM      1  C   UNL     1       1.588   3.433  17.417  0.00  0.00    +0.000 C 
ATOM      2  C   UNL     1       1.521   4.935  17.696  0.00  0.00    +0.000 C 
ATOM      3  N   UNL     1       2.192   5.255  18.958  0.00  0.00    +0.000 N 
ATOM      4  C   UNL     1       2.019   4.330  19.979  0.00  0.00    +0.000 A 
ATOM      5  C   UNL     1       2.445   4.562  21.294  0.00  0.00    +0.000 A 
ATOM      6  C   UNL     1       2.191   3.644  22.322  0.00  0.00    +0.000 A 
ATOM      7  C   UNL     1       1.493   2.469  22.058  0.00  0.00    +0.000 A 
ATOM      8  C   UNL     1       1.084   2.194  20.758  0.00  0.00    +0.000 A 
ATOM      9  C   UNL     1       1.372   3.098  19.730  0.00  0.00    +0.000 A 
ATOM     10  O   UNL     1       0.978   2.683  18.474  0.00  0.00    +0.000 OA
ENDROOT
BRANCH   1  12
ATOM     11  O   UNL     1       3.421   1.818  17.245  0.00  0.00    +0.000 OA
ATOM     12  C   UNL     1       3.014   2.959  17.041  0.00  0.00    +0.000 C 
ATOM     13  N   UNL     1       3.813   3.969  16.547  0.00  0.00    +0.000 N 
ATOM     14  H   UNL     1       3.413   4.904  16.555  0.00  0.00    +0.000 HD
BRANCH  13  15
ATOM     15  C   UNL     1       5.218   3.840  16.139  0.00  0.00    +0.000 C 
ATOM     16  C   UNL     1       5.462   4.393  14.726  0.00  0.00    +0.000 C 
ATOM     17  C   UNL     1       6.948   4.492  14.386  0.00  0.00    +0.000 C 
ATOM     18  C   UNL     1       7.678   5.363  15.397  0.00  0.00    +0.000 C 
ATOM     19  C   UNL     1       7.558   4.760  16.788  0.00  0.00    +0.000 C 
ATOM     20  C   UNL     1       6.102   4.555  17.198  0.00  0.00    +0.000 C 
BRANCH  20  21
ATOM     21  O   UNL     1       6.066   3.823  18.428  0.00  0.00    +0.000 OA
ATOM     22  H   UNL     1       5.397   4.241  19.001  0.00  0.00    +0.000 HD
ENDBRANCH  20  21
ENDBRANCH  13  15
ENDBRANCH   1  12
BRANCH   3  23
ATOM     23  C   UNL     1       3.021   6.453  19.032  0.00  0.00    +0.000 C 
BRANCH  23  24
ATOM     24  C   UNL     1       2.257   7.756  19.091  0.00  0.00    +0.000 A 
ATOM     25  C   UNL     1       2.101   8.648  18.028  0.00  0.00    +0.000 A 
ATOM     26  C   UNL     1       1.338   9.808  18.189  0.00  0.00    +0.000 A 
ATOM     27  C   UNL     1       0.744  10.053  19.424  0.00  0.00    +0.000 A 
ATOM     28  N   UNL     1      -0.068  11.217  19.594  0.00  0.00    +0.000 N 
ATOM     29  C   UNL     1      -0.716  11.591  20.756  0.00  0.00    +0.000 A 
ATOM     30  C   UNL     1      -1.404  12.748  20.485  0.00  0.00    +0.000 A 
ATOM     31  C   UNL     1      -1.120  13.016  19.137  0.00  0.00    +0.000 A 
ATOM     32  N   UNL     1      -0.308  12.108  18.589  0.00  0.00    +0.000 NA
ATOM     33  N   UNL     1       0.887   9.214  20.483  0.00  0.00    +0.000 NA
ATOM     34  C   UNL     1       1.631   8.100  20.289  0.00  0.00    +0.000 A 
ENDBRANCH  23  24
ENDBRANCH   3  23
TORSDOF 5
ENDMDL
MODEL 6
REMARK VINA RESULT:      -8.1      1.508      1.824
REMARK  Name = 
REMARK  5 active torsions:
REMARK  status: ('A' for Active; 'I' for Inactive)
REMARK    1  A    between atoms: C_2  and  C_11
REMARK    2  A    between atoms: N_3  and  C_4
REMARK    3  A    between atoms: C_9  and  O_10
REMARK    4  A    between atoms: N_13  and  C_14
REMARK    5  A    between atoms: C_14  and  C_15
REMARK                            x       y       z     vdW  Elec       q    Type
REMARK                         _______ _______ _______ _____ _____    ______ ____
ROOT
ATOM      1  C   UNL     1       1.696   3.393  17.398  0.00  0.00    +0.000 C 
ATOM      2  C   UNL     1       1.565   4.893  17.659  0.00  0.00    +0.000 C 
ATOM      3  N   UNL     1       2.188   5.251  18.935  0.00  0.00    +0.000 N 
ATOM      4  C   UNL     1       2.023   4.330  19.961  0.00  0.00    +0.000 A 
ATOM      5  C   UNL     1       2.404   4.591  21.284  0.00  0.00    +0.000 A 
ATOM      6  C   UNL     1       2.157   3.674  22.315  0.00  0.00    +0.000 A 
ATOM      7  C   UNL     1       1.511   2.471  22.045  0.00  0.00    +0.000 A 
ATOM      8  C   UNL     1       1.148   2.168  20.738  0.00  0.00    +0.000 A 
ATOM      9  C   UNL     1       1.429   3.072  19.708  0.00  0.00    +0.000 A 
ATOM     10  O   UNL     1       1.085   2.631  18.447  0.00  0.00    +0.000 OA
ENDROOT
BRANCH   1  12
ATOM     11  O   UNL     1       3.643   1.907  17.437  0.00  0.00    +0.000 OA
ATOM     12  C   UNL     1       3.148   2.968  17.066  0.00  0.00    +0.000 C 
ATOM     13  N   UNL     1       3.861   3.942  16.397  0.00  0.00    +0.000 N 
ATOM     14  H   UNL     1       3.391   4.834  16.267  0.00  0.00    +0.000 HD
BRANCH  13  15
ATOM     15  C   UNL     1       5.266   3.852  15.978  0.00  0.00    +0.000 C 
ATOM     16  C   UNL     1       5.492   4.452  14.582  0.00  0.00    +0.000 C 
ATOM     17  C   UNL     1       6.974   4.589  14.238  0.00  0.00    +0.000 C 
ATOM     18  C   UNL     1       7.694   5.442  15.272  0.00  0.00    +0.000 C 
ATOM     19  C   UNL     1       7.592   4.794  16.644  0.00  0.00    +0.000 C 
ATOM     20  C   UNL     1       6.142   4.549  17.055  0.00  0.00    +0.000 C 
BRANCH  20  21
ATOM     21  O   UNL     1       6.126   3.779  18.261  0.00  0.00    +0.000 OA
ATOM     22  H   UNL     1       6.308   2.852  18.021  0.00  0.00    +0.000 HD
ENDBRANCH  20  21
ENDBRANCH  13  15
ENDBRANCH   1  12
BRANCH   3  23
ATOM     23  C   UNL     1       2.970   6.480  19.018  0.00  0.00    +0.000 C 
BRANCH  23  24
ATOM     24  C   UNL     1       2.163   7.734  19.263  0.00  0.00    +0.000 A 
ATOM     25  C   UNL     1       1.540   8.069  20.468  0.00  0.00    +0.000 A 
ATOM     26  C   UNL     1       0.850   9.278  20.591  0.00  0.00    +0.000 A 
ATOM     27  C   UNL     1       0.797  10.133  19.494  0.00  0.00    +0.000 A 
ATOM     28  N   UNL     1       0.125  11.390  19.614  0.00  0.00    +0.000 N 
ATOM     29  C   UNL     1      -0.011  12.336  18.616  0.00  0.00    +0.000 A 
ATOM     30  C   UNL     1      -0.695  13.399  19.152  0.00  0.00    +0.000 A 
ATOM     31  C   UNL     1      -0.942  13.020  20.481  0.00  0.00    +0.000 A 
ATOM     32  N   UNL     1      -0.463  11.808  20.772  0.00  0.00    +0.000 NA
ATOM     33  N   UNL     1       1.380   9.833  18.304  0.00  0.00    +0.000 NA
ATOM     34  C   UNL     1       2.040   8.655  18.223  0.00  0.00    +0.000 A 
ENDBRANCH  23  24
ENDBRANCH   3  23
TORSDOF 5
ENDMDL
MODEL 7
REMARK VINA RESULT:      -8.0      4.657      8.841
REMARK  Name = 
REMARK  5 active torsions:
REMARK  status: ('A' for Active; 'I' for Inactive)
REMARK    1  A    between atoms: C_2  and  C_11
REMARK    2  A    between atoms: N_3  and  C_4
REMARK    3  A    between atoms: C_9  and  O_10
REMARK    4  A    between atoms: N_13  and  C_14
REMARK    5  A    between atoms: C_14  and  C_15
REMARK                            x       y       z     vdW  Elec       q    Type
REMARK                         _______ _______ _______ _____ _____    ______ ____
ROOT
ATOM      1  C   UNL     1      -0.281  12.395  20.674  0.00  0.00    +0.000 C 
ATOM      2  C   UNL     1       0.533  11.104  20.578  0.00  0.00    +0.000 C 
ATOM      3  N   UNL     1       0.435  10.533  19.233  0.00  0.00    +0.000 N 
ATOM      4  C   UNL     1      -0.809  10.640  18.626  0.00  0.00    +0.000 A 
ATOM      5  C   UNL     1      -1.122  10.001  17.418  0.00  0.00    +0.000 A 
ATOM      6  C   UNL     1      -2.409  10.064  16.865  0.00  0.00    +0.000 A 
ATOM      7  C   UNL     1      -3.420  10.766  17.516  0.00  0.00    +0.000 A 
ATOM      8  C   UNL     1      -3.133  11.438  18.699  0.00  0.00    +0.000 A 
ATOM      9  C   UNL     1      -1.839  11.400  19.227  0.00  0.00    +0.000 A 
ATOM     10  O   UNL     1      -1.660  12.161  20.365  0.00  0.00    +0.000 OA
ENDROOT
BRANCH   1  12
ATOM     11  O   UNL     1      -0.246  14.219  19.040  0.00  0.00    +0.000 OA
ATOM     12  C   UNL     1       0.359  13.565  19.885  0.00  0.00    +0.000 C 
ATOM     13  N   UNL     1       1.701  13.734  20.155  0.00  0.00    +0.000 N 
ATOM     14  H   UNL     1       2.128  13.044  20.767  0.00  0.00    +0.000 HD
BRANCH  13  15
ATOM     15  C   UNL     1       2.588  14.732  19.540  0.00  0.00    +0.000 C 
ATOM     16  C   UNL     1       2.906  14.396  18.074  0.00  0.00    +0.000 C 
ATOM     17  C   UNL     1       3.617  15.539  17.355  0.00  0.00    +0.000 C 
ATOM     18  C   UNL     1       2.787  16.813  17.408  0.00  0.00    +0.000 C 
ATOM     19  C   UNL     1       2.572  17.235  18.853  0.00  0.00    +0.000 C 
ATOM     20  C   UNL     1       1.923  16.129  19.681  0.00  0.00    +0.000 C 
BRANCH  20  21
ATOM     21  O   UNL     1       1.918  16.522  21.058  0.00  0.00    +0.000 OA
ATOM     22  H   UNL     1       1.020  16.833  21.272  0.00  0.00    +0.000 HD
ENDBRANCH  20  21
ENDBRANCH  13  15
ENDBRANCH   1  12
BRANCH   3  23
ATOM     23  C   UNL     1       1.631   9.966  18.619  0.00  0.00    +0.000 C 
BRANCH  23  24
ATOM     24  C   UNL     1       1.870   8.504  18.917  0.00  0.00    +0.000 A 
ATOM     25  C   UNL     1       2.442   7.584  18.035  0.00  0.00    +0.000 A 
ATOM     26  C   UNL     1       2.651   6.261  18.435  0.00  0.00    +0.000 A 
ATOM     27  C   UNL     1       2.276   5.884  19.722  0.00  0.00    +0.000 A 
ATOM     28  N   UNL     1       2.514   4.543  20.158  0.00  0.00    +0.000 N 
ATOM     29  C   UNL     1       2.196   4.025  21.399  0.00  0.00    +0.000 A 
ATOM     30  C   UNL     1       2.616   2.718  21.416  0.00  0.00    +0.000 A 
ATOM     31  C   UNL     1       3.177   2.516  20.145  0.00  0.00    +0.000 A 
ATOM     32  N   UNL     1       3.114   3.603  19.372  0.00  0.00    +0.000 NA
ATOM     33  N   UNL     1       1.704   6.749  20.600  0.00  0.00    +0.000 NA
ATOM     34  C   UNL     1       1.520   8.021  20.178  0.00  0.00    +0.000 A 
ENDBRANCH  23  24
ENDBRANCH   3  23
TORSDOF 5
ENDMDL
MODEL 8
REMARK VINA RESULT:      -7.9      4.711      9.522
REMARK  Name = 
REMARK  5 active torsions:
REMARK  status: ('A' for Active; 'I' for Inactive)
REMARK    1  A    between atoms: C_2  and  C_11
REMARK    2  A    between atoms: N_3  and  C_4
REMARK    3  A    between atoms: C_9  and  O_10
REMARK    4  A    between atoms: N_13  and  C_14
REMARK    5  A    between atoms: C_14  and  C_15
REMARK                            x       y       z     vdW  Elec       q    Type
REMARK                         _______ _______ _______ _____ _____    ______ ____
ROOT
ATOM      1  C   UNL     1      -1.023  12.829  20.307  0.00  0.00    +0.000 C 
ATOM      2  C   UNL     1      -0.037  11.665  20.410  0.00  0.00    +0.000 C 
ATOM      3  N   UNL     1       0.051  10.950  19.136  0.00  0.00    +0.000 N 
ATOM      4  C   UNL     1      -1.144  10.814  18.442  0.00  0.00    +0.000 A 
ATOM      5  C   UNL     1      -1.272  10.015  17.298  0.00  0.00    +0.000 A 
ATOM      6  C   UNL     1      -2.507   9.836  16.660  0.00  0.00    +0.000 A 
ATOM      7  C   UNL     1      -3.652  10.449  17.161  0.00  0.00    +0.000 A 
ATOM      8  C   UNL     1      -3.554  11.273  18.275  0.00  0.00    +0.000 A 
ATOM      9  C   UNL     1      -2.312  11.477  18.886  0.00  0.00    +0.000 A 
ATOM     10  O   UNL     1      -2.329  12.369  19.939  0.00  0.00    +0.000 OA
ENDROOT
BRANCH   1  12
ATOM     11  O   UNL     1      -0.118  13.845  18.271  0.00  0.00    +0.000 OA
ATOM     12  C   UNL     1      -0.487  13.990  19.434  0.00  0.00    +0.000 C 
ATOM     13  N   UNL     1      -0.374  15.182  20.120  0.00  0.00    +0.000 N 
ATOM     14  H   UNL     1      -0.577  15.149  21.116  0.00  0.00    +0.000 HD
BRANCH  13  15
ATOM     15  C   UNL     1       0.135  16.449  19.577  0.00  0.00    +0.000 C 
ATOM     16  C   UNL     1       1.601  16.337  19.129  0.00  0.00    +0.000 C 
ATOM     17  C   UNL     1       2.066  17.561  18.343  0.00  0.00    +0.000 C 
ATOM     18  C   UNL     1       1.186  17.787  17.122  0.00  0.00    +0.000 C 
ATOM     19  C   UNL     1      -0.252  18.030  17.554  0.00  0.00    +0.000 C 
ATOM     20  C   UNL     1      -0.792  16.887  18.410  0.00  0.00    +0.000 C 
BRANCH  20  21
ATOM     21  O   UNL     1      -2.073  17.262  18.928  0.00  0.00    +0.000 OA
ATOM     22  H   UNL     1      -2.751  16.805  18.399  0.00  0.00    +0.000 HD
ENDBRANCH  20  21
ENDBRANCH  13  15
ENDBRANCH   1  12
BRANCH   3  23
ATOM     23  C   UNL     1       1.357  10.500  18.668  0.00  0.00    +0.000 C 
BRANCH  23  24
ATOM     24  C   UNL     1       1.649   9.035  18.899  0.00  0.00    +0.000 A 
ATOM     25  C   UNL     1       2.195   8.162  17.955  0.00  0.00    +0.000 A 
ATOM     26  C   UNL     1       2.458   6.833  18.295  0.00  0.00    +0.000 A 
ATOM     27  C   UNL     1       2.162   6.400  19.584  0.00  0.00    +0.000 A 
ATOM     28  N   UNL     1       2.457   5.051  19.958  0.00  0.00    +0.000 N 
ATOM     29  C   UNL     1       2.218   4.481  21.194  0.00  0.00    +0.000 A 
ATOM     30  C   UNL     1       2.672   3.186  21.140  0.00  0.00    +0.000 A 
ATOM     31  C   UNL     1       3.168   3.044  19.835  0.00  0.00    +0.000 A 
ATOM     32  N   UNL     1       3.037   4.156  19.107  0.00  0.00    +0.000 NA
ATOM     33  N   UNL     1       1.617   7.217  20.522  0.00  0.00    +0.000 NA
ATOM     34  C   UNL     1       1.379   8.498  20.158  0.00  0.00    +0.000 A 
ENDBRANCH  23  24
ENDBRANCH   3  23
TORSDOF 5
ENDMDL
MODEL 9
REMARK VINA RESULT:      -7.8      4.746      9.555
REMARK  Name = 
REMARK  5 active torsions:
REMARK  status: ('A' for Active; 'I' for Inactive)
REMARK    1  A    between atoms: C_2  and  C_11
REMARK    2  A    between atoms: N_3  and  C_4
REMARK    3  A    between atoms: C_9  and  O_10
REMARK    4  A    between atoms: N_13  and  C_14
REMARK    5  A    between atoms: C_14  and  C_15
REMARK                            x       y       z     vdW  Elec       q    Type
REMARK                         _______ _______ _______ _____ _____    ______ ____
ROOT
ATOM      1  C   UNL     1      -1.221  12.909  20.289  0.00  0.00    +0.000 C 
ATOM      2  C   UNL     1      -0.266  11.723  20.432  0.00  0.00    +0.000 C 
ATOM      3  N   UNL     1      -0.151  10.999  19.165  0.00  0.00    +0.000 N 
ATOM      4  C   UNL     1      -1.323  10.888  18.429  0.00  0.00    +0.000 A 
ATOM      5  C   UNL     1      -1.428  10.085  17.285  0.00  0.00    +0.000 A 
ATOM      6  C   UNL     1      -2.644   9.931  16.604  0.00  0.00    +0.000 A 
ATOM      7  C   UNL     1      -3.791  10.574  17.060  0.00  0.00    +0.000 A 
ATOM      8  C   UNL     1      -3.713  11.402  18.174  0.00  0.00    +0.000 A 
ATOM      9  C   UNL     1      -2.490  11.579  18.829  0.00  0.00    +0.000 A 
ATOM     10  O   UNL     1      -2.523  12.477  19.876  0.00  0.00    +0.000 OA
ENDROOT
BRANCH   1  12
ATOM     11  O   UNL     1      -0.164  13.881  18.305  0.00  0.00    +0.000 OA
ATOM     12  C   UNL     1      -0.627  14.053  19.429  0.00  0.00    +0.000 C 
ATOM     13  N   UNL     1      -0.580  15.263  20.090  0.00  0.00    +0.000 N 
ATOM     14  H   UNL     1      -0.861  15.254  21.067  0.00  0.00    +0.000 HD
BRANCH  13  15
ATOM     15  C   UNL     1      -0.040  16.520  19.555  0.00  0.00    +0.000 C 
ATOM     16  C   UNL     1       1.423  16.377  19.109  0.00  0.00    +0.000 C 
ATOM     17  C   UNL     1       1.918  17.594  18.330  0.00  0.00    +0.000 C 
ATOM     18  C   UNL     1       1.046  17.848  17.110  0.00  0.00    +0.000 C 
ATOM     19  C   UNL     1      -0.387  18.123  17.542  0.00  0.00    +0.000 C 
ATOM     20  C   UNL     1      -0.955  16.988  18.390  0.00  0.00    +0.000 C 
BRANCH  20  21
ATOM     21  O   UNL     1      -2.227  17.391  18.910  0.00  0.00    +0.000 OA
ATOM     22  H   UNL     1      -2.136  17.481  19.876  0.00  0.00    +0.000 HD
ENDBRANCH  20  21
ENDBRANCH  13  15
ENDBRANCH   1  12
BRANCH   3  23
ATOM     23  C   UNL     1       1.161  10.516  18.746  0.00  0.00    +0.000 C 
BRANCH  23  24
ATOM     24  C   UNL     1       1.504   9.117  19.207  0.00  0.00    +0.000 A 
ATOM     25  C   UNL     1       1.205   8.587  20.464  0.00  0.00    +0.000 A 
ATOM     26  C   UNL     1       1.537   7.264  20.766  0.00  0.00    +0.000 A 
ATOM     27  C   UNL     1       2.170   6.493  19.795  0.00  0.00    +0.000 A 
ATOM     28  N   UNL     1       2.485   5.127  20.076  0.00  0.00    +0.000 N 
ATOM     29  C   UNL     1       3.111   4.245  19.216  0.00  0.00    +0.000 A 
ATOM     30  C   UNL     1       3.197   3.037  19.863  0.00  0.00    +0.000 A 
ATOM     31  C   UNL     1       2.604   3.268  21.114  0.00  0.00    +0.000 A 
ATOM     32  N   UNL     1       2.179   4.525  21.262  0.00  0.00    +0.000 NA
ATOM     33  N   UNL     1       2.487   6.982  18.567  0.00  0.00    +0.000 NA
ATOM     34  C   UNL     1       2.148   8.266  18.310  0.00  0.00    +0.000 A 
ENDBRANCH  23  24
ENDBRANCH   3  23
TORSDOF 5
ENDMDL
