MODEL 1
REMARK VINA RESULT:      -8.7      0.000      0.000
REMARK  Name = 
REMARK  4 active torsions:
REMARK  status: ('A' for Active; 'I' for Inactive)
REMARK    1  A    between atoms: C_2  and  C_3
REMARK    2  A    between atoms: C_13  and  C_14
REMARK    3  A    between atoms: C_17  and  O_18
REMARK    4  A    between atoms: O_18  and  C_19
REMARK                            x       y       z     vdW  Elec       q    Type
REMARK                         _______ _______ _______ _____ _____    ______ ____
ROOT
ATOM      1  C   UNL     1      -5.819  12.366  17.704  0.00  0.00    +0.000 A 
ATOM      2  C   UNL     1      -5.813  12.246  19.090  0.00  0.00    +0.000 A 
ATOM      3  N   UNL     1      -4.519  12.481  19.437  0.00  0.00    +0.000 N 
ATOM      4  C   UNL     1      -3.791  11.891  18.460  0.00  0.00    +0.000 A 
ATOM      5  C   UNL     1      -4.552  11.816  17.311  0.00  0.00    +0.000 A 
ATOM      6  C   UNL     1      -3.900  11.248  16.194  0.00  0.00    +0.000 A 
ATOM      7  C   UNL     1      -2.585  10.649  16.335  0.00  0.00    +0.000 A 
ATOM      8  C   UNL     1      -1.861  10.694  17.582  0.00  0.00    +0.000 A 
ATOM      9  C   UNL     1      -0.676  10.179  18.210  0.00  0.00    +0.000 A 
ATOM     10  C   UNL     1       0.366   9.254  17.875  0.00  0.00    +0.000 A 
ATOM     11  C   UNL     1       1.342   8.888  18.846  0.00  0.00    +0.000 A 
ATOM     12  C   UNL     1       1.311   9.511  20.106  0.00  0.00    +0.000 A 
ATOM     13  C   UNL     1       0.331  10.415  20.456  0.00  0.00    +0.000 A 
ATOM     14  C   UNL     1      -0.636  10.706  19.504  0.00  0.00    +0.000 A 
ATOM     15  N   UNL     1      -1.740  11.483  19.663  0.00  0.00    +0.000 N 
ATOM     16  C   UNL     1      -2.504  11.411  18.562  0.00  0.00    +0.000 A 
ATOM     17  H   UNL     1      -4.174  13.198  20.067  0.00  0.00    +0.000 HD
ATOM     18  H   UNL     1      -1.981  11.942  20.525  0.00  0.00    +0.000 HD
ENDROOT
BRANCH  11  19
ATOM     19  C   UNL     1       2.377   7.857  18.611  0.00  0.00    +0.000 A 
ATOM     20  C   UNL     1       3.246   7.905  17.518  0.00  0.00    +0.000 A 
ATOM     21  C   UNL     1       4.242   6.933  17.354  0.00  0.00    +0.000 A 
ATOM     22  C   UNL     1       4.413   5.899  18.282  0.00  0.00    +0.000 A 
ATOM     23  C   UNL     1       3.544   5.818  19.360  0.00  0.00    +0.000 A 
ATOM     24  C   UNL     1       2.548   6.790  19.521  0.00  0.00    +0.000 A 
BRANCH  22  25
ATOM     25  O   UNL     1       5.423   5.038  17.987  0.00  0.00    +0.000 OA
BRANCH  25  26
ATOM     26  C   UNL     1       6.736   5.279  18.466  0.00  0.00    +0.000 C 
ATOM     27  F   UNL     1       7.225   6.500  18.161  0.00  0.00    +0.000 F 
ATOM     28  F   UNL     1       6.767   5.118  19.807  0.00  0.00    +0.000 F 
ATOM     29  F   UNL     1       7.561   4.359  17.915  0.00  0.00    +0.000 F 
ENDBRANCH  25  26
ENDBRANCH  22  25
ENDBRANCH  11  19
BRANCH   1  31
ATOM     30  O   UNL     1      -7.164  13.964  16.588  0.00  0.00    +0.000 OA
ATOM     31  C   UNL     1      -6.983  12.809  16.987  0.00  0.00    +0.000 C 
ENDBRANCH   1  31
TORSDOF 4
ENDMDL
MODEL 2
REMARK VINA RESULT:      -8.4      4.239      4.916
REMARK  Name = 
REMARK  4 active torsions:
REMARK  status: ('A' for Active; 'I' for Inactive)
REMARK    1  A    between atoms: C_2  and  C_3
REMARK    2  A    between atoms: C_13  and  C_14
REMARK    3  A    between atoms: C_17  and  O_18
REMARK    4  A    between atoms: O_18  and  C_19
REMARK                            x       y       z     vdW  Elec       q    Type
REMARK                         _______ _______ _______ _____ _____    ______ ____
ROOT
ATOM      1  C   UNL     1      -1.123  14.505  23.005  0.00  0.00    +0.000 A 
ATOM      2  C   UNL     1      -0.194  15.120  22.172  0.00  0.00    +0.000 A 
ATOM      3  N   UNL     1      -0.253  14.399  21.021  0.00  0.00    +0.000 N 
ATOM      4  C   UNL     1      -0.416  13.118  21.428  0.00  0.00    +0.000 A 
ATOM      5  C   UNL     1      -1.001  13.111  22.678  0.00  0.00    +0.000 A 
ATOM      6  C   UNL     1      -1.261  11.831  23.214  0.00  0.00    +0.000 A 
ATOM      7  C   UNL     1      -0.781  10.638  22.539  0.00  0.00    +0.000 A 
ATOM      8  C   UNL     1      -0.112  10.707  21.264  0.00  0.00    +0.000 A 
ATOM      9  C   UNL     1       0.603   9.886  20.325  0.00  0.00    +0.000 A 
ATOM     10  C   UNL     1       1.074   8.534  20.268  0.00  0.00    +0.000 A 
ATOM     11  C   UNL     1       1.889   8.102  19.183  0.00  0.00    +0.000 A 
ATOM     12  C   UNL     1       2.152   9.000  18.134  0.00  0.00    +0.000 A 
ATOM     13  C   UNL     1       1.704  10.304  18.152  0.00  0.00    +0.000 A 
ATOM     14  C   UNL     1       0.960  10.706  19.251  0.00  0.00    +0.000 A 
ATOM     15  N   UNL     1       0.505  11.958  19.524  0.00  0.00    +0.000 N 
ATOM     16  C   UNL     1      -0.053  11.979  20.745  0.00  0.00    +0.000 A 
ATOM     17  H   UNL     1      -0.467  14.744  20.091  0.00  0.00    +0.000 HD
ATOM     18  H   UNL     1       0.674  12.754  18.933  0.00  0.00    +0.000 HD
ENDROOT
BRANCH  11  19
ATOM     19  C   UNL     1       2.504   6.757  19.112  0.00  0.00    +0.000 A 
ATOM     20  C   UNL     1       2.291   5.784  20.092  0.00  0.00    +0.000 A 
ATOM     21  C   UNL     1       2.856   4.508  19.965  0.00  0.00    +0.000 A 
ATOM     22  C   UNL     1       3.631   4.159  18.853  0.00  0.00    +0.000 A 
ATOM     23  C   UNL     1       3.876   5.119  17.882  0.00  0.00    +0.000 A 
ATOM     24  C   UNL     1       3.311   6.395  18.011  0.00  0.00    +0.000 A 
BRANCH  22  25
ATOM     25  O   UNL     1       4.106   2.886  18.874  0.00  0.00    +0.000 OA
BRANCH  25  26
ATOM     26  C   UNL     1       3.295   1.810  18.430  0.00  0.00    +0.000 C 
ATOM     27  F   UNL     1       3.974   0.678  18.152  0.00  0.00    +0.000 F 
ATOM     28  F   UNL     1       2.353   1.537  19.359  0.00  0.00    +0.000 F 
ATOM     29  F   UNL     1       2.664   2.197  17.297  0.00  0.00    +0.000 F 
ENDBRANCH  25  26
ENDBRANCH  22  25
ENDBRANCH  11  19
BRANCH   1  31
ATOM     30  O   UNL     1      -2.540  14.721  24.891  0.00  0.00    +0.000 OA
ATOM     31  C   UNL     1      -1.835  15.236  24.017  0.00  0.00    +0.000 C 
ENDBRANCH   1  31
TORSDOF 4
ENDMDL
MODEL 3
REMARK VINA RESULT:      -8.4      6.232     10.162
REMARK  Name = 
REMARK  4 active torsions:
REMARK  status: ('A' for Active; 'I' for Inactive)
REMARK    1  A    between atoms: C_2  and  C_3
REMARK    2  A    between atoms: C_13  and  C_14
REMARK    3  A    between atoms: C_17  and  O_18
REMARK    4  A    between atoms: O_18  and  C_19
REMARK                            x       y       z     vdW  Elec       q    Type
REMARK                         _______ _______ _______ _____ _____    ______ ____
ROOT
ATOM      1  C   UNL     1       6.504   4.866  15.513  0.00  0.00    +0.000 A 
ATOM      2  C   UNL     1       6.777   4.134  16.664  0.00  0.00    +0.000 A 
ATOM      3  N   UNL     1       5.561   3.969  17.248  0.00  0.00    +0.000 N 
ATOM      4  C   UNL     1       4.919   5.142  17.036  0.00  0.00    +0.000 A 
ATOM      5  C   UNL     1       5.450   5.753  15.918  0.00  0.00    +0.000 A 
ATOM      6  C   UNL     1       4.847   6.979  15.559  0.00  0.00    +0.000 A 
ATOM      7  C   UNL     1       3.857   7.594  16.425  0.00  0.00    +0.000 A 
ATOM      8  C   UNL     1       3.387   6.942  17.622  0.00  0.00    +0.000 A 
ATOM      9  C   UNL     1       2.573   7.178  18.783  0.00  0.00    +0.000 A 
ATOM     10  C   UNL     1       1.865   8.285  19.354  0.00  0.00    +0.000 A 
ATOM     11  C   UNL     1       1.254   8.164  20.635  0.00  0.00    +0.000 A 
ATOM     12  C   UNL     1       1.288   6.918  21.286  0.00  0.00    +0.000 A 
ATOM     13  C   UNL     1       1.949   5.830  20.759  0.00  0.00    +0.000 A 
ATOM     14  C   UNL     1       2.581   6.000  19.536  0.00  0.00    +0.000 A 
ATOM     15  N   UNL     1       3.366   5.103  18.883  0.00  0.00    +0.000 N 
ATOM     16  C   UNL     1       3.909   5.683  17.800  0.00  0.00    +0.000 A 
ATOM     17  H   UNL     1       5.107   3.093  17.484  0.00  0.00    +0.000 HD
ATOM     18  H   UNL     1       3.583   4.187  19.238  0.00  0.00    +0.000 HD
ENDROOT
BRANCH  11  19
ATOM     19  C   UNL     1       0.604   9.293  21.337  0.00  0.00    +0.000 A 
ATOM     20  C   UNL     1       0.644  10.601  20.848  0.00  0.00    +0.000 A 
ATOM     21  C   UNL     1      -0.021  11.635  21.520  0.00  0.00    +0.000 A 
ATOM     22  C   UNL     1      -0.759  11.394  22.685  0.00  0.00    +0.000 A 
ATOM     23  C   UNL     1      -0.790  10.107  23.201  0.00  0.00    +0.000 A 
ATOM     24  C   UNL     1      -0.123   9.074  22.529  0.00  0.00    +0.000 A 
BRANCH  22  25
ATOM     25  O   UNL     1      -1.349  12.497  23.217  0.00  0.00    +0.000 OA
BRANCH  25  26
ATOM     26  C   UNL     1      -2.761  12.631  23.208  0.00  0.00    +0.000 C 
ATOM     27  F   UNL     1      -3.215  13.783  23.744  0.00  0.00    +0.000 F 
ATOM     28  F   UNL     1      -3.219  12.528  21.941  0.00  0.00    +0.000 F 
ATOM     29  F   UNL     1      -3.286  11.611  23.926  0.00  0.00    +0.000 F 
ENDBRANCH  25  26
ENDBRANCH  22  25
ENDBRANCH  11  19
BRANCH   1  31
ATOM     30  O   UNL     1       8.155   5.566  13.965  0.00  0.00    +0.000 OA
ATOM     31  C   UNL     1       7.307   4.743  14.327  0.00  0.00    +0.000 C 
ENDBRANCH   1  31
TORSDOF 4
ENDMDL
MODEL 4
REMARK VINA RESULT:      -8.4      0.389      1.221
REMARK  Name = 
REMARK  4 active torsions:
REMARK  status: ('A' for Active; 'I' for Inactive)
REMARK    1  A    between atoms: C_2  and  C_3
REMARK    2  A    between atoms: C_13  and  C_14
REMARK    3  A    between atoms: C_17  and  O_18
REMARK    4  A    between atoms: O_18  and  C_19
REMARK                            x       y       z     vdW  Elec       q    Type
REMARK                         _______ _______ _______ _____ _____    ______ ____
ROOT
ATOM      1  C   UNL     1      -5.734  12.192  17.789  0.00  0.00    +0.000 A 
ATOM      2  C   UNL     1      -5.729  12.029  19.171  0.00  0.00    +0.000 A 
ATOM      3  N   UNL     1      -4.441  12.278  19.529  0.00  0.00    +0.000 N 
ATOM      4  C   UNL     1      -3.699  11.732  18.537  0.00  0.00    +0.000 A 
ATOM      5  C   UNL     1      -4.455  11.679  17.383  0.00  0.00    +0.000 A 
ATOM      6  C   UNL     1      -3.790  11.159  16.252  0.00  0.00    +0.000 A 
ATOM      7  C   UNL     1      -2.464  10.581  16.378  0.00  0.00    +0.000 A 
ATOM      8  C   UNL     1      -1.744  10.600  17.627  0.00  0.00    +0.000 A 
ATOM      9  C   UNL     1      -0.551  10.088  18.243  0.00  0.00    +0.000 A 
ATOM     10  C   UNL     1       0.508   9.193  17.883  0.00  0.00    +0.000 A 
ATOM     11  C   UNL     1       1.488   8.815  18.845  0.00  0.00    +0.000 A 
ATOM     12  C   UNL     1       1.443   9.398  20.124  0.00  0.00    +0.000 A 
ATOM     13  C   UNL     1       0.444  10.272  20.499  0.00  0.00    +0.000 A 
ATOM     14  C   UNL     1      -0.525  10.574  19.554  0.00  0.00    +0.000 A 
ATOM     15  N   UNL     1      -1.644  11.326  19.734  0.00  0.00    +0.000 N 
ATOM     16  C   UNL     1      -2.404  11.274  18.628  0.00  0.00    +0.000 A 
ATOM     17  H   UNL     1      -4.111  12.981  20.182  0.00  0.00    +0.000 HD
ATOM     18  H   UNL     1      -1.896  11.752  20.608  0.00  0.00    +0.000 HD
ENDROOT
BRANCH  11  19
ATOM     19  C   UNL     1       2.544   7.812  18.581  0.00  0.00    +0.000 A 
ATOM     20  C   UNL     1       2.752   6.708  19.411  0.00  0.00    +0.000 A 
ATOM     21  C   UNL     1       3.733   5.756  19.102  0.00  0.00    +0.000 A 
ATOM     22  C   UNL     1       4.521   5.868  17.950  0.00  0.00    +0.000 A 
ATOM     23  C   UNL     1       4.348   6.970  17.126  0.00  0.00    +0.000 A 
ATOM     24  C   UNL     1       3.367   7.921  17.438  0.00  0.00    +0.000 A 
BRANCH  22  25
ATOM     25  O   UNL     1       5.425   4.866  17.787  0.00  0.00    +0.000 OA
BRANCH  25  26
ATOM     26  C   UNL     1       6.804   5.097  18.026  0.00  0.00    +0.000 C 
ATOM     27  F   UNL     1       7.608   4.064  17.695  0.00  0.00    +0.000 F 
ATOM     28  F   UNL     1       7.205   6.196  17.353  0.00  0.00    +0.000 F 
ATOM     29  F   UNL     1       6.968   5.333  19.349  0.00  0.00    +0.000 F 
ENDBRANCH  25  26
ENDBRANCH  22  25
ENDBRANCH  11  19
BRANCH   1  31
ATOM     30  O   UNL     1      -7.828  13.281  17.590  0.00  0.00    +0.000 OA
ATOM     31  C   UNL     1      -6.904  12.636  17.083  0.00  0.00    +0.000 C 
ENDBRANCH   1  31
TORSDOF 4
ENDMDL
MODEL 5
REMARK VINA RESULT:      -8.3      6.227     10.202
REMARK  Name = 
REMARK  4 active torsions:
REMARK  status: ('A' for Active; 'I' for Inactive)
REMARK    1  A    between atoms: C_2  and  C_3
REMARK    2  A    between atoms: C_13  and  C_14
REMARK    3  A    between atoms: C_17  and  O_18
REMARK    4  A    between atoms: O_18  and  C_19
REMARK                            x       y       z     vdW  Elec       q    Type
REMARK                         _______ _______ _______ _____ _____    ______ ____
ROOT
ATOM      1  C   UNL     1       6.656   4.844  15.691  0.00  0.00    +0.000 A 
ATOM      2  C   UNL     1       6.859   4.086  16.839  0.00  0.00    +0.000 A 
ATOM      3  N   UNL     1       5.612   3.926  17.356  0.00  0.00    +0.000 N 
ATOM      4  C   UNL     1       4.997   5.112  17.135  0.00  0.00    +0.000 A 
ATOM      5  C   UNL     1       5.593   5.737  16.059  0.00  0.00    +0.000 A 
ATOM      6  C   UNL     1       5.025   6.978  15.694  0.00  0.00    +0.000 A 
ATOM      7  C   UNL     1       3.999   7.590  16.519  0.00  0.00    +0.000 A 
ATOM      8  C   UNL     1       3.459   6.921  17.677  0.00  0.00    +0.000 A 
ATOM      9  C   UNL     1       2.589   7.145  18.798  0.00  0.00    +0.000 A 
ATOM     10  C   UNL     1       1.866   8.250  19.354  0.00  0.00    +0.000 A 
ATOM     11  C   UNL     1       1.187   8.112  20.599  0.00  0.00    +0.000 A 
ATOM     12  C   UNL     1       1.171   6.854  21.226  0.00  0.00    +0.000 A 
ATOM     13  C   UNL     1       1.845   5.767  20.711  0.00  0.00    +0.000 A 
ATOM     14  C   UNL     1       2.542   5.953  19.527  0.00  0.00    +0.000 A 
ATOM     15  N   UNL     1       3.349   5.058  18.897  0.00  0.00    +0.000 N 
ATOM     16  C   UNL     1       3.955   5.651  17.856  0.00  0.00    +0.000 A 
ATOM     17  H   UNL     1       5.136   3.052  17.550  0.00  0.00    +0.000 HD
ATOM     18  H   UNL     1       3.535   4.133  19.244  0.00  0.00    +0.000 HD
ENDROOT
BRANCH  11  19
ATOM     19  C   UNL     1       0.516   9.236  21.289  0.00  0.00    +0.000 A 
ATOM     20  C   UNL     1      -0.178   9.070  22.490  0.00  0.00    +0.000 A 
ATOM     21  C   UNL     1      -0.763  10.168  23.135  0.00  0.00    +0.000 A 
ATOM     22  C   UNL     1      -0.658  11.463  22.613  0.00  0.00    +0.000 A 
ATOM     23  C   UNL     1       0.004  11.645  21.408  0.00  0.00    +0.000 A 
ATOM     24  C   UNL     1       0.588  10.546  20.764  0.00  0.00    +0.000 A 
BRANCH  22  25
ATOM     25  O   UNL     1      -1.274  12.421  23.355  0.00  0.00    +0.000 OA
BRANCH  25  26
ATOM     26  C   UNL     1      -2.670  12.638  23.231  0.00  0.00    +0.000 C 
ATOM     27  F   UNL     1      -3.129  12.603  21.963  0.00  0.00    +0.000 F 
ATOM     28  F   UNL     1      -3.339  11.723  23.965  0.00  0.00    +0.000 F 
ATOM     29  F   UNL     1      -2.952  13.863  23.733  0.00  0.00    +0.000 F 
ENDBRANCH  25  26
ENDBRANCH  22  25
ENDBRANCH  11  19
BRANCH   1  31
ATOM     30  O   UNL     1       7.501   5.500  13.577  0.00  0.00    +0.000 OA
ATOM     31  C   UNL     1       7.518   4.733  14.546  0.00  0.00    +0.000 C 
ENDBRANCH   1  31
TORSDOF 4
ENDMDL
MODEL 6
REMARK VINA RESULT:      -8.3      1.278      1.420
REMARK  Name = 
REMARK  4 active torsions:
REMARK  status: ('A' for Active; 'I' for Inactive)
REMARK    1  A    between atoms: C_2  and  C_3
REMARK    2  A    between atoms: C_13  and  C_14
REMARK    3  A    between atoms: C_17  and  O_18
REMARK    4  A    between atoms: O_18  and  C_19
REMARK                            x       y       z     vdW  Elec       q    Type
REMARK                         _______ _______ _______ _____ _____    ______ ____
ROOT
ATOM      1  C   UNL     1      -5.804  12.328  17.830  0.00  0.00    +0.000 A 
ATOM      2  C   UNL     1      -5.720  12.208  19.214  0.00  0.00    +0.000 A 
ATOM      3  N   UNL     1      -4.408  12.434  19.488  0.00  0.00    +0.000 N 
ATOM      4  C   UNL     1      -3.739  11.839  18.471  0.00  0.00    +0.000 A 
ATOM      5  C   UNL     1      -4.564  11.770  17.367  0.00  0.00    +0.000 A 
ATOM      6  C   UNL     1      -3.980  11.198  16.215  0.00  0.00    +0.000 A 
ATOM      7  C   UNL     1      -2.663  10.590  16.282  0.00  0.00    +0.000 A 
ATOM      8  C   UNL     1      -1.870  10.629  17.486  0.00  0.00    +0.000 A 
ATOM      9  C   UNL     1      -0.655  10.106  18.047  0.00  0.00    +0.000 A 
ATOM     10  C   UNL     1       0.360   9.174  17.654  0.00  0.00    +0.000 A 
ATOM     11  C   UNL     1       1.386   8.800  18.569  0.00  0.00    +0.000 A 
ATOM     12  C   UNL     1       1.431   9.424  19.828  0.00  0.00    +0.000 A 
ATOM     13  C   UNL     1       0.478  10.334  20.233  0.00  0.00    +0.000 A 
ATOM     14  C   UNL     1      -0.539  10.632  19.337  0.00  0.00    +0.000 A 
ATOM     15  N   UNL     1      -1.627  11.417  19.558  0.00  0.00    +0.000 N 
ATOM     16  C   UNL     1      -2.452  11.350  18.501  0.00  0.00    +0.000 A 
ATOM     17  H   UNL     1      -4.022  13.149  20.097  0.00  0.00    +0.000 HD
ATOM     18  H   UNL     1      -1.816  11.877  20.432  0.00  0.00    +0.000 HD
ENDROOT
BRANCH  11  19
ATOM     19  C   UNL     1       2.400   7.763  18.276  0.00  0.00    +0.000 A 
ATOM     20  C   UNL     1       3.499   8.003  17.449  0.00  0.00    +0.000 A 
ATOM     21  C   UNL     1       4.461   7.007  17.231  0.00  0.00    +0.000 A 
ATOM     22  C   UNL     1       4.365   5.752  17.844  0.00  0.00    +0.000 A 
ATOM     23  C   UNL     1       3.267   5.485  18.649  0.00  0.00    +0.000 A 
ATOM     24  C   UNL     1       2.306   6.481  18.864  0.00  0.00    +0.000 A 
BRANCH  22  25
ATOM     25  O   UNL     1       5.375   4.896  17.538  0.00  0.00    +0.000 OA
BRANCH  25  26
ATOM     26  C   UNL     1       5.194   3.897  16.547  0.00  0.00    +0.000 C 
ATOM     27  F   UNL     1       6.339   3.454  15.988  0.00  0.00    +0.000 F 
ATOM     28  F   UNL     1       4.530   2.847  17.076  0.00  0.00    +0.000 F 
ATOM     29  F   UNL     1       4.432   4.419  15.558  0.00  0.00    +0.000 F 
ENDBRANCH  25  26
ENDBRANCH  22  25
ENDBRANCH  11  19
BRANCH   1  31
ATOM     30  O   UNL     1      -7.317  13.966  17.031  0.00  0.00    +0.000 OA
ATOM     31  C   UNL     1      -7.003  12.780  17.179  0.00  0.00    +0.000 C 
ENDBRANCH   1  31
TORSDOF 4
ENDMDL
MODEL 7
REMARK VINA RESULT:      -8.3      3.128      3.918
REMARK  Name = 
REMARK  4 active torsions:
REMARK  status: ('A' for Active; 'I' for Inactive)
REMARK    1  A    between atoms: C_2  and  C_3
REMARK    2  A    between atoms: C_13  and  C_14
REMARK    3  A    between atoms: C_17  and  O_18
REMARK    4  A    between atoms: O_18  and  C_19
REMARK                            x       y       z     vdW  Elec       q    Type
REMARK                         _______ _______ _______ _____ _____    ______ ____
ROOT
ATOM      1  C   UNL     1      -2.341  13.492  23.081  0.00  0.00    +0.000 A 
ATOM      2  C   UNL     1      -2.051  14.256  21.955  0.00  0.00    +0.000 A 
ATOM      3  N   UNL     1      -2.116  13.368  20.927  0.00  0.00    +0.000 N 
ATOM      4  C   UNL     1      -1.584  12.227  21.426  0.00  0.00    +0.000 A 
ATOM      5  C   UNL     1      -1.724  12.225  22.799  0.00  0.00    +0.000 A 
ATOM      6  C   UNL     1      -1.239  11.071  23.451  0.00  0.00    +0.000 A 
ATOM      7  C   UNL     1      -0.504  10.061  22.711  0.00  0.00    +0.000 A 
ATOM      8  C   UNL     1      -0.325  10.148  21.283  0.00  0.00    +0.000 A 
ATOM      9  C   UNL     1       0.375   9.516  20.198  0.00  0.00    +0.000 A 
ATOM     10  C   UNL     1       1.347   8.474  20.050  0.00  0.00    +0.000 A 
ATOM     11  C   UNL     1       1.923   8.204  18.775  0.00  0.00    +0.000 A 
ATOM     12  C   UNL     1       1.459   8.919  17.657  0.00  0.00    +0.000 A 
ATOM     13  C   UNL     1       0.515   9.919  17.763  0.00  0.00    +0.000 A 
ATOM     14  C   UNL     1       0.018  10.193  19.029  0.00  0.00    +0.000 A 
ATOM     15  N   UNL     1      -0.836  11.191  19.379  0.00  0.00    +0.000 N 
ATOM     16  C   UNL     1      -0.974  11.218  20.715  0.00  0.00    +0.000 A 
ATOM     17  H   UNL     1      -2.714  13.421  20.108  0.00  0.00    +0.000 HD
ATOM     18  H   UNL     1      -1.206  11.864  18.730  0.00  0.00    +0.000 HD
ENDROOT
BRANCH  11  19
ATOM     19  C   UNL     1       3.011   7.223  18.564  0.00  0.00    +0.000 A 
ATOM     20  C   UNL     1       3.849   7.263  17.447  0.00  0.00    +0.000 A 
ATOM     21  C   UNL     1       4.896   6.343  17.306  0.00  0.00    +0.000 A 
ATOM     22  C   UNL     1       5.150   5.371  18.281  0.00  0.00    +0.000 A 
ATOM     23  C   UNL     1       4.314   5.297  19.385  0.00  0.00    +0.000 A 
ATOM     24  C   UNL     1       3.266   6.218  19.524  0.00  0.00    +0.000 A 
BRANCH  22  25
ATOM     25  O   UNL     1       6.201   4.555  18.003  0.00  0.00    +0.000 OA
BRANCH  25  26
ATOM     26  C   UNL     1       7.531   5.040  18.097  0.00  0.00    +0.000 C 
ATOM     27  F   UNL     1       7.844   5.582  19.292  0.00  0.00    +0.000 F 
ATOM     28  F   UNL     1       8.399   4.040  17.830  0.00  0.00    +0.000 F 
ATOM     29  F   UNL     1       7.697   5.999  17.157  0.00  0.00    +0.000 F 
ENDBRANCH  25  26
ENDBRANCH  22  25
ENDBRANCH  11  19
BRANCH   1  31
ATOM     30  O   UNL     1      -4.171  14.377  24.296  0.00  0.00    +0.000 OA
ATOM     31  C   UNL     1      -2.978  14.058  24.238  0.00  0.00    +0.000 C 
ENDBRANCH   1  31
TORSDOF 4
ENDMDL
MODEL 8
REMARK VINA RESULT:      -8.2      6.081     10.308
REMARK  Name = 
REMARK  4 active torsions:
REMARK  status: ('A' for Active; 'I' for Inactive)
REMARK    1  A    between atoms: C_2  and  C_3
REMARK    2  A    between atoms: C_13  and  C_14
REMARK    3  A    between atoms: C_17  and  O_18
REMARK    4  A    between atoms: O_18  and  C_19
REMARK                            x       y       z     vdW  Elec       q    Type
REMARK                         _______ _______ _______ _____ _____    ______ ____
ROOT
ATOM      1  C   UNL     1       3.319   2.748  18.304  0.00  0.00    +0.000 A 
ATOM      2  C   UNL     1       3.078   3.320  17.059  0.00  0.00    +0.000 A 
ATOM      3  N   UNL     1       3.401   4.630  17.228  0.00  0.00    +0.000 N 
ATOM      4  C   UNL     1       2.970   4.930  18.476  0.00  0.00    +0.000 A 
ATOM      5  C   UNL     1       2.926   3.775  19.230  0.00  0.00    +0.000 A 
ATOM      6  C   UNL     1       2.522   3.947  20.572  0.00  0.00    +0.000 A 
ATOM      7  C   UNL     1       2.038   5.235  21.036  0.00  0.00    +0.000 A 
ATOM      8  C   UNL     1       2.039   6.397  20.182  0.00  0.00    +0.000 A 
ATOM      9  C   UNL     1       1.583   7.760  20.140  0.00  0.00    +0.000 A 
ATOM     10  C   UNL     1       0.792   8.621  20.967  0.00  0.00    +0.000 A 
ATOM     11  C   UNL     1       0.433   9.923  20.513  0.00  0.00    +0.000 A 
ATOM     12  C   UNL     1       0.937  10.373  19.281  0.00  0.00    +0.000 A 
ATOM     13  C   UNL     1       1.712   9.574  18.466  0.00  0.00    +0.000 A 
ATOM     14  C   UNL     1       1.995   8.293  18.915  0.00  0.00    +0.000 A 
ATOM     15  N   UNL     1       2.649   7.310  18.241  0.00  0.00    +0.000 N 
ATOM     16  C   UNL     1       2.604   6.170  18.950  0.00  0.00    +0.000 A 
ATOM     17  H   UNL     1       4.088   5.165  16.707  0.00  0.00    +0.000 HD
ATOM     18  H   UNL     1       3.005   7.415  17.307  0.00  0.00    +0.000 HD
ENDROOT
BRANCH  11  19
ATOM     19  C   UNL     1      -0.472  10.825  21.260  0.00  0.00    +0.000 A 
ATOM     20  C   UNL     1      -0.780  10.628  22.608  0.00  0.00    +0.000 A 
ATOM     21  C   UNL     1      -1.608  11.529  23.291  0.00  0.00    +0.000 A 
ATOM     22  C   UNL     1      -2.135  12.661  22.658  0.00  0.00    +0.000 A 
ATOM     23  C   UNL     1      -1.862  12.861  21.313  0.00  0.00    +0.000 A 
ATOM     24  C   UNL     1      -1.036  11.958  20.631  0.00  0.00    +0.000 A 
BRANCH  22  25
ATOM     25  O   UNL     1      -2.915  13.440  23.453  0.00  0.00    +0.000 OA
BRANCH  25  26
ATOM     26  C   UNL     1      -4.280  13.116  23.660  0.00  0.00    +0.000 C 
ATOM     27  F   UNL     1      -5.074  14.180  23.902  0.00  0.00    +0.000 F 
ATOM     28  F   UNL     1      -4.756  12.450  22.587  0.00  0.00    +0.000 F 
ATOM     29  F   UNL     1      -4.359  12.294  24.732  0.00  0.00    +0.000 F 
ENDBRANCH  25  26
ENDBRANCH  22  25
ENDBRANCH  11  19
BRANCH   1  31
ATOM     30  O   UNL     1       4.524   0.957  19.279  0.00  0.00    +0.000 OA
ATOM     31  C   UNL     1       3.714   1.374  18.444  0.00  0.00    +0.000 C 
ENDBRANCH   1  31
TORSDOF 4
ENDMDL
MODEL 9
REMARK VINA RESULT:      -8.1      5.931     10.242
REMARK  Name = 
REMARK  4 active torsions:
REMARK  status: ('A' for Active; 'I' for Inactive)
REMARK    1  A    between atoms: C_2  and  C_3
REMARK    2  A    between atoms: C_13  and  C_14
REMARK    3  A    between atoms: C_17  and  O_18
REMARK    4  A    between atoms: O_18  and  C_19
REMARK                            x       y       z     vdW  Elec       q    Type
REMARK                         _______ _______ _______ _____ _____    ______ ____
ROOT
ATOM      1  C   UNL     1       3.323   3.007  18.360  0.00  0.00    +0.000 A 
ATOM      2  C   UNL     1       3.117   3.538  17.091  0.00  0.00    +0.000 A 
ATOM      3  N   UNL     1       3.428   4.854  17.228  0.00  0.00    +0.000 N 
ATOM      4  C   UNL     1       2.958   5.190  18.452  0.00  0.00    +0.000 A 
ATOM      5  C   UNL     1       2.898   4.059  19.240  0.00  0.00    +0.000 A 
ATOM      6  C   UNL     1       2.453   4.271  20.564  0.00  0.00    +0.000 A 
ATOM      7  C   UNL     1       1.949   5.570  20.972  0.00  0.00    +0.000 A 
ATOM      8  C   UNL     1       1.970   6.705  20.083  0.00  0.00    +0.000 A 
ATOM      9  C   UNL     1       1.509   8.063  19.985  0.00  0.00    +0.000 A 
ATOM     10  C   UNL     1       0.689   8.945  20.760  0.00  0.00    +0.000 A 
ATOM     11  C   UNL     1       0.338  10.230  20.255  0.00  0.00    +0.000 A 
ATOM     12  C   UNL     1       0.876  10.644  19.024  0.00  0.00    +0.000 A 
ATOM     13  C   UNL     1       1.679   9.824  18.259  0.00  0.00    +0.000 A 
ATOM     14  C   UNL     1       1.954   8.559  18.756  0.00  0.00    +0.000 A 
ATOM     15  N   UNL     1       2.633   7.560  18.133  0.00  0.00    +0.000 N 
ATOM     16  C   UNL     1       2.573   6.443  18.876  0.00  0.00    +0.000 A 
ATOM     17  H   UNL     1       4.128   5.376  16.711  0.00  0.00    +0.000 HD
ATOM     18  H   UNL     1       3.017   7.638  17.207  0.00  0.00    +0.000 HD
ENDROOT
BRANCH  11  19
ATOM     19  C   UNL     1      -0.594  11.150  20.945  0.00  0.00    +0.000 A 
ATOM     20  C   UNL     1      -1.549  11.903  20.258  0.00  0.00    +0.000 A 
ATOM     21  C   UNL     1      -2.442  12.729  20.953  0.00  0.00    +0.000 A 
ATOM     22  C   UNL     1      -2.423  12.814  22.350  0.00  0.00    +0.000 A 
ATOM     23  C   UNL     1      -1.466  12.094  23.050  0.00  0.00    +0.000 A 
ATOM     24  C   UNL     1      -0.572  11.269  22.353  0.00  0.00    +0.000 A 
BRANCH  22  25
ATOM     25  O   UNL     1      -3.352  13.654  22.877  0.00  0.00    +0.000 OA
BRANCH  25  26
ATOM     26  C   UNL     1      -4.515  13.137  23.504  0.00  0.00    +0.000 C 
ATOM     27  F   UNL     1      -4.268  12.239  24.481  0.00  0.00    +0.000 F 
ATOM     28  F   UNL     1      -5.244  14.151  24.016  0.00  0.00    +0.000 F 
ATOM     29  F   UNL     1      -5.262  12.518  22.561  0.00  0.00    +0.000 F 
ENDBRANCH  25  26
ENDBRANCH  22  25
ENDBRANCH  11  19
BRANCH   1  31
ATOM     30  O   UNL     1       4.492   1.251  19.439  0.00  0.00    +0.000 OA
ATOM     31  C   UNL     1       3.721   1.639  18.555  0.00  0.00    +0.000 C 
ENDBRANCH   1  31
TORSDOF 4
ENDMDL
