MODEL 1
REMARK VINA RESULT:      -7.7      0.000      0.000
REMARK  Name = 
REMARK  11 active torsions:
REMARK  status: ('A' for Active; 'I' for Inactive)
REMARK    1  A    between atoms: C_1  and  C_2
REMARK    2  A    between atoms: C_2  and  O_4
REMARK    3  A    between atoms: O_4  and  C_5
REMARK    4  A    between atoms: C_13  and  C_14
REMARK    5  A    between atoms: C_17  and  C_18
REMARK    6  A    between atoms: C_18  and  C_19
REMARK    7  A    between atoms: C_18  and  C_20
REMARK    8  A    between atoms: C_20  and  C_21
REMARK    9  A    between atoms: C_21  and  C_22
REMARK   10  A    between atoms: C_23  and  C_24
REMARK   11  A    between atoms: C_23  and  C_25
REMARK                            x       y       z     vdW  Elec       q    Type
REMARK                         _______ _______ _______ _____ _____    ______ ____
ROOT
ATOM      1  C   UNL     1       3.557   4.511  19.688  0.00  0.00    +0.000 C 
ATOM      2  C   UNL     1       3.180   4.642  18.178  0.00  0.00    +0.000 C 
ATOM      3  O   UNL     1       2.263   4.221  17.501  0.00  0.00    +0.000 OA
ATOM      4  C   UNL     1       4.387   5.536  17.866  0.00  0.00    +0.000 C 
ATOM      5  C   UNL     1       5.039   4.987  19.232  0.00  0.00    +0.000 C 
ATOM      6  C   UNL     1       6.342   4.211  19.436  0.00  0.00    +0.000 C 
ATOM      7  C   UNL     1       7.663   4.897  18.923  0.00  0.00    +0.000 C 
ATOM      8  C   UNL     1       7.788   6.388  18.600  0.00  0.00    +0.000 C 
ATOM      9  C   UNL     1       7.493   7.256  17.597  0.00  0.00    +0.000 C 
ATOM     10  C   UNL     1       7.826   8.725  17.781  0.00  0.00    +0.000 C 
ATOM     11  C   UNL     1       6.898   7.088  16.216  0.00  0.00    +0.000 C 
ATOM     12  C   UNL     1       5.383   7.057  16.147  0.00  0.00    +0.000 C 
ATOM     13  C   UNL     1       4.728   5.685  16.350  0.00  0.00    +0.000 C 
ENDROOT
BRANCH  13  14
ATOM     14  C   UNL     1       5.352   4.471  15.591  0.00  0.00    +0.000 C 
ATOM     15  C   UNL     1       5.594   3.241  16.440  0.00  0.00    +0.000 C 
BRANCH  14  16
ATOM     16  C   UNL     1       6.598   4.711  14.654  0.00  0.00    +0.000 C 
BRANCH  16  17
ATOM     17  C   UNL     1       6.685   4.200  13.204  0.00  0.00    +0.000 C 
BRANCH  17  18
ATOM     18  C   UNL     1       5.465   3.948  12.356  0.00  0.00    +0.000 C 
ATOM     19  C   UNL     1       5.044   2.923  11.606  0.00  0.00    +0.000 C 
ATOM     20  C   UNL     1       5.783   1.651  11.327  0.00  0.00    +0.000 C 
ATOM     21  C   UNL     1       3.704   2.981  10.899  0.00  0.00    +0.000 C 
ENDBRANCH  17  18
ENDBRANCH  16  17
ENDBRANCH  14  16
ENDBRANCH  13  14
BRANCH   1  22
ATOM     22  O   UNL     1       3.183   3.230  20.234  0.00  0.00    +0.000 OA
BRANCH  22  24
ATOM     23  C   UNL     1       0.768   3.366  20.434  0.00  0.00    +0.000 C 
ATOM     24  C   UNL     1       2.096   3.339  21.103  0.00  0.00    +0.000 C 
ATOM     25  O   UNL     1       2.207   3.433  22.325  0.00  0.00    +0.000 OA
ENDBRANCH  22  24
ENDBRANCH   1  22
TORSDOF 6
ENDMDL
MODEL 2
REMARK VINA RESULT:      -7.4      2.726      4.833
REMARK  Name = 
REMARK  11 active torsions:
REMARK  status: ('A' for Active; 'I' for Inactive)
REMARK    1  A    between atoms: C_1  and  C_2
REMARK    2  A    between atoms: C_2  and  O_4
REMARK    3  A    between atoms: O_4  and  C_5
REMARK    4  A    between atoms: C_13  and  C_14
REMARK    5  A    between atoms: C_17  and  C_18
REMARK    6  A    between atoms: C_18  and  C_19
REMARK    7  A    between atoms: C_18  and  C_20
REMARK    8  A    between atoms: C_20  and  C_21
REMARK    9  A    between atoms: C_21  and  C_22
REMARK   10  A    between atoms: C_23  and  C_24
REMARK   11  A    between atoms: C_23  and  C_25
REMARK                            x       y       z     vdW  Elec       q    Type
REMARK                         _______ _______ _______ _____ _____    ______ ____
ROOT
ATOM      1  C   UNL     1       2.797   7.713  18.249  0.00  0.00    +0.000 C 
ATOM      2  C   UNL     1       4.210   7.177  17.855  0.00  0.00    +0.000 C 
ATOM      3  O   UNL     1       5.145   7.646  17.237  0.00  0.00    +0.000 OA
ATOM      4  C   UNL     1       3.995   5.837  18.571  0.00  0.00    +0.000 C 
ATOM      5  C   UNL     1       2.419   6.160  18.520  0.00  0.00    +0.000 C 
ATOM      6  C   UNL     1       1.293   5.371  17.847  0.00  0.00    +0.000 C 
ATOM      7  C   UNL     1       1.110   3.874  18.296  0.00  0.00    +0.000 C 
ATOM      8  C   UNL     1       1.695   3.284  19.581  0.00  0.00    +0.000 C 
ATOM      9  C   UNL     1       2.874   2.800  20.053  0.00  0.00    +0.000 C 
ATOM     10  C   UNL     1       2.944   2.320  21.491  0.00  0.00    +0.000 C 
ATOM     11  C   UNL     1       4.232   2.574  19.425  0.00  0.00    +0.000 C 
ATOM     12  C   UNL     1       5.155   3.777  19.391  0.00  0.00    +0.000 C 
ATOM     13  C   UNL     1       5.001   4.708  18.182  0.00  0.00    +0.000 C 
ENDROOT
BRANCH  13  14
ATOM     14  C   UNL     1       4.888   4.045  16.773  0.00  0.00    +0.000 C 
ATOM     15  C   UNL     1       3.981   2.835  16.707  0.00  0.00    +0.000 C 
BRANCH  14  16
ATOM     16  C   UNL     1       6.204   3.755  15.954  0.00  0.00    +0.000 C 
BRANCH  16  17
ATOM     17  C   UNL     1       6.432   4.233  14.508  0.00  0.00    +0.000 C 
BRANCH  17  18
ATOM     18  C   UNL     1       5.445   3.968  13.400  0.00  0.00    +0.000 C 
ATOM     19  C   UNL     1       5.499   3.308  12.238  0.00  0.00    +0.000 C 
ATOM     20  C   UNL     1       6.699   2.644  11.638  0.00  0.00    +0.000 C 
ATOM     21  C   UNL     1       4.273   3.195  11.354  0.00  0.00    +0.000 C 
ENDBRANCH  17  18
ENDBRANCH  16  17
ENDBRANCH  14  16
ENDBRANCH  13  14
BRANCH   1  22
ATOM     22  O   UNL     1       2.243   8.582  17.241  0.00  0.00    +0.000 OA
BRANCH  22  24
ATOM     23  C   UNL     1       0.311   9.694  18.203  0.00  0.00    +0.000 C 
ATOM     24  C   UNL     1       1.740   9.760  17.797  0.00  0.00    +0.000 C 
ATOM     25  O   UNL     1       2.402  10.790  17.925  0.00  0.00    +0.000 OA
ENDBRANCH  22  24
ENDBRANCH   1  22
TORSDOF 6
ENDMDL
MODEL 3
REMARK VINA RESULT:      -7.3      0.869      1.125
REMARK  Name = 
REMARK  11 active torsions:
REMARK  status: ('A' for Active; 'I' for Inactive)
REMARK    1  A    between atoms: C_1  and  C_2
REMARK    2  A    between atoms: C_2  and  O_4
REMARK    3  A    between atoms: O_4  and  C_5
REMARK    4  A    between atoms: C_13  and  C_14
REMARK    5  A    between atoms: C_17  and  C_18
REMARK    6  A    between atoms: C_18  and  C_19
REMARK    7  A    between atoms: C_18  and  C_20
REMARK    8  A    between atoms: C_20  and  C_21
REMARK    9  A    between atoms: C_21  and  C_22
REMARK   10  A    between atoms: C_23  and  C_24
REMARK   11  A    between atoms: C_23  and  C_25
REMARK                            x       y       z     vdW  Elec       q    Type
REMARK                         _______ _______ _______ _____ _____    ______ ____
ROOT
ATOM      1  C   UNL     1       3.481   5.058  19.750  0.00  0.00    +0.000 C 
ATOM      2  C   UNL     1       3.197   5.154  18.217  0.00  0.00    +0.000 C 
ATOM      3  O   UNL     1       2.291   4.772  17.504  0.00  0.00    +0.000 OA
ATOM      4  C   UNL     1       4.483   5.945  17.943  0.00  0.00    +0.000 C 
ATOM      5  C   UNL     1       5.016   5.407  19.363  0.00  0.00    +0.000 C 
ATOM      6  C   UNL     1       6.246   4.549  19.670  0.00  0.00    +0.000 C 
ATOM      7  C   UNL     1       7.639   5.116  19.209  0.00  0.00    +0.000 C 
ATOM      8  C   UNL     1       7.892   6.579  18.839  0.00  0.00    +0.000 C 
ATOM      9  C   UNL     1       7.718   7.425  17.790  0.00  0.00    +0.000 C 
ATOM     10  C   UNL     1       8.148   8.873  17.938  0.00  0.00    +0.000 C 
ATOM     11  C   UNL     1       7.189   7.244  16.384  0.00  0.00    +0.000 C 
ATOM     12  C   UNL     1       5.681   7.319  16.229  0.00  0.00    +0.000 C 
ATOM     13  C   UNL     1       4.917   6.007  16.444  0.00  0.00    +0.000 C 
ENDROOT
BRANCH  13  14
ATOM     14  C   UNL     1       5.489   4.722  15.767  0.00  0.00    +0.000 C 
ATOM     15  C   UNL     1       6.918   4.385  16.139  0.00  0.00    +0.000 C 
BRANCH  14  16
ATOM     16  C   UNL     1       5.294   4.520  14.215  0.00  0.00    +0.000 C 
BRANCH  16  17
ATOM     17  C   UNL     1       6.439   4.156  13.252  0.00  0.00    +0.000 C 
BRANCH  17  18
ATOM     18  C   UNL     1       6.452   2.880  12.450  0.00  0.00    +0.000 C 
ATOM     19  C   UNL     1       5.617   2.323  11.566  0.00  0.00    +0.000 C 
ATOM     20  C   UNL     1       4.278   2.843  11.146  0.00  0.00    +0.000 C 
ATOM     21  C   UNL     1       5.967   1.011  10.892  0.00  0.00    +0.000 C 
ENDBRANCH  17  18
ENDBRANCH  16  17
ENDBRANCH  14  16
ENDBRANCH  13  14
BRANCH   1  22
ATOM     22  O   UNL     1       2.984   3.830  20.320  0.00  0.00    +0.000 OA
BRANCH  22  24
ATOM     23  C   UNL     1       0.968   2.540  19.916  0.00  0.00    +0.000 C 
ATOM     24  C   UNL     1       1.589   3.814  20.368  0.00  0.00    +0.000 C 
ATOM     25  O   UNL     1       0.907   4.774  20.727  0.00  0.00    +0.000 OA
ENDBRANCH  22  24
ENDBRANCH   1  22
TORSDOF 6
ENDMDL
MODEL 4
REMARK VINA RESULT:      -7.3      1.727      5.743
REMARK  Name = 
REMARK  11 active torsions:
REMARK  status: ('A' for Active; 'I' for Inactive)
REMARK    1  A    between atoms: C_1  and  C_2
REMARK    2  A    between atoms: C_2  and  O_4
REMARK    3  A    between atoms: O_4  and  C_5
REMARK    4  A    between atoms: C_13  and  C_14
REMARK    5  A    between atoms: C_17  and  C_18
REMARK    6  A    between atoms: C_18  and  C_19
REMARK    7  A    between atoms: C_18  and  C_20
REMARK    8  A    between atoms: C_20  and  C_21
REMARK    9  A    between atoms: C_21  and  C_22
REMARK   10  A    between atoms: C_23  and  C_24
REMARK   11  A    between atoms: C_23  and  C_25
REMARK                            x       y       z     vdW  Elec       q    Type
REMARK                         _______ _______ _______ _____ _____    ______ ____
ROOT
ATOM      1  C   UNL     1       3.449   4.533  19.068  0.00  0.00    +0.000 C 
ATOM      2  C   UNL     1       4.924   4.141  19.401  0.00  0.00    +0.000 C 
ATOM      3  O   UNL     1       5.489   3.777  20.412  0.00  0.00    +0.000 OA
ATOM      4  C   UNL     1       5.396   4.356  17.957  0.00  0.00    +0.000 C 
ATOM      5  C   UNL     1       4.064   5.233  17.741  0.00  0.00    +0.000 C 
ATOM      6  C   UNL     1       3.932   6.708  17.351  0.00  0.00    +0.000 C 
ATOM      7  C   UNL     1       4.602   7.144  15.996  0.00  0.00    +0.000 C 
ATOM      8  C   UNL     1       5.024   6.172  14.892  0.00  0.00    +0.000 C 
ATOM      9  C   UNL     1       6.046   5.328  14.593  0.00  0.00    +0.000 C 
ATOM     10  C   UNL     1       5.981   4.528  13.305  0.00  0.00    +0.000 C 
ATOM     11  C   UNL     1       7.355   4.996  15.276  0.00  0.00    +0.000 C 
ATOM     12  C   UNL     1       7.285   3.946  16.368  0.00  0.00    +0.000 C 
ATOM     13  C   UNL     1       6.943   4.458  17.773  0.00  0.00    +0.000 C 
ENDROOT
BRANCH  13  14
ATOM     14  C   UNL     1       7.681   5.741  18.270  0.00  0.00    +0.000 C 
ATOM     15  C   UNL     1       7.988   5.768  19.753  0.00  0.00    +0.000 C 
BRANCH  14  16
ATOM     16  C   UNL     1       7.146   7.156  17.823  0.00  0.00    +0.000 C 
BRANCH  16  17
ATOM     17  C   UNL     1       8.048   8.392  17.649  0.00  0.00    +0.000 C 
BRANCH  17  18
ATOM     18  C   UNL     1       8.611   9.159  18.818  0.00  0.00    +0.000 C 
ATOM     19  C   UNL     1       9.214  10.345  18.954  0.00  0.00    +0.000 C 
ATOM     20  C   UNL     1       9.587  11.294  17.858  0.00  0.00    +0.000 C 
ATOM     21  C   UNL     1       9.628  10.850  20.323  0.00  0.00    +0.000 C 
ENDBRANCH  17  18
ENDBRANCH  16  17
ENDBRANCH  14  16
ENDBRANCH  13  14
BRANCH   1  22
ATOM     22  O   UNL     1       2.796   5.187  20.175  0.00  0.00    +0.000 OA
BRANCH  22  24
ATOM     23  C   UNL     1       2.207   3.340  21.636  0.00  0.00    +0.000 C 
ATOM     24  C   UNL     1       1.764   4.405  20.698  0.00  0.00    +0.000 C 
ATOM     25  O   UNL     1       0.579   4.551  20.399  0.00  0.00    +0.000 OA
ENDBRANCH  22  24
ENDBRANCH   1  22
TORSDOF 6
ENDMDL
MODEL 5
REMARK VINA RESULT:      -7.2      3.095      7.239
REMARK  Name = 
REMARK  11 active torsions:
REMARK  status: ('A' for Active; 'I' for Inactive)
REMARK    1  A    between atoms: C_1  and  C_2
REMARK    2  A    between atoms: C_2  and  O_4
REMARK    3  A    between atoms: O_4  and  C_5
REMARK    4  A    between atoms: C_13  and  C_14
REMARK    5  A    between atoms: C_17  and  C_18
REMARK    6  A    between atoms: C_18  and  C_19
REMARK    7  A    between atoms: C_18  and  C_20
REMARK    8  A    between atoms: C_20  and  C_21
REMARK    9  A    between atoms: C_21  and  C_22
REMARK   10  A    between atoms: C_23  and  C_24
REMARK   11  A    between atoms: C_23  and  C_25
REMARK                            x       y       z     vdW  Elec       q    Type
REMARK                         _______ _______ _______ _____ _____    ______ ____
ROOT
ATOM      1  C   UNL     1       5.583   4.001  13.926  0.00  0.00    +0.000 C 
ATOM      2  C   UNL     1       6.516   5.186  14.332  0.00  0.00    +0.000 C 
ATOM      3  O   UNL     1       7.572   5.608  13.907  0.00  0.00    +0.000 OA
ATOM      4  C   UNL     1       5.581   5.647  15.458  0.00  0.00    +0.000 C 
ATOM      5  C   UNL     1       4.920   4.181  15.395  0.00  0.00    +0.000 C 
ATOM      6  C   UNL     1       4.834   3.113  16.487  0.00  0.00    +0.000 C 
ATOM      7  C   UNL     1       4.119   3.525  17.827  0.00  0.00    +0.000 C 
ATOM      8  C   UNL     1       3.198   4.738  17.972  0.00  0.00    +0.000 C 
ATOM      9  C   UNL     1       3.279   6.084  18.139  0.00  0.00    +0.000 C 
ATOM     10  C   UNL     1       1.995   6.890  18.216  0.00  0.00    +0.000 C 
ATOM     11  C   UNL     1       4.436   7.042  18.318  0.00  0.00    +0.000 C 
ATOM     12  C   UNL     1       5.101   7.524  17.042  0.00  0.00    +0.000 C 
ATOM     13  C   UNL     1       6.219   6.632  16.488  0.00  0.00    +0.000 C 
ENDROOT
BRANCH  13  14
ATOM     14  C   UNL     1       7.274   6.088  17.503  0.00  0.00    +0.000 C 
ATOM     15  C   UNL     1       6.831   4.880  18.301  0.00  0.00    +0.000 C 
BRANCH  14  16
ATOM     16  C   UNL     1       8.012   7.102  18.459  0.00  0.00    +0.000 C 
BRANCH  16  17
ATOM     17  C   UNL     1       8.308   8.566  18.083  0.00  0.00    +0.000 C 
BRANCH  17  18
ATOM     18  C   UNL     1       9.078   9.497  18.985  0.00  0.00    +0.000 C 
ATOM     19  C   UNL     1       9.320  10.812  18.983  0.00  0.00    +0.000 C 
ATOM     20  C   UNL     1       8.900  11.801  17.940  0.00  0.00    +0.000 C 
ATOM     21  C   UNL     1      10.121  11.454  20.099  0.00  0.00    +0.000 C 
ENDBRANCH  17  18
ENDBRANCH  16  17
ENDBRANCH  14  16
ENDBRANCH  13  14
BRANCH   1  22
ATOM     22  O   UNL     1       6.326   2.865  13.438  0.00  0.00    +0.000 OA
BRANCH  22  24
ATOM     23  C   UNL     1       4.799   3.102  11.566  0.00  0.00    +0.000 C 
ATOM     24  C   UNL     1       6.130   2.672  12.070  0.00  0.00    +0.000 C 
ATOM     25  O   UNL     1       6.969   2.163  11.327  0.00  0.00    +0.000 OA
ENDBRANCH  22  24
ENDBRANCH   1  22
TORSDOF 6
ENDMDL
MODEL 6
REMARK VINA RESULT:      -7.1      2.496      5.462
REMARK  Name = 
REMARK  11 active torsions:
REMARK  status: ('A' for Active; 'I' for Inactive)
REMARK    1  A    between atoms: C_1  and  C_2
REMARK    2  A    between atoms: C_2  and  O_4
REMARK    3  A    between atoms: O_4  and  C_5
REMARK    4  A    between atoms: C_13  and  C_14
REMARK    5  A    between atoms: C_17  and  C_18
REMARK    6  A    between atoms: C_18  and  C_19
REMARK    7  A    between atoms: C_18  and  C_20
REMARK    8  A    between atoms: C_20  and  C_21
REMARK    9  A    between atoms: C_21  and  C_22
REMARK   10  A    between atoms: C_23  and  C_24
REMARK   11  A    between atoms: C_23  and  C_25
REMARK                            x       y       z     vdW  Elec       q    Type
REMARK                         _______ _______ _______ _____ _____    ______ ____
ROOT
ATOM      1  C   UNL     1       6.027   5.301  19.130  0.00  0.00    +0.000 C 
ATOM      2  C   UNL     1       5.152   4.081  19.561  0.00  0.00    +0.000 C 
ATOM      3  O   UNL     1       5.342   2.882  19.598  0.00  0.00    +0.000 OA
ATOM      4  C   UNL     1       3.963   4.966  19.957  0.00  0.00    +0.000 C 
ATOM      5  C   UNL     1       4.630   6.119  19.054  0.00  0.00    +0.000 C 
ATOM      6  C   UNL     1       4.062   6.831  17.823  0.00  0.00    +0.000 C 
ATOM      7  C   UNL     1       2.690   7.580  18.008  0.00  0.00    +0.000 C 
ATOM      8  C   UNL     1       2.096   7.964  19.365  0.00  0.00    +0.000 C 
ATOM      9  C   UNL     1       1.400   7.400  20.386  0.00  0.00    +0.000 C 
ATOM     10  C   UNL     1       1.042   8.255  21.588  0.00  0.00    +0.000 C 
ATOM     11  C   UNL     1       0.818   6.021  20.611  0.00  0.00    +0.000 C 
ATOM     12  C   UNL     1       1.773   4.982  21.167  0.00  0.00    +0.000 C 
ATOM     13  C   UNL     1       2.606   4.214  20.133  0.00  0.00    +0.000 C 
ENDROOT
BRANCH  13  14
ATOM     14  C   UNL     1       1.867   3.680  18.866  0.00  0.00    +0.000 C 
ATOM     15  C   UNL     1       0.710   2.745  19.147  0.00  0.00    +0.000 C 
BRANCH  14  16
ATOM     16  C   UNL     1       2.716   3.111  17.665  0.00  0.00    +0.000 C 
BRANCH  16  17
ATOM     17  C   UNL     1       3.239   3.978  16.505  0.00  0.00    +0.000 C 
BRANCH  17  18
ATOM     18  C   UNL     1       4.551   3.706  15.814  0.00  0.00    +0.000 C 
ATOM     19  C   UNL     1       5.392   4.444  15.082  0.00  0.00    +0.000 C 
ATOM     20  C   UNL     1       5.201   5.867  14.657  0.00  0.00    +0.000 C 
ATOM     21  C   UNL     1       6.687   3.852  14.559  0.00  0.00    +0.000 C 
ENDBRANCH  17  18
ENDBRANCH  16  17
ENDBRANCH  14  16
ENDBRANCH  13  14
BRANCH   1  22
ATOM     22  O   UNL     1       6.909   4.979  18.035  0.00  0.00    +0.000 OA
BRANCH  22  24
ATOM     23  C   UNL     1       8.143   6.970  18.671  0.00  0.00    +0.000 C 
ATOM     24  C   UNL     1       7.607   6.102  17.589  0.00  0.00    +0.000 C 
ATOM     25  O   UNL     1       7.756   6.385  16.400  0.00  0.00    +0.000 OA
ENDBRANCH  22  24
ENDBRANCH   1  22
TORSDOF 6
ENDMDL
MODEL 7
REMARK VINA RESULT:      -6.8      2.708      4.902
REMARK  Name = 
REMARK  11 active torsions:
REMARK  status: ('A' for Active; 'I' for Inactive)
REMARK    1  A    between atoms: C_1  and  C_2
REMARK    2  A    between atoms: C_2  and  O_4
REMARK    3  A    between atoms: O_4  and  C_5
REMARK    4  A    between atoms: C_13  and  C_14
REMARK    5  A    between atoms: C_17  and  C_18
REMARK    6  A    between atoms: C_18  and  C_19
REMARK    7  A    between atoms: C_18  and  C_20
REMARK    8  A    between atoms: C_20  and  C_21
REMARK    9  A    between atoms: C_21  and  C_22
REMARK   10  A    between atoms: C_23  and  C_24
REMARK   11  A    between atoms: C_23  and  C_25
REMARK                            x       y       z     vdW  Elec       q    Type
REMARK                         _______ _______ _______ _____ _____    ______ ____
ROOT
ATOM      1  C   UNL     1       2.610   7.570  18.350  0.00  0.00    +0.000 C 
ATOM      2  C   UNL     1       4.135   7.255  18.240  0.00  0.00    +0.000 C 
ATOM      3  O   UNL     1       5.095   7.878  17.831  0.00  0.00    +0.000 OA
ATOM      4  C   UNL     1       3.981   5.867  18.874  0.00  0.00    +0.000 C 
ATOM      5  C   UNL     1       2.416   5.968  18.512  0.00  0.00    +0.000 C 
ATOM      6  C   UNL     1       1.572   5.062  17.611  0.00  0.00    +0.000 C 
ATOM      7  C   UNL     1       1.524   3.535  17.989  0.00  0.00    +0.000 C 
ATOM      8  C   UNL     1       1.923   2.974  19.355  0.00  0.00    +0.000 C 
ATOM      9  C   UNL     1       3.043   2.638  20.047  0.00  0.00    +0.000 C 
ATOM     10  C   UNL     1       2.897   2.106  21.461  0.00  0.00    +0.000 C 
ATOM     11  C   UNL     1       4.517   2.632  19.703  0.00  0.00    +0.000 C 
ATOM     12  C   UNL     1       5.243   3.952  19.877  0.00  0.00    +0.000 C 
ATOM     13  C   UNL     1       5.197   4.908  18.678  0.00  0.00    +0.000 C 
ENDROOT
BRANCH  13  14
ATOM     14  C   UNL     1       5.462   4.301  17.263  0.00  0.00    +0.000 C 
ATOM     15  C   UNL     1       6.922   4.105  16.915  0.00  0.00    +0.000 C 
BRANCH  14  16
ATOM     16  C   UNL     1       4.705   4.901  16.017  0.00  0.00    +0.000 C 
BRANCH  16  17
ATOM     17  C   UNL     1       5.333   5.024  14.616  0.00  0.00    +0.000 C 
BRANCH  17  18
ATOM     18  C   UNL     1       5.263   3.919  13.594  0.00  0.00    +0.000 C 
ATOM     19  C   UNL     1       6.022   3.559  12.553  0.00  0.00    +0.000 C 
ATOM     20  C   UNL     1       7.231   4.273  12.034  0.00  0.00    +0.000 C 
ATOM     21  C   UNL     1       5.679   2.330  11.733  0.00  0.00    +0.000 C 
ENDBRANCH  17  18
ENDBRANCH  16  17
ENDBRANCH  14  16
ENDBRANCH  13  14
BRANCH   1  22
ATOM     22  O   UNL     1       2.145   8.399  17.265  0.00  0.00    +0.000 OA
BRANCH  22  24
ATOM     23  C   UNL     1       0.237   9.702  18.011  0.00  0.00    +0.000 C 
ATOM     24  C   UNL     1       1.694   9.639  17.722  0.00  0.00    +0.000 C 
ATOM     25  O   UNL     1       2.423  10.621  17.857  0.00  0.00    +0.000 OA
ENDBRANCH  22  24
ENDBRANCH   1  22
TORSDOF 6
ENDMDL
MODEL 8
REMARK VINA RESULT:      -6.8      3.575      7.148
REMARK  Name = 
REMARK  11 active torsions:
REMARK  status: ('A' for Active; 'I' for Inactive)
REMARK    1  A    between atoms: C_1  and  C_2
REMARK    2  A    between atoms: C_2  and  O_4
REMARK    3  A    between atoms: O_4  and  C_5
REMARK    4  A    between atoms: C_13  and  C_14
REMARK    5  A    between atoms: C_17  and  C_18
REMARK    6  A    between atoms: C_18  and  C_19
REMARK    7  A    between atoms: C_18  and  C_20
REMARK    8  A    between atoms: C_20  and  C_21
REMARK    9  A    between atoms: C_21  and  C_22
REMARK   10  A    between atoms: C_23  and  C_24
REMARK   11  A    between atoms: C_23  and  C_25
REMARK                            x       y       z     vdW  Elec       q    Type
REMARK                         _______ _______ _______ _____ _____    ______ ____
ROOT
ATOM      1  C   UNL     1       6.076   4.356  16.506  0.00  0.00    +0.000 C 
ATOM      2  C   UNL     1       5.053   5.512  16.271  0.00  0.00    +0.000 C 
ATOM      3  O   UNL     1       5.098   6.565  15.669  0.00  0.00    +0.000 OA
ATOM      4  C   UNL     1       3.944   4.805  17.062  0.00  0.00    +0.000 C 
ATOM      5  C   UNL     1       5.105   3.909  17.726  0.00  0.00    +0.000 C 
ATOM      6  C   UNL     1       5.502   3.779  19.198  0.00  0.00    +0.000 C 
ATOM      7  C   UNL     1       4.380   3.304  20.195  0.00  0.00    +0.000 C 
ATOM      8  C   UNL     1       3.082   2.617  19.764  0.00  0.00    +0.000 C 
ATOM      9  C   UNL     1       1.860   2.937  19.264  0.00  0.00    +0.000 C 
ATOM     10  C   UNL     1       0.872   1.822  18.978  0.00  0.00    +0.000 C 
ATOM     11  C   UNL     1       1.182   4.249  18.933  0.00  0.00    +0.000 C 
ATOM     12  C   UNL     1       1.493   4.829  17.565  0.00  0.00    +0.000 C 
ATOM     13  C   UNL     1       2.744   5.712  17.478  0.00  0.00    +0.000 C 
ENDROOT
BRANCH  13  14
ATOM     14  C   UNL     1       2.953   6.776  18.602  0.00  0.00    +0.000 C 
ATOM     15  C   UNL     1       2.307   6.439  19.930  0.00  0.00    +0.000 C 
BRANCH  14  16
ATOM     16  C   UNL     1       2.703   8.298  18.273  0.00  0.00    +0.000 C 
BRANCH  16  17
ATOM     17  C   UNL     1       1.350   8.856  17.795  0.00  0.00    +0.000 C 
BRANCH  17  18
ATOM     18  C   UNL     1       0.666  10.018  18.469  0.00  0.00    +0.000 C 
ATOM     19  C   UNL     1       0.192  10.238  19.700  0.00  0.00    +0.000 C 
ATOM     20  C   UNL     1       0.152   9.261  20.834  0.00  0.00    +0.000 C 
ATOM     21  C   UNL     1      -0.416  11.578  20.068  0.00  0.00    +0.000 C 
ENDBRANCH  17  18
ENDBRANCH  16  17
ENDBRANCH  14  16
ENDBRANCH  13  14
BRANCH   1  22
ATOM     22  O   UNL     1       7.431   4.839  16.604  0.00  0.00    +0.000 OA
BRANCH  22  24
ATOM     23  C   UNL     1       7.478   6.791  18.047  0.00  0.00    +0.000 C 
ATOM     24  C   UNL     1       7.711   5.332  17.880  0.00  0.00    +0.000 C 
ATOM     25  O   UNL     1       8.143   4.636  18.799  0.00  0.00    +0.000 OA
ENDBRANCH  22  24
ENDBRANCH   1  22
TORSDOF 6
ENDMDL
MODEL 9
REMARK VINA RESULT:      -6.8      3.794      7.103
REMARK  Name = 
REMARK  11 active torsions:
REMARK  status: ('A' for Active; 'I' for Inactive)
REMARK    1  A    between atoms: C_1  and  C_2
REMARK    2  A    between atoms: C_2  and  O_4
REMARK    3  A    between atoms: O_4  and  C_5
REMARK    4  A    between atoms: C_13  and  C_14
REMARK    5  A    between atoms: C_17  and  C_18
REMARK    6  A    between atoms: C_18  and  C_19
REMARK    7  A    between atoms: C_18  and  C_20
REMARK    8  A    between atoms: C_20  and  C_21
REMARK    9  A    between atoms: C_21  and  C_22
REMARK   10  A    between atoms: C_23  and  C_24
REMARK   11  A    between atoms: C_23  and  C_25
REMARK                            x       y       z     vdW  Elec       q    Type
REMARK                         _______ _______ _______ _____ _____    ______ ____
ROOT
ATOM      1  C   UNL     1       6.254   4.945  16.404  0.00  0.00    +0.000 C 
ATOM      2  C   UNL     1       5.066   5.937  16.193  0.00  0.00    +0.000 C 
ATOM      3  O   UNL     1       4.938   6.977  15.579  0.00  0.00    +0.000 OA
ATOM      4  C   UNL     1       4.099   5.088  17.029  0.00  0.00    +0.000 C 
ATOM      5  C   UNL     1       5.399   4.380  17.660  0.00  0.00    +0.000 C 
ATOM      6  C   UNL     1       5.859   4.330  19.120  0.00  0.00    +0.000 C 
ATOM      7  C   UNL     1       4.851   3.713  20.159  0.00  0.00    +0.000 C 
ATOM      8  C   UNL     1       3.654   2.839  19.781  0.00  0.00    +0.000 C 
ATOM      9  C   UNL     1       2.382   2.971  19.321  0.00  0.00    +0.000 C 
ATOM     10  C   UNL     1       1.558   1.720  19.080  0.00  0.00    +0.000 C 
ATOM     11  C   UNL     1       1.510   4.165  19.000  0.00  0.00    +0.000 C 
ATOM     12  C   UNL     1       1.688   4.764  17.617  0.00  0.00    +0.000 C 
ATOM     13  C   UNL     1       2.794   5.818  17.478  0.00  0.00    +0.000 C 
ENDROOT
BRANCH  13  14
ATOM     14  C   UNL     1       2.883   6.917  18.584  0.00  0.00    +0.000 C 
ATOM     15  C   UNL     1       2.058   6.645  19.824  0.00  0.00    +0.000 C 
BRANCH  14  16
ATOM     16  C   UNL     1       2.723   8.432  18.173  0.00  0.00    +0.000 C 
BRANCH  16  17
ATOM     17  C   UNL     1       1.405   9.042  17.662  0.00  0.00    +0.000 C 
BRANCH  17  18
ATOM     18  C   UNL     1       0.542   9.940  18.510  0.00  0.00    +0.000 C 
ATOM     19  C   UNL     1      -0.734  10.340  18.449  0.00  0.00    +0.000 C 
ATOM     20  C   UNL     1      -1.725  10.020  17.375  0.00  0.00    +0.000 C 
ATOM     21  C   UNL     1      -1.314  11.240  19.523  0.00  0.00    +0.000 C 
ENDBRANCH  17  18
ENDBRANCH  16  17
ENDBRANCH  14  16
ENDBRANCH  13  14
BRANCH   1  22
ATOM     22  O   UNL     1       7.527   5.621  16.449  0.00  0.00    +0.000 OA
BRANCH  22  24
ATOM     23  C   UNL     1       7.939   6.281  18.748  0.00  0.00    +0.000 C 
ATOM     24  C   UNL     1       7.521   6.667  17.374  0.00  0.00    +0.000 C 
ATOM     25  O   UNL     1       7.176   7.816  17.102  0.00  0.00    +0.000 OA
ENDBRANCH  22  24
ENDBRANCH   1  22
TORSDOF 6
ENDMDL
