MODEL 1
REMARK VINA RESULT:      -8.0      0.000      0.000
REMARK  Name = 
REMARK  5 active torsions:
REMARK  status: ('A' for Active; 'I' for Inactive)
REMARK    1  A    between atoms: C_1  and  O_2
REMARK    2  A    between atoms: O_2  and  C_3
REMARK    3  A    between atoms: C_5  and  C_6
REMARK    4  A    between atoms: C_14  and  N_15
REMARK    5  A    between atoms: C_16  and  C_18
REMARK                            x       y       z     vdW  Elec       q    Type
REMARK                         _______ _______ _______ _____ _____    ______ ____
ROOT
ATOM      1  C   UNL     1       2.366   6.308  19.732  0.00  0.00    +0.000 A 
ATOM      2  C   UNL     1       3.173   5.596  18.819  0.00  0.00    +0.000 A 
ATOM      3  C   UNL     1       3.682   6.178  17.644  0.00  0.00    +0.000 A 
ATOM      4  C   UNL     1       3.338   7.510  17.406  0.00  0.00    +0.000 A 
ATOM      5  C   UNL     1       2.587   8.244  18.329  0.00  0.00    +0.000 A 
ATOM      6  C   UNL     1       2.098   7.670  19.509  0.00  0.00    +0.000 A 
ENDROOT
BRANCH   3   7
ATOM      7  C   UNL     1       4.596   5.437  16.744  0.00  0.00    +0.000 A 
ATOM      8  C   UNL     1       5.270   6.066  15.681  0.00  0.00    +0.000 A 
ATOM      9  C   UNL     1       6.049   5.337  14.777  0.00  0.00    +0.000 A 
ATOM     10  C   UNL     1       6.196   3.963  14.931  0.00  0.00    +0.000 A 
ATOM     11  C   UNL     1       5.573   3.319  15.993  0.00  0.00    +0.000 A 
ATOM     12  C   UNL     1       4.781   4.047  16.885  0.00  0.00    +0.000 A 
ENDBRANCH   3   7
BRANCH   6  13
ATOM     13  N   UNL     1       1.379   8.441  20.470  0.00  0.00    +0.000 N 
ATOM     14  C   UNL     1       0.549   9.508  20.162  0.00  0.00    +0.000 C 
ATOM     15  O   UNL     1       0.206   9.818  19.022  0.00  0.00    +0.000 OA
ATOM     16  H   UNL     1       1.463   8.154  21.445  0.00  0.00    +0.000 HD
BRANCH  14  17
ATOM     17  C   UNL     1       0.010  10.298  21.258  0.00  0.00    +0.000 A 
ATOM     18  C   UNL     1      -0.135   9.810  22.576  0.00  0.00    +0.000 A 
ATOM     19  N   UNL     1      -0.638  10.700  23.424  0.00  0.00    +0.000 NA
ATOM     20  N   UNL     1      -0.844  11.793  22.661  0.00  0.00    +0.000 N 
ATOM     21  C   UNL     1      -1.343  13.018  23.088  0.00  0.00    +0.000 A 
ATOM     22  C   UNL     1      -1.527  14.012  22.210  0.00  0.00    +0.000 A 
ATOM     23  C   UNL     1      -1.173  13.685  20.803  0.00  0.00    +0.000 A 
ATOM     24  N   UNL     1      -0.675  12.563  20.367  0.00  0.00    +0.000 NA
ATOM     25  C   UNL     1      -0.493  11.586  21.315  0.00  0.00    +0.000 A 
ENDBRANCH  14  17
ENDBRANCH   6  13
BRANCH   1  27
ATOM     26  C   UNL     1       2.154   4.333  21.020  0.00  0.00    +0.000 C 
ATOM     27  O   UNL     1       1.832   5.719  20.858  0.00  0.00    +0.000 OA
ENDBRANCH   1  27
TORSDOF 4
ENDMDL
MODEL 2
REMARK VINA RESULT:      -7.9      0.934      1.029
REMARK  Name = 
REMARK  5 active torsions:
REMARK  status: ('A' for Active; 'I' for Inactive)
REMARK    1  A    between atoms: C_1  and  O_2
REMARK    2  A    between atoms: O_2  and  C_3
REMARK    3  A    between atoms: C_5  and  C_6
REMARK    4  A    between atoms: C_14  and  N_15
REMARK    5  A    between atoms: C_16  and  C_18
REMARK                            x       y       z     vdW  Elec       q    Type
REMARK                         _______ _______ _______ _____ _____    ______ ____
ROOT
ATOM      1  C   UNL     1       2.559   5.976  19.862  0.00  0.00    +0.000 A 
ATOM      2  C   UNL     1       3.485   5.328  19.016  0.00  0.00    +0.000 A 
ATOM      3  C   UNL     1       4.026   5.943  17.872  0.00  0.00    +0.000 A 
ATOM      4  C   UNL     1       3.590   7.239  17.595  0.00  0.00    +0.000 A 
ATOM      5  C   UNL     1       2.717   7.914  18.454  0.00  0.00    +0.000 A 
ATOM      6  C   UNL     1       2.195   7.308  19.603  0.00  0.00    +0.000 A 
ENDROOT
BRANCH   3   7
ATOM      7  C   UNL     1       5.060   5.274  17.048  0.00  0.00    +0.000 A 
ATOM      8  C   UNL     1       6.387   5.130  17.490  0.00  0.00    +0.000 A 
ATOM      9  C   UNL     1       7.377   4.589  16.663  0.00  0.00    +0.000 A 
ATOM     10  C   UNL     1       7.057   4.156  15.381  0.00  0.00    +0.000 A 
ATOM     11  C   UNL     1       5.745   4.251  14.930  0.00  0.00    +0.000 A 
ATOM     12  C   UNL     1       4.762   4.807  15.753  0.00  0.00    +0.000 A 
ENDBRANCH   3   7
BRANCH   6  13
ATOM     13  N   UNL     1       1.348   8.023  20.502  0.00  0.00    +0.000 N 
ATOM     14  C   UNL     1       0.851   9.296  20.270  0.00  0.00    +0.000 C 
ATOM     15  O   UNL     1       0.944   9.897  19.201  0.00  0.00    +0.000 OA
ATOM     16  H   UNL     1       1.069   7.538  21.355  0.00  0.00    +0.000 HD
BRANCH  14  17
ATOM     17  C   UNL     1       0.132   9.959  21.348  0.00  0.00    +0.000 A 
ATOM     18  C   UNL     1       0.274   9.614  22.710  0.00  0.00    +0.000 A 
ATOM     19  N   UNL     1      -0.467  10.353  23.529  0.00  0.00    +0.000 NA
ATOM     20  N   UNL     1      -1.122  11.195  22.703  0.00  0.00    +0.000 N 
ATOM     21  C   UNL     1      -2.014  12.193  23.075  0.00  0.00    +0.000 A 
ATOM     22  C   UNL     1      -2.619  12.936  22.140  0.00  0.00    +0.000 A 
ATOM     23  C   UNL     1      -2.268  12.596  20.736  0.00  0.00    +0.000 A 
ATOM     24  N   UNL     1      -1.416  11.690  20.346  0.00  0.00    +0.000 NA
ATOM     25  C   UNL     1      -0.813  10.970  21.348  0.00  0.00    +0.000 A 
ENDBRANCH  14  17
ENDBRANCH   6  13
BRANCH   1  27
ATOM     26  C   UNL     1       1.901   3.926  20.848  0.00  0.00    +0.000 C 
ATOM     27  O   UNL     1       1.998   5.351  20.955  0.00  0.00    +0.000 OA
ENDBRANCH   1  27
TORSDOF 4
ENDMDL
MODEL 3
REMARK VINA RESULT:      -7.9      1.386      2.099
REMARK  Name = 
REMARK  5 active torsions:
REMARK  status: ('A' for Active; 'I' for Inactive)
REMARK    1  A    between atoms: C_1  and  O_2
REMARK    2  A    between atoms: O_2  and  C_3
REMARK    3  A    between atoms: C_5  and  C_6
REMARK    4  A    between atoms: C_14  and  N_15
REMARK    5  A    between atoms: C_16  and  C_18
REMARK                            x       y       z     vdW  Elec       q    Type
REMARK                         _______ _______ _______ _____ _____    ______ ____
ROOT
ATOM      1  C   UNL     1       2.313   7.040  19.507  0.00  0.00    +0.000 A 
ATOM      2  C   UNL     1       3.331   6.236  18.951  0.00  0.00    +0.000 A 
ATOM      3  C   UNL     1       4.023   6.592  17.780  0.00  0.00    +0.000 A 
ATOM      4  C   UNL     1       3.645   7.789  17.170  0.00  0.00    +0.000 A 
ATOM      5  C   UNL     1       2.678   8.623  17.739  0.00  0.00    +0.000 A 
ATOM      6  C   UNL     1       2.003   8.278  18.916  0.00  0.00    +0.000 A 
ENDROOT
BRANCH   3   7
ATOM      7  C   UNL     1       5.146   5.775  17.263  0.00  0.00    +0.000 A 
ATOM      8  C   UNL     1       6.193   5.336  18.094  0.00  0.00    +0.000 A 
ATOM      9  C   UNL     1       7.298   4.653  17.576  0.00  0.00    +0.000 A 
ATOM     10  C   UNL     1       7.369   4.368  16.217  0.00  0.00    +0.000 A 
ATOM     11  C   UNL     1       6.331   4.755  15.377  0.00  0.00    +0.000 A 
ATOM     12  C   UNL     1       5.236   5.452  15.895  0.00  0.00    +0.000 A 
ENDBRANCH   3   7
BRANCH   6  13
ATOM     13  N   UNL     1       1.058   9.160  19.519  0.00  0.00    +0.000 N 
ATOM     14  C   UNL     1       0.101   9.883  18.823  0.00  0.00    +0.000 C 
ATOM     15  O   UNL     1      -0.154   9.732  17.630  0.00  0.00    +0.000 OA
ATOM     16  H   UNL     1       1.075   9.227  20.536  0.00  0.00    +0.000 HD
BRANCH  14  17
ATOM     17  C   UNL     1      -0.688  10.862  19.556  0.00  0.00    +0.000 A 
ATOM     18  C   UNL     1      -1.334  11.959  18.946  0.00  0.00    +0.000 A 
ATOM     19  N   UNL     1      -2.010  12.723  19.797  0.00  0.00    +0.000 NA
ATOM     20  N   UNL     1      -1.801  12.137  20.994  0.00  0.00    +0.000 N 
ATOM     21  C   UNL     1      -2.319  12.545  22.218  0.00  0.00    +0.000 A 
ATOM     22  C   UNL     1      -2.001  11.882  23.337  0.00  0.00    +0.000 A 
ATOM     23  C   UNL     1      -1.076  10.732  23.150  0.00  0.00    +0.000 A 
ATOM     24  N   UNL     1      -0.593  10.299  22.019  0.00  0.00    +0.000 NA
ATOM     25  C   UNL     1      -0.967  11.007  20.903  0.00  0.00    +0.000 A 
ENDBRANCH  14  17
ENDBRANCH   6  13
BRANCH   1  27
ATOM     26  C   UNL     1       1.568   5.252  20.868  0.00  0.00    +0.000 C 
ATOM     27  O   UNL     1       1.606   6.664  20.629  0.00  0.00    +0.000 OA
ENDBRANCH   1  27
TORSDOF 4
ENDMDL
MODEL 4
REMARK VINA RESULT:      -7.8      2.911      3.932
REMARK  Name = 
REMARK  5 active torsions:
REMARK  status: ('A' for Active; 'I' for Inactive)
REMARK    1  A    between atoms: C_1  and  O_2
REMARK    2  A    between atoms: O_2  and  C_3
REMARK    3  A    between atoms: C_5  and  C_6
REMARK    4  A    between atoms: C_14  and  N_15
REMARK    5  A    between atoms: C_16  and  C_18
REMARK                            x       y       z     vdW  Elec       q    Type
REMARK                         _______ _______ _______ _____ _____    ______ ____
ROOT
ATOM      1  C   UNL     1       1.634   8.097  20.190  0.00  0.00    +0.000 A 
ATOM      2  C   UNL     1       1.941   6.723  20.083  0.00  0.00    +0.000 A 
ATOM      3  C   UNL     1       2.338   6.128  18.872  0.00  0.00    +0.000 A 
ATOM      4  C   UNL     1       2.404   6.965  17.756  0.00  0.00    +0.000 A 
ATOM      5  C   UNL     1       2.157   8.337  17.860  0.00  0.00    +0.000 A 
ATOM      6  C   UNL     1       1.782   8.932  19.070  0.00  0.00    +0.000 A 
ENDROOT
BRANCH   3   7
ATOM      7  C   UNL     1       2.738   4.703  18.802  0.00  0.00    +0.000 A 
ATOM      8  C   UNL     1       1.974   3.748  18.106  0.00  0.00    +0.000 A 
ATOM      9  C   UNL     1       2.305   2.389  18.132  0.00  0.00    +0.000 A 
ATOM     10  C   UNL     1       3.425   1.957  18.834  0.00  0.00    +0.000 A 
ATOM     11  C   UNL     1       4.221   2.882  19.500  0.00  0.00    +0.000 A 
ATOM     12  C   UNL     1       3.878   4.237  19.485  0.00  0.00    +0.000 A 
ENDBRANCH   3   7
BRANCH   6  13
ATOM     13  N   UNL     1       1.586  10.342  19.177  0.00  0.00    +0.000 N 
ATOM     14  C   UNL     1       0.446  11.012  18.759  0.00  0.00    +0.000 C 
ATOM     15  O   UNL     1      -0.591  10.462  18.395  0.00  0.00    +0.000 OA
ATOM     16  H   UNL     1       2.328  10.876  19.627  0.00  0.00    +0.000 HD
BRANCH  14  17
ATOM     17  C   UNL     1       0.456  12.467  18.787  0.00  0.00    +0.000 A 
ATOM     18  C   UNL     1      -0.700  13.252  18.987  0.00  0.00    +0.000 A 
ATOM     19  N   UNL     1      -0.465  14.560  18.988  0.00  0.00    +0.000 NA
ATOM     20  N   UNL     1       0.864  14.650  18.772  0.00  0.00    +0.000 N 
ATOM     21  C   UNL     1       1.615  15.818  18.706  0.00  0.00    +0.000 A 
ATOM     22  C   UNL     1       2.927  15.759  18.452  0.00  0.00    +0.000 A 
ATOM     23  C   UNL     1       3.471  14.391  18.247  0.00  0.00    +0.000 A 
ATOM     24  N   UNL     1       2.810  13.271  18.330  0.00  0.00    +0.000 NA
ATOM     25  C   UNL     1       1.470  13.391  18.609  0.00  0.00    +0.000 A 
ENDBRANCH  14  17
ENDBRANCH   6  13
BRANCH   1  27
ATOM     26  C   UNL     1      -0.205   8.539  21.615  0.00  0.00    +0.000 C 
ATOM     27  O   UNL     1       1.201   8.664  21.369  0.00  0.00    +0.000 OA
ENDBRANCH   1  27
TORSDOF 4
ENDMDL
MODEL 5
REMARK VINA RESULT:      -7.8      2.253      9.088
REMARK  Name = 
REMARK  5 active torsions:
REMARK  status: ('A' for Active; 'I' for Inactive)
REMARK    1  A    between atoms: C_1  and  O_2
REMARK    2  A    between atoms: O_2  and  C_3
REMARK    3  A    between atoms: C_5  and  C_6
REMARK    4  A    between atoms: C_14  and  N_15
REMARK    5  A    between atoms: C_16  and  C_18
REMARK                            x       y       z     vdW  Elec       q    Type
REMARK                         _______ _______ _______ _____ _____    ______ ____
ROOT
ATOM      1  C   UNL     1       0.468   9.678  19.620  0.00  0.00    +0.000 A 
ATOM      2  C   UNL     1      -0.254  10.688  20.292  0.00  0.00    +0.000 A 
ATOM      3  C   UNL     1      -0.287  10.790  21.694  0.00  0.00    +0.000 A 
ATOM      4  C   UNL     1       0.425   9.825  22.408  0.00  0.00    +0.000 A 
ATOM      5  C   UNL     1       1.190   8.853  21.756  0.00  0.00    +0.000 A 
ATOM      6  C   UNL     1       1.238   8.764  20.359  0.00  0.00    +0.000 A 
ENDROOT
BRANCH   3   7
ATOM      7  C   UNL     1      -0.981  11.909  22.374  0.00  0.00    +0.000 A 
ATOM      8  C   UNL     1      -0.456  13.214  22.388  0.00  0.00    +0.000 A 
ATOM      9  C   UNL     1      -1.067  14.238  23.118  0.00  0.00    +0.000 A 
ATOM     10  C   UNL     1      -2.234  13.988  23.832  0.00  0.00    +0.000 A 
ATOM     11  C   UNL     1      -2.797  12.717  23.807  0.00  0.00    +0.000 A 
ATOM     12  C   UNL     1      -2.175  11.692  23.089  0.00  0.00    +0.000 A 
ENDBRANCH   3   7
BRANCH   6  13
ATOM     13  N   UNL     1       2.064   7.803  19.702  0.00  0.00    +0.000 N 
ATOM     14  C   UNL     1       2.128   6.460  20.039  0.00  0.00    +0.000 C 
ATOM     15  O   UNL     1       1.369   5.903  20.829  0.00  0.00    +0.000 OA
ATOM     16  H   UNL     1       2.614   8.135  18.910  0.00  0.00    +0.000 HD
BRANCH  14  17
ATOM     17  C   UNL     1       3.133   5.636  19.385  0.00  0.00    +0.000 A 
ATOM     18  C   UNL     1       3.512   4.355  19.843  0.00  0.00    +0.000 A 
ATOM     19  N   UNL     1       4.440   3.771  19.092  0.00  0.00    +0.000 NA
ATOM     20  N   UNL     1       4.694   4.679  18.127  0.00  0.00    +0.000 N 
ATOM     21  C   UNL     1       5.585   4.536  17.069  0.00  0.00    +0.000 A 
ATOM     22  C   UNL     1       5.761   5.537  16.199  0.00  0.00    +0.000 A 
ATOM     23  C   UNL     1       4.957   6.759  16.470  0.00  0.00    +0.000 A 
ATOM     24  N   UNL     1       4.091   6.923  17.430  0.00  0.00    +0.000 NA
ATOM     25  C   UNL     1       3.940   5.856  18.282  0.00  0.00    +0.000 A 
ENDBRANCH  14  17
ENDBRANCH   6  13
BRANCH   1  27
ATOM     26  C   UNL     1      -0.757   9.973  17.615  0.00  0.00    +0.000 C 
ATOM     27  O   UNL     1       0.459   9.555  18.247  0.00  0.00    +0.000 OA
ENDBRANCH   1  27
TORSDOF 4
ENDMDL
MODEL 6
REMARK VINA RESULT:      -7.8      2.103      3.800
REMARK  Name = 
REMARK  5 active torsions:
REMARK  status: ('A' for Active; 'I' for Inactive)
REMARK    1  A    between atoms: C_1  and  O_2
REMARK    2  A    between atoms: O_2  and  C_3
REMARK    3  A    between atoms: C_5  and  C_6
REMARK    4  A    between atoms: C_14  and  N_15
REMARK    5  A    between atoms: C_16  and  C_18
REMARK                            x       y       z     vdW  Elec       q    Type
REMARK                         _______ _______ _______ _____ _____    ______ ____
ROOT
ATOM      1  C   UNL     1       0.459   9.961  19.179  0.00  0.00    +0.000 A 
ATOM      2  C   UNL     1       1.267   9.052  18.463  0.00  0.00    +0.000 A 
ATOM      3  C   UNL     1       1.954   7.995  19.086  0.00  0.00    +0.000 A 
ATOM      4  C   UNL     1       1.813   7.888  20.471  0.00  0.00    +0.000 A 
ATOM      5  C   UNL     1       0.971   8.746  21.186  0.00  0.00    +0.000 A 
ATOM      6  C   UNL     1       0.272   9.785  20.561  0.00  0.00    +0.000 A 
ENDROOT
BRANCH   3   7
ATOM      7  C   UNL     1       2.727   7.003  18.302  0.00  0.00    +0.000 A 
ATOM      8  C   UNL     1       2.411   5.633  18.315  0.00  0.00    +0.000 A 
ATOM      9  C   UNL     1       3.209   4.694  17.653  0.00  0.00    +0.000 A 
ATOM     10  C   UNL     1       4.329   5.108  16.940  0.00  0.00    +0.000 A 
ATOM     11  C   UNL     1       4.645   6.460  16.878  0.00  0.00    +0.000 A 
ATOM     12  C   UNL     1       3.855   7.394  17.554  0.00  0.00    +0.000 A 
ENDBRANCH   3   7
BRANCH   6  13
ATOM     13  N   UNL     1      -0.627  10.621  21.290  0.00  0.00    +0.000 N 
ATOM     14  C   UNL     1      -0.280  11.833  21.867  0.00  0.00    +0.000 C 
ATOM     15  O   UNL     1       0.790  12.410  21.687  0.00  0.00    +0.000 OA
ATOM     16  H   UNL     1      -1.595  10.310  21.353  0.00  0.00    +0.000 HD
BRANCH  14  17
ATOM     17  C   UNL     1      -1.261  12.496  22.714  0.00  0.00    +0.000 A 
ATOM     18  C   UNL     1      -2.506  11.925  23.061  0.00  0.00    +0.000 A 
ATOM     19  N   UNL     1      -3.245  12.695  23.852  0.00  0.00    +0.000 NA
ATOM     20  N   UNL     1      -2.491  13.801  24.025  0.00  0.00    +0.000 N 
ATOM     21  C   UNL     1      -2.812  14.910  24.799  0.00  0.00    +0.000 A 
ATOM     22  C   UNL     1      -1.978  15.955  24.854  0.00  0.00    +0.000 A 
ATOM     23  C   UNL     1      -0.742  15.821  24.038  0.00  0.00    +0.000 A 
ATOM     24  N   UNL     1      -0.389  14.789  23.325  0.00  0.00    +0.000 NA
ATOM     25  C   UNL     1      -1.276  13.740  23.318  0.00  0.00    +0.000 A 
ENDBRANCH  14  17
ENDBRANCH   6  13
BRANCH   1  27
ATOM     26  C   UNL     1      -1.363  10.679  17.848  0.00  0.00    +0.000 C 
ATOM     27  O   UNL     1      -0.175  11.023  18.570  0.00  0.00    +0.000 OA
ENDBRANCH   1  27
TORSDOF 4
ENDMDL
MODEL 7
REMARK VINA RESULT:      -7.8      2.318      9.129
REMARK  Name = 
REMARK  5 active torsions:
REMARK  status: ('A' for Active; 'I' for Inactive)
REMARK    1  A    between atoms: C_1  and  O_2
REMARK    2  A    between atoms: O_2  and  C_3
REMARK    3  A    between atoms: C_5  and  C_6
REMARK    4  A    between atoms: C_14  and  N_15
REMARK    5  A    between atoms: C_16  and  C_18
REMARK                            x       y       z     vdW  Elec       q    Type
REMARK                         _______ _______ _______ _____ _____    ______ ____
ROOT
ATOM      1  C   UNL     1       0.913   9.744  19.561  0.00  0.00    +0.000 A 
ATOM      2  C   UNL     1       0.179  10.726  20.261  0.00  0.00    +0.000 A 
ATOM      3  C   UNL     1      -0.169  10.588  21.617  0.00  0.00    +0.000 A 
ATOM      4  C   UNL     1       0.234   9.411  22.249  0.00  0.00    +0.000 A 
ATOM      5  C   UNL     1       1.009   8.455  21.584  0.00  0.00    +0.000 A 
ATOM      6  C   UNL     1       1.373   8.603  20.240  0.00  0.00    +0.000 A 
ENDROOT
BRANCH   3   7
ATOM      7  C   UNL     1      -0.865  11.670  22.353  0.00  0.00    +0.000 A 
ATOM      8  C   UNL     1      -2.036  11.433  23.095  0.00  0.00    +0.000 A 
ATOM      9  C   UNL     1      -2.740  12.479  23.701  0.00  0.00    +0.000 A 
ATOM     10  C   UNL     1      -2.273  13.785  23.601  0.00  0.00    +0.000 A 
ATOM     11  C   UNL     1      -1.098  14.045  22.906  0.00  0.00    +0.000 A 
ATOM     12  C   UNL     1      -0.406  13.000  22.288  0.00  0.00    +0.000 A 
ENDBRANCH   3   7
BRANCH   6  13
ATOM     13  N   UNL     1       2.209   7.649  19.586  0.00  0.00    +0.000 N 
ATOM     14  C   UNL     1       2.258   6.300  19.900  0.00  0.00    +0.000 C 
ATOM     15  O   UNL     1       1.478   5.733  20.663  0.00  0.00    +0.000 OA
ATOM     16  H   UNL     1       2.779   7.992  18.813  0.00  0.00    +0.000 HD
BRANCH  14  17
ATOM     17  C   UNL     1       3.274   5.482  19.256  0.00  0.00    +0.000 A 
ATOM     18  C   UNL     1       3.672   4.212  19.730  0.00  0.00    +0.000 A 
ATOM     19  N   UNL     1       4.607   3.631  18.985  0.00  0.00    +0.000 NA
ATOM     20  N   UNL     1       4.847   4.530  18.008  0.00  0.00    +0.000 N 
ATOM     21  C   UNL     1       5.738   4.386  16.951  0.00  0.00    +0.000 A 
ATOM     22  C   UNL     1       5.899   5.379  16.068  0.00  0.00    +0.000 A 
ATOM     23  C   UNL     1       5.078   6.593  16.324  0.00  0.00    +0.000 A 
ATOM     24  N   UNL     1       4.211   6.756  17.283  0.00  0.00    +0.000 NA
ATOM     25  C   UNL     1       4.076   5.699  18.149  0.00  0.00    +0.000 A 
ENDBRANCH  14  17
ENDBRANCH   6  13
BRANCH   1  27
ATOM     26  C   UNL     1       2.131  10.915  17.902  0.00  0.00    +0.000 C 
ATOM     27  O   UNL     1       1.211   9.864  18.220  0.00  0.00    +0.000 OA
ENDBRANCH   1  27
TORSDOF 4
ENDMDL
MODEL 8
REMARK VINA RESULT:      -7.7      1.812      3.203
REMARK  Name = 
REMARK  5 active torsions:
REMARK  status: ('A' for Active; 'I' for Inactive)
REMARK    1  A    between atoms: C_1  and  O_2
REMARK    2  A    between atoms: O_2  and  C_3
REMARK    3  A    between atoms: C_5  and  C_6
REMARK    4  A    between atoms: C_14  and  N_15
REMARK    5  A    between atoms: C_16  and  C_18
REMARK                            x       y       z     vdW  Elec       q    Type
REMARK                         _______ _______ _______ _____ _____    ______ ____
ROOT
ATOM      1  C   UNL     1       1.156   8.912  20.595  0.00  0.00    +0.000 A 
ATOM      2  C   UNL     1       1.882   7.883  19.958  0.00  0.00    +0.000 A 
ATOM      3  C   UNL     1       2.154   7.889  18.578  0.00  0.00    +0.000 A 
ATOM      4  C   UNL     1       1.654   8.968  17.847  0.00  0.00    +0.000 A 
ATOM      5  C   UNL     1       0.981  10.022  18.473  0.00  0.00    +0.000 A 
ATOM      6  C   UNL     1       0.729  10.025  19.850  0.00  0.00    +0.000 A 
ENDROOT
BRANCH   3   7
ATOM      7  C   UNL     1       2.991   6.842  17.947  0.00  0.00    +0.000 A 
ATOM      8  C   UNL     1       2.665   5.476  18.031  0.00  0.00    +0.000 A 
ATOM      9  C   UNL     1       3.516   4.490  17.520  0.00  0.00    +0.000 A 
ATOM     10  C   UNL     1       4.702   4.849  16.888  0.00  0.00    +0.000 A 
ATOM     11  C   UNL     1       5.032   6.193  16.757  0.00  0.00    +0.000 A 
ATOM     12  C   UNL     1       4.188   7.175  17.283  0.00  0.00    +0.000 A 
ENDBRANCH   3   7
BRANCH   6  13
ATOM     13  N   UNL     1       0.091  11.131  20.488  0.00  0.00    +0.000 N 
ATOM     14  C   UNL     1       0.760  12.194  21.073  0.00  0.00    +0.000 C 
ATOM     15  O   UNL     1       1.968  12.396  20.976  0.00  0.00    +0.000 OA
ATOM     16  H   UNL     1      -0.929  11.144  20.473  0.00  0.00    +0.000 HD
BRANCH  14  17
ATOM     17  C   UNL     1      -0.021  13.166  21.824  0.00  0.00    +0.000 A 
ATOM     18  C   UNL     1       0.364  14.515  21.993  0.00  0.00    +0.000 A 
ATOM     19  N   UNL     1      -0.499  15.233  22.704  0.00  0.00    +0.000 NA
ATOM     20  N   UNL     1      -1.466  14.349  23.027  0.00  0.00    +0.000 N 
ATOM     21  C   UNL     1      -2.620  14.614  23.755  0.00  0.00    +0.000 A 
ATOM     22  C   UNL     1      -3.483  13.628  24.030  0.00  0.00    +0.000 A 
ATOM     23  C   UNL     1      -3.096  12.288  23.513  0.00  0.00    +0.000 A 
ATOM     24  N   UNL     1      -2.042  12.003  22.801  0.00  0.00    +0.000 NA
ATOM     25  C   UNL     1      -1.202  13.057  22.537  0.00  0.00    +0.000 A 
ENDBRANCH  14  17
ENDBRANCH   6  13
BRANCH   1  27
ATOM     26  C   UNL     1      -0.501   8.521  22.240  0.00  0.00    +0.000 C 
ATOM     27  O   UNL     1       0.853   8.877  21.939  0.00  0.00    +0.000 OA
ENDBRANCH   1  27
TORSDOF 4
ENDMDL
MODEL 9
REMARK VINA RESULT:      -7.7      1.788      3.063
REMARK  Name = 
REMARK  5 active torsions:
REMARK  status: ('A' for Active; 'I' for Inactive)
REMARK    1  A    between atoms: C_1  and  O_2
REMARK    2  A    between atoms: O_2  and  C_3
REMARK    3  A    between atoms: C_5  and  C_6
REMARK    4  A    between atoms: C_14  and  N_15
REMARK    5  A    between atoms: C_16  and  C_18
REMARK                            x       y       z     vdW  Elec       q    Type
REMARK                         _______ _______ _______ _____ _____    ______ ____
ROOT
ATOM      1  C   UNL     1       1.039   8.863  20.506  0.00  0.00    +0.000 A 
ATOM      2  C   UNL     1       1.800   7.836  19.907  0.00  0.00    +0.000 A 
ATOM      3  C   UNL     1       2.233   7.895  18.570  0.00  0.00    +0.000 A 
ATOM      4  C   UNL     1       1.860   9.026  17.842  0.00  0.00    +0.000 A 
ATOM      5  C   UNL     1       1.156  10.076  18.438  0.00  0.00    +0.000 A 
ATOM      6  C   UNL     1       0.742  10.026  19.774  0.00  0.00    +0.000 A 
ENDROOT
BRANCH   3   7
ATOM      7  C   UNL     1       3.102   6.845  17.989  0.00  0.00    +0.000 A 
ATOM      8  C   UNL     1       4.264   7.158  17.261  0.00  0.00    +0.000 A 
ATOM      9  C   UNL     1       5.020   6.163  16.631  0.00  0.00    +0.000 A 
ATOM     10  C   UNL     1       4.646   4.828  16.738  0.00  0.00    +0.000 A 
ATOM     11  C   UNL     1       3.524   4.485  17.482  0.00  0.00    +0.000 A 
ATOM     12  C   UNL     1       2.761   5.482  18.097  0.00  0.00    +0.000 A 
ENDBRANCH   3   7
BRANCH   6  13
ATOM     13  N   UNL     1       0.071  11.125  20.388  0.00  0.00    +0.000 N 
ATOM     14  C   UNL     1       0.708  12.179  21.025  0.00  0.00    +0.000 C 
ATOM     15  O   UNL     1       1.921  12.378  20.999  0.00  0.00    +0.000 OA
ATOM     16  H   UNL     1      -0.946  11.142  20.316  0.00  0.00    +0.000 HD
BRANCH  14  17
ATOM     17  C   UNL     1      -0.111  13.144  21.742  0.00  0.00    +0.000 A 
ATOM     18  C   UNL     1       0.201  14.519  21.834  0.00  0.00    +0.000 A 
ATOM     19  N   UNL     1      -0.687  15.224  22.527  0.00  0.00    +0.000 NA
ATOM     20  N   UNL     1      -1.598  14.307  22.914  0.00  0.00    +0.000 N 
ATOM     21  C   UNL     1      -2.751  14.545  23.652  0.00  0.00    +0.000 A 
ATOM     22  C   UNL     1      -3.552  13.529  23.995  0.00  0.00    +0.000 A 
ATOM     23  C   UNL     1      -3.101  12.187  23.538  0.00  0.00    +0.000 A 
ATOM     24  N   UNL     1      -2.046  11.924  22.819  0.00  0.00    +0.000 NA
ATOM     25  C   UNL     1      -1.270  13.007  22.484  0.00  0.00    +0.000 A 
ENDBRANCH  14  17
ENDBRANCH   6  13
BRANCH   1  27
ATOM     26  C   UNL     1       1.535   9.138  22.805  0.00  0.00    +0.000 C 
ATOM     27  O   UNL     1       0.578   8.778  21.802  0.00  0.00    +0.000 OA
ENDBRANCH   1  27
TORSDOF 4
ENDMDL
