MODEL 1
REMARK VINA RESULT:      -7.6      0.000      0.000
REMARK  Name = 
REMARK  4 active torsions:
REMARK  status: ('A' for Active; 'I' for Inactive)
REMARK    1  A    between atoms: C_1  and  C_2
REMARK    2  A    between atoms: C_2  and  C_3
REMARK    3  A    between atoms: C_2  and  C_4
REMARK    4  A    between atoms: C_15  and  C_16
REMARK                            x       y       z     vdW  Elec       q    Type
REMARK                         _______ _______ _______ _____ _____    ______ ____
ROOT
ATOM      1  C   UNL     1      -2.336  12.955  21.949  0.00  0.00    +0.000 A 
ATOM      2  C   UNL     1      -2.170  12.189  23.111  0.00  0.00    +0.000 A 
ATOM      3  C   UNL     1      -1.346  11.066  23.103  0.00  0.00    +0.000 A 
ATOM      4  C   UNL     1      -0.677  10.702  21.928  0.00  0.00    +0.000 A 
ATOM      5  C   UNL     1      -0.798  11.452  20.768  0.00  0.00    +0.000 A 
ATOM      6  C   UNL     1      -1.627  12.587  20.792  0.00  0.00    +0.000 A 
ATOM      7  C   UNL     1      -0.120  11.106  19.497  0.00  0.00    +0.000 C 
ATOM      8  O   UNL     1      -0.261  11.849  18.528  0.00  0.00    +0.000 OA
ATOM      9  C   UNL     1       0.715   9.893  19.338  0.00  0.00    +0.000 A 
ATOM     10  C   UNL     1       1.284   9.636  18.079  0.00  0.00    +0.000 A 
ATOM     11  C   UNL     1       2.085   8.506  17.862  0.00  0.00    +0.000 A 
ATOM     12  C   UNL     1       2.334   7.609  18.906  0.00  0.00    +0.000 A 
ATOM     13  C   UNL     1       1.766   7.859  20.161  0.00  0.00    +0.000 A 
ATOM     14  C   UNL     1       0.968   8.995  20.362  0.00  0.00    +0.000 A 
ATOM     15  S   UNL     1       0.294   9.251  21.955  0.00  0.00    +0.000 S 
ATOM     16  O   UNL     1       1.413   9.521  22.833  0.00  0.00    +0.000 OA
ATOM     17  O   UNL     1      -0.623   8.152  22.188  0.00  0.00    +0.000 OA
ENDROOT
BRANCH  12  18
ATOM     18  C   UNL     1       3.179   6.389  18.760  0.00  0.00    +0.000 C 
ATOM     19  N   UNL     1       3.534   5.694  19.880  0.00  0.00    +0.000 N 
ATOM     20  O   UNL     1       3.551   6.004  17.658  0.00  0.00    +0.000 OA
ATOM     21  H   UNL     1       3.273   5.922  20.826  0.00  0.00    +0.000 HD
ATOM     22  H   UNL     1       4.102   4.868  19.737  0.00  0.00    +0.000 HD
ENDBRANCH  12  18
BRANCH   1  24
ATOM     23  C   UNL     1      -4.746  13.633  21.732  0.00  0.00    +0.000 C 
ATOM     24  C   UNL     1      -3.304  14.126  21.896  0.00  0.00    +0.000 C 
ATOM     25  C   UNL     1      -3.179  15.045  23.112  0.00  0.00    +0.000 C 
ENDBRANCH   1  24
TORSDOF 2
ENDMDL
MODEL 2
REMARK VINA RESULT:      -7.4      2.929      7.531
REMARK  Name = 
REMARK  4 active torsions:
REMARK  status: ('A' for Active; 'I' for Inactive)
REMARK    1  A    between atoms: C_1  and  C_2
REMARK    2  A    between atoms: C_2  and  C_3
REMARK    3  A    between atoms: C_2  and  C_4
REMARK    4  A    between atoms: C_15  and  C_16
REMARK                            x       y       z     vdW  Elec       q    Type
REMARK                         _______ _______ _______ _____ _____    ______ ____
ROOT
ATOM      1  C   UNL     1       2.414   7.306  19.169  0.00  0.00    +0.000 A 
ATOM      2  C   UNL     1       2.240   7.986  17.956  0.00  0.00    +0.000 A 
ATOM      3  C   UNL     1       1.476   9.150  17.904  0.00  0.00    +0.000 A 
ATOM      4  C   UNL     1       0.882   9.646  19.071  0.00  0.00    +0.000 A 
ATOM      5  C   UNL     1       1.055   9.013  20.292  0.00  0.00    +0.000 A 
ATOM      6  C   UNL     1       1.833   7.843  20.332  0.00  0.00    +0.000 A 
ATOM      7  C   UNL     1       0.441   9.490  21.554  0.00  0.00    +0.000 C 
ATOM      8  O   UNL     1       0.677   8.881  22.595  0.00  0.00    +0.000 OA
ATOM      9  C   UNL     1      -0.457  10.666  21.614  0.00  0.00    +0.000 A 
ATOM     10  C   UNL     1      -1.018  11.013  22.854  0.00  0.00    +0.000 A 
ATOM     11  C   UNL     1      -1.876  12.115  22.980  0.00  0.00    +0.000 A 
ATOM     12  C   UNL     1      -2.188  12.895  21.861  0.00  0.00    +0.000 A 
ATOM     13  C   UNL     1      -1.634  12.550  20.623  0.00  0.00    +0.000 A 
ATOM     14  C   UNL     1      -0.777  11.445  20.514  0.00  0.00    +0.000 A 
ATOM     15  S   UNL     1      -0.115  11.072  18.939  0.00  0.00    +0.000 S 
ATOM     16  O   UNL     1       0.772  12.165  18.600  0.00  0.00    +0.000 OA
ATOM     17  O   UNL     1      -1.243  10.705  18.103  0.00  0.00    +0.000 OA
ENDROOT
BRANCH  12  18
ATOM     18  C   UNL     1      -3.084  14.086  21.911  0.00  0.00    +0.000 C 
ATOM     19  N   UNL     1      -3.361  14.752  20.752  0.00  0.00    +0.000 N 
ATOM     20  O   UNL     1      -3.574  14.465  22.967  0.00  0.00    +0.000 OA
ATOM     21  H   UNL     1      -3.018  14.513  19.836  0.00  0.00    +0.000 HD
ATOM     22  H   UNL     1      -3.979  15.550  20.829  0.00  0.00    +0.000 HD
ENDBRANCH  12  18
BRANCH   1  24
ATOM     23  C   UNL     1       2.478   5.032  20.235  0.00  0.00    +0.000 C 
ATOM     24  C   UNL     1       3.156   5.981  19.242  0.00  0.00    +0.000 C 
ATOM     25  C   UNL     1       3.308   5.318  17.873  0.00  0.00    +0.000 C 
ENDBRANCH   1  24
TORSDOF 2
ENDMDL
MODEL 3
REMARK VINA RESULT:      -7.4      0.783      1.070
REMARK  Name = 
REMARK  4 active torsions:
REMARK  status: ('A' for Active; 'I' for Inactive)
REMARK    1  A    between atoms: C_1  and  C_2
REMARK    2  A    between atoms: C_2  and  C_3
REMARK    3  A    between atoms: C_2  and  C_4
REMARK    4  A    between atoms: C_15  and  C_16
REMARK                            x       y       z     vdW  Elec       q    Type
REMARK                         _______ _______ _______ _____ _____    ______ ____
ROOT
ATOM      1  C   UNL     1      -2.116  12.995  21.899  0.00  0.00    +0.000 A 
ATOM      2  C   UNL     1      -2.025  12.187  23.041  0.00  0.00    +0.000 A 
ATOM      3  C   UNL     1      -1.250  11.030  23.026  0.00  0.00    +0.000 A 
ATOM      4  C   UNL     1      -0.554  10.673  21.864  0.00  0.00    +0.000 A 
ATOM      5  C   UNL     1      -0.601  11.463  20.726  0.00  0.00    +0.000 A 
ATOM      6  C   UNL     1      -1.382  12.631  20.756  0.00  0.00    +0.000 A 
ATOM      7  C   UNL     1       0.108  11.126  19.468  0.00  0.00    +0.000 C 
ATOM      8  O   UNL     1       0.033  11.904  18.519  0.00  0.00    +0.000 OA
ATOM      9  C   UNL     1       0.896   9.884  19.300  0.00  0.00    +0.000 A 
ATOM     10  C   UNL     1       1.498   9.640  18.054  0.00  0.00    +0.000 A 
ATOM     11  C   UNL     1       2.258   8.483  17.830  0.00  0.00    +0.000 A 
ATOM     12  C   UNL     1       2.430   7.545  18.853  0.00  0.00    +0.000 A 
ATOM     13  C   UNL     1       1.828   7.781  20.094  0.00  0.00    +0.000 A 
ATOM     14  C   UNL     1       1.072   8.944  20.303  0.00  0.00    +0.000 A 
ATOM     15  S   UNL     1       0.352   9.182  21.879  0.00  0.00    +0.000 S 
ATOM     16  O   UNL     1       1.448   9.375  22.804  0.00  0.00    +0.000 OA
ATOM     17  O   UNL     1      -0.619   8.116  22.044  0.00  0.00    +0.000 OA
ENDROOT
BRANCH  12  18
ATOM     18  C   UNL     1       3.228   6.294  18.698  0.00  0.00    +0.000 C 
ATOM     19  N   UNL     1       3.991   6.132  17.579  0.00  0.00    +0.000 N 
ATOM     20  O   UNL     1       3.208   5.421  19.558  0.00  0.00    +0.000 OA
ATOM     21  H   UNL     1       4.082   6.792  16.824  0.00  0.00    +0.000 HD
ATOM     22  H   UNL     1       4.522   5.272  17.517  0.00  0.00    +0.000 HD
ENDBRANCH  12  18
BRANCH   1  24
ATOM     23  C   UNL     1      -2.315  15.405  21.215  0.00  0.00    +0.000 C 
ATOM     24  C   UNL     1      -3.031  14.208  21.850  0.00  0.00    +0.000 C 
ATOM     25  C   UNL     1      -4.349  13.919  21.130  0.00  0.00    +0.000 C 
ENDBRANCH   1  24
TORSDOF 2
ENDMDL
MODEL 4
REMARK VINA RESULT:      -7.1      3.002      7.223
REMARK  Name = 
REMARK  4 active torsions:
REMARK  status: ('A' for Active; 'I' for Inactive)
REMARK    1  A    between atoms: C_1  and  C_2
REMARK    2  A    between atoms: C_2  and  C_3
REMARK    3  A    between atoms: C_2  and  C_4
REMARK    4  A    between atoms: C_15  and  C_16
REMARK                            x       y       z     vdW  Elec       q    Type
REMARK                         _______ _______ _______ _____ _____    ______ ____
ROOT
ATOM      1  C   UNL     1       2.787   5.847  18.840  0.00  0.00    +0.000 A 
ATOM      2  C   UNL     1       2.371   5.541  20.144  0.00  0.00    +0.000 A 
ATOM      3  C   UNL     1       1.750   6.508  20.931  0.00  0.00    +0.000 A 
ATOM      4  C   UNL     1       1.535   7.792  20.416  0.00  0.00    +0.000 A 
ATOM      5  C   UNL     1       1.909   8.121  19.122  0.00  0.00    +0.000 A 
ATOM      6  C   UNL     1       2.529   7.134  18.336  0.00  0.00    +0.000 A 
ATOM      7  C   UNL     1       1.713   9.466  18.531  0.00  0.00    +0.000 C 
ATOM      8  O   UNL     1       2.048   9.655  17.364  0.00  0.00    +0.000 OA
ATOM      9  C   UNL     1       1.140  10.600  19.292  0.00  0.00    +0.000 A 
ATOM     10  C   UNL     1       1.032  11.845  18.652  0.00  0.00    +0.000 A 
ATOM     11  C   UNL     1       0.498  12.959  19.316  0.00  0.00    +0.000 A 
ATOM     12  C   UNL     1       0.059  12.845  20.639  0.00  0.00    +0.000 A 
ATOM     13  C   UNL     1       0.170  11.607  21.283  0.00  0.00    +0.000 A 
ATOM     14  C   UNL     1       0.705  10.503  20.604  0.00  0.00    +0.000 A 
ATOM     15  S   UNL     1       0.809   8.984  21.464  0.00  0.00    +0.000 S 
ATOM     16  O   UNL     1      -0.553   8.552  21.696  0.00  0.00    +0.000 OA
ATOM     17  O   UNL     1       1.747   9.197  22.550  0.00  0.00    +0.000 OA
ENDROOT
BRANCH  12  18
ATOM     18  C   UNL     1      -0.526  13.978  21.414  0.00  0.00    +0.000 C 
ATOM     19  N   UNL     1      -1.020  15.054  20.737  0.00  0.00    +0.000 N 
ATOM     20  O   UNL     1      -0.572  13.950  22.637  0.00  0.00    +0.000 OA
ATOM     21  H   UNL     1      -1.038  15.168  19.736  0.00  0.00    +0.000 HD
ATOM     22  H   UNL     1      -1.415  15.798  21.300  0.00  0.00    +0.000 HD
ENDBRANCH  12  18
BRANCH   1  24
ATOM     23  C   UNL     1       2.604   3.838  17.342  0.00  0.00    +0.000 C 
ATOM     24  C   UNL     1       3.556   4.847  17.993  0.00  0.00    +0.000 C 
ATOM     25  C   UNL     1       4.433   5.524  16.938  0.00  0.00    +0.000 C 
ENDBRANCH   1  24
TORSDOF 2
ENDMDL
MODEL 5
REMARK VINA RESULT:      -7.0      2.934      7.523
REMARK  Name = 
REMARK  4 active torsions:
REMARK  status: ('A' for Active; 'I' for Inactive)
REMARK    1  A    between atoms: C_1  and  C_2
REMARK    2  A    between atoms: C_2  and  C_3
REMARK    3  A    between atoms: C_2  and  C_4
REMARK    4  A    between atoms: C_15  and  C_16
REMARK                            x       y       z     vdW  Elec       q    Type
REMARK                         _______ _______ _______ _____ _____    ______ ____
ROOT
ATOM      1  C   UNL     1       2.442   7.331  18.827  0.00  0.00    +0.000 A 
ATOM      2  C   UNL     1       2.341   8.178  17.715  0.00  0.00    +0.000 A 
ATOM      3  C   UNL     1       1.644   9.380  17.806  0.00  0.00    +0.000 A 
ATOM      4  C   UNL     1       1.044   9.748  19.017  0.00  0.00    +0.000 A 
ATOM      5  C   UNL     1       1.147   8.947  20.144  0.00  0.00    +0.000 A 
ATOM      6  C   UNL     1       1.859   7.739  20.040  0.00  0.00    +0.000 A 
ATOM      7  C   UNL     1       0.524   9.283  21.446  0.00  0.00    +0.000 C 
ATOM      8  O   UNL     1       0.697   8.527  22.399  0.00  0.00    +0.000 OA
ATOM      9  C   UNL     1      -0.309  10.491  21.647  0.00  0.00    +0.000 A 
ATOM     10  C   UNL     1      -0.886  10.699  22.911  0.00  0.00    +0.000 A 
ATOM     11  C   UNL     1      -1.685  11.823  23.167  0.00  0.00    +0.000 A 
ATOM     12  C   UNL     1      -1.922  12.763  22.160  0.00  0.00    +0.000 A 
ATOM     13  C   UNL     1      -1.353  12.556  20.897  0.00  0.00    +0.000 A 
ATOM     14  C   UNL     1      -0.555  11.429  20.657  0.00  0.00    +0.000 A 
ATOM     15  S   UNL     1       0.131  11.235  19.060  0.00  0.00    +0.000 S 
ATOM     16  O   UNL     1       1.086  12.309  18.892  0.00  0.00    +0.000 OA
ATOM     17  O   UNL     1      -0.990  11.050  18.158  0.00  0.00    +0.000 OA
ENDROOT
BRANCH  12  18
ATOM     18  C   UNL     1      -2.753  13.986  22.352  0.00  0.00    +0.000 C 
ATOM     19  N   UNL     1      -3.944  13.878  23.008  0.00  0.00    +0.000 N 
ATOM     20  O   UNL     1      -2.380  15.076  21.935  0.00  0.00    +0.000 OA
ATOM     21  H   UNL     1      -4.333  13.033  23.396  0.00  0.00    +0.000 HD
ATOM     22  H   UNL     1      -4.474  14.733  23.124  0.00  0.00    +0.000 HD
ENDBRANCH  12  18
BRANCH   1  24
ATOM     23  C   UNL     1       4.528   6.092  18.173  0.00  0.00    +0.000 C 
ATOM     24  C   UNL     1       3.108   5.968  18.735  0.00  0.00    +0.000 C 
ATOM     25  C   UNL     1       3.116   5.227  20.072  0.00  0.00    +0.000 C 
ENDBRANCH   1  24
TORSDOF 2
ENDMDL
MODEL 6
REMARK VINA RESULT:      -7.0      2.213      2.910
REMARK  Name = 
REMARK  4 active torsions:
REMARK  status: ('A' for Active; 'I' for Inactive)
REMARK    1  A    between atoms: C_1  and  C_2
REMARK    2  A    between atoms: C_2  and  C_3
REMARK    3  A    between atoms: C_2  and  C_4
REMARK    4  A    between atoms: C_15  and  C_16
REMARK                            x       y       z     vdW  Elec       q    Type
REMARK                         _______ _______ _______ _____ _____    ______ ____
ROOT
ATOM      1  C   UNL     1       0.238  13.207  19.665  0.00  0.00    +0.000 A 
ATOM      2  C   UNL     1      -0.141  12.960  20.992  0.00  0.00    +0.000 A 
ATOM      3  C   UNL     1       0.057  11.705  21.560  0.00  0.00    +0.000 A 
ATOM      4  C   UNL     1       0.643  10.683  20.803  0.00  0.00    +0.000 A 
ATOM      5  C   UNL     1       1.054  10.900  19.497  0.00  0.00    +0.000 A 
ATOM      6  C   UNL     1       0.854  12.174  18.937  0.00  0.00    +0.000 A 
ATOM      7  C   UNL     1       1.670   9.851  18.649  0.00  0.00    +0.000 C 
ATOM      8  O   UNL     1       2.032  10.146  17.512  0.00  0.00    +0.000 OA
ATOM      9  C   UNL     1       1.859   8.457  19.109  0.00  0.00    +0.000 A 
ATOM     10  C   UNL     1       2.418   7.529  18.214  0.00  0.00    +0.000 A 
ATOM     11  C   UNL     1       2.624   6.193  18.588  0.00  0.00    +0.000 A 
ATOM     12  C   UNL     1       2.274   5.760  19.870  0.00  0.00    +0.000 A 
ATOM     13  C   UNL     1       1.712   6.679  20.764  0.00  0.00    +0.000 A 
ATOM     14  C   UNL     1       1.514   8.012  20.375  0.00  0.00    +0.000 A 
ATOM     15  S   UNL     1       0.813   9.110  21.542  0.00  0.00    +0.000 S 
ATOM     16  O   UNL     1       1.788   9.257  22.601  0.00  0.00    +0.000 OA
ATOM     17  O   UNL     1      -0.533   8.630  21.792  0.00  0.00    +0.000 OA
ENDROOT
BRANCH  12  18
ATOM     18  C   UNL     1       2.466   4.360  20.348  0.00  0.00    +0.000 C 
ATOM     19  N   UNL     1       3.034   3.448  19.507  0.00  0.00    +0.000 N 
ATOM     20  O   UNL     1       2.127   4.025  21.477  0.00  0.00    +0.000 OA
ATOM     21  H   UNL     1       3.354   3.626  18.569  0.00  0.00    +0.000 HD
ATOM     22  H   UNL     1       3.152   2.511  19.873  0.00  0.00    +0.000 HD
ENDBRANCH  12  18
BRANCH   1  24
ATOM     23  C   UNL     1      -1.007  15.383  19.835  0.00  0.00    +0.000 C 
ATOM     24  C   UNL     1      -0.056  14.534  18.985  0.00  0.00    +0.000 C 
ATOM     25  C   UNL     1       1.215  15.314  18.647  0.00  0.00    +0.000 C 
ENDBRANCH   1  24
TORSDOF 2
ENDMDL
MODEL 7
REMARK VINA RESULT:      -7.0      2.671      7.282
REMARK  Name = 
REMARK  4 active torsions:
REMARK  status: ('A' for Active; 'I' for Inactive)
REMARK    1  A    between atoms: C_1  and  C_2
REMARK    2  A    between atoms: C_2  and  C_3
REMARK    3  A    between atoms: C_2  and  C_4
REMARK    4  A    between atoms: C_15  and  C_16
REMARK                            x       y       z     vdW  Elec       q    Type
REMARK                         _______ _______ _______ _____ _____    ______ ____
ROOT
ATOM      1  C   UNL     1       3.028   6.121  18.543  0.00  0.00    +0.000 A 
ATOM      2  C   UNL     1       2.654   5.646  19.807  0.00  0.00    +0.000 A 
ATOM      3  C   UNL     1       1.918   6.450  20.674  0.00  0.00    +0.000 A 
ATOM      4  C   UNL     1       1.546   7.741  20.277  0.00  0.00    +0.000 A 
ATOM      5  C   UNL     1       1.875   8.232  19.024  0.00  0.00    +0.000 A 
ATOM      6  C   UNL     1       2.613   7.408  18.157  0.00  0.00    +0.000 A 
ATOM      7  C   UNL     1       1.515   9.593  18.559  0.00  0.00    +0.000 C 
ATOM      8  O   UNL     1       1.823   9.930  17.418  0.00  0.00    +0.000 OA
ATOM      9  C   UNL     1       0.806  10.571  19.415  0.00  0.00    +0.000 A 
ATOM     10  C   UNL     1       0.544  11.848  18.892  0.00  0.00    +0.000 A 
ATOM     11  C   UNL     1      -0.125  12.820  19.651  0.00  0.00    +0.000 A 
ATOM     12  C   UNL     1      -0.545  12.530  20.952  0.00  0.00    +0.000 A 
ATOM     13  C   UNL     1      -0.282  11.260  21.479  0.00  0.00    +0.000 A 
ATOM     14  C   UNL     1       0.386  10.299  20.707  0.00  0.00    +0.000 A 
ATOM     15  S   UNL     1       0.677   8.730  21.424  0.00  0.00    +0.000 S 
ATOM     16  O   UNL     1      -0.621   8.114  21.599  0.00  0.00    +0.000 OA
ATOM     17  O   UNL     1       1.582   8.955  22.535  0.00  0.00    +0.000 OA
ENDROOT
BRANCH  12  18
ATOM     18  C   UNL     1      -1.267  13.504  21.822  0.00  0.00    +0.000 C 
ATOM     19  N   UNL     1      -1.061  13.463  23.170  0.00  0.00    +0.000 N 
ATOM     20  O   UNL     1      -2.030  14.334  21.344  0.00  0.00    +0.000 OA
ATOM     21  H   UNL     1      -0.449  12.828  23.657  0.00  0.00    +0.000 HD
ATOM     22  H   UNL     1      -1.564  14.145  23.723  0.00  0.00    +0.000 HD
ENDBRANCH  12  18
BRANCH   1  24
ATOM     23  C   UNL     1       5.026   6.179  17.020  0.00  0.00    +0.000 C 
ATOM     24  C   UNL     1       3.915   5.307  17.615  0.00  0.00    +0.000 C 
ATOM     25  C   UNL     1       4.502   4.071  18.298  0.00  0.00    +0.000 C 
ENDBRANCH   1  24
TORSDOF 2
ENDMDL
MODEL 8
REMARK VINA RESULT:      -6.9      3.285      8.379
REMARK  Name = 
REMARK  4 active torsions:
REMARK  status: ('A' for Active; 'I' for Inactive)
REMARK    1  A    between atoms: C_1  and  C_2
REMARK    2  A    between atoms: C_2  and  C_3
REMARK    3  A    between atoms: C_2  and  C_4
REMARK    4  A    between atoms: C_15  and  C_16
REMARK                            x       y       z     vdW  Elec       q    Type
REMARK                         _______ _______ _______ _____ _____    ______ ____
ROOT
ATOM      1  C   UNL     1       4.693   4.254  16.976  0.00  0.00    +0.000 A 
ATOM      2  C   UNL     1       4.263   3.331  17.940  0.00  0.00    +0.000 A 
ATOM      3  C   UNL     1       3.402   3.727  18.960  0.00  0.00    +0.000 A 
ATOM      4  C   UNL     1       2.958   5.055  19.021  0.00  0.00    +0.000 A 
ATOM      5  C   UNL     1       3.343   5.986  18.069  0.00  0.00    +0.000 A 
ATOM      6  C   UNL     1       4.207   5.572  17.041  0.00  0.00    +0.000 A 
ATOM      7  C   UNL     1       2.911   7.404  18.092  0.00  0.00    +0.000 C 
ATOM      8  O   UNL     1       3.277   8.150  17.187  0.00  0.00    +0.000 OA
ATOM      9  C   UNL     1       2.063   7.966  19.168  0.00  0.00    +0.000 A 
ATOM     10  C   UNL     1       1.740   9.333  19.117  0.00  0.00    +0.000 A 
ATOM     11  C   UNL     1       0.941   9.927  20.104  0.00  0.00    +0.000 A 
ATOM     12  C   UNL     1       0.447   9.161  21.165  0.00  0.00    +0.000 A 
ATOM     13  C   UNL     1       0.769   7.800  21.222  0.00  0.00    +0.000 A 
ATOM     14  C   UNL     1       1.569   7.220  20.226  0.00  0.00    +0.000 A 
ATOM     15  S   UNL     1       1.929   5.514  20.354  0.00  0.00    +0.000 S 
ATOM     16  O   UNL     1       0.675   4.816  20.165  0.00  0.00    +0.000 OA
ATOM     17  O   UNL     1       2.726   5.358  21.556  0.00  0.00    +0.000 OA
ENDROOT
BRANCH  12  18
ATOM     18  C   UNL     1      -0.414   9.714  22.250  0.00  0.00    +0.000 C 
ATOM     19  N   UNL     1      -0.437   9.083  23.460  0.00  0.00    +0.000 N 
ATOM     20  O   UNL     1      -1.090  10.720  22.071  0.00  0.00    +0.000 OA
ATOM     21  H   UNL     1       0.088   8.260  23.709  0.00  0.00    +0.000 HD
ATOM     22  H   UNL     1      -1.029   9.495  24.171  0.00  0.00    +0.000 HD
ENDBRANCH  12  18
BRANCH   1  24
ATOM     23  C   UNL     1       5.274   4.394  14.536  0.00  0.00    +0.000 C 
ATOM     24  C   UNL     1       5.711   3.879  15.911  0.00  0.00    +0.000 C 
ATOM     25  C   UNL     1       7.121   4.364  16.251  0.00  0.00    +0.000 C 
ENDBRANCH   1  24
TORSDOF 2
ENDMDL
MODEL 9
REMARK VINA RESULT:      -6.6      1.411      2.840
REMARK  Name = 
REMARK  4 active torsions:
REMARK  status: ('A' for Active; 'I' for Inactive)
REMARK    1  A    between atoms: C_1  and  C_2
REMARK    2  A    between atoms: C_2  and  C_3
REMARK    3  A    between atoms: C_2  and  C_4
REMARK    4  A    between atoms: C_15  and  C_16
REMARK                            x       y       z     vdW  Elec       q    Type
REMARK                         _______ _______ _______ _____ _____    ______ ____
ROOT
ATOM      1  C   UNL     1      -2.433  13.110  22.450  0.00  0.00    +0.000 A 
ATOM      2  C   UNL     1      -2.418  13.673  21.167  0.00  0.00    +0.000 A 
ATOM      3  C   UNL     1      -1.725  13.050  20.131  0.00  0.00    +0.000 A 
ATOM      4  C   UNL     1      -1.044  11.850  20.372  0.00  0.00    +0.000 A 
ATOM      5  C   UNL     1      -1.061  11.252  21.623  0.00  0.00    +0.000 A 
ATOM      6  C   UNL     1      -1.769  11.888  22.657  0.00  0.00    +0.000 A 
ATOM      7  C   UNL     1      -0.350   9.989  21.934  0.00  0.00    +0.000 C 
ATOM      8  O   UNL     1      -0.449   9.515  23.064  0.00  0.00    +0.000 OA
ATOM      9  C   UNL     1       0.486   9.275  20.942  0.00  0.00    +0.000 A 
ATOM     10  C   UNL     1       1.149   8.105  21.348  0.00  0.00    +0.000 A 
ATOM     11  C   UNL     1       1.956   7.381  20.458  0.00  0.00    +0.000 A 
ATOM     12  C   UNL     1       2.113   7.816  19.139  0.00  0.00    +0.000 A 
ATOM     13  C   UNL     1       1.458   8.984  18.730  0.00  0.00    +0.000 A 
ATOM     14  C   UNL     1       0.653   9.696  19.633  0.00  0.00    +0.000 A 
ATOM     15  S   UNL     1      -0.142  11.143  19.056  0.00  0.00    +0.000 S 
ATOM     16  O   UNL     1      -1.115  10.711  18.076  0.00  0.00    +0.000 OA
ATOM     17  O   UNL     1       0.914  12.084  18.735  0.00  0.00    +0.000 OA
ENDROOT
BRANCH  12  18
ATOM     18  C   UNL     1       2.946   7.102  18.128  0.00  0.00    +0.000 C 
ATOM     19  N   UNL     1       2.855   5.744  18.040  0.00  0.00    +0.000 N 
ATOM     20  O   UNL     1       3.700   7.716  17.382  0.00  0.00    +0.000 OA
ATOM     21  H   UNL     1       2.261   5.152  18.598  0.00  0.00    +0.000 HD
ATOM     22  H   UNL     1       3.433   5.299  17.336  0.00  0.00    +0.000 HD
ENDBRANCH  12  18
BRANCH   1  24
ATOM     23  C   UNL     1      -3.885  12.821  24.481  0.00  0.00    +0.000 C 
ATOM     24  C   UNL     1      -3.094  13.815  23.624  0.00  0.00    +0.000 C 
ATOM     25  C   UNL     1      -2.093  14.593  24.479  0.00  0.00    +0.000 C 
ENDBRANCH   1  24
TORSDOF 2
ENDMDL
