MODEL 1
REMARK VINA RESULT:      -8.7      0.000      0.000
REMARK  Name = 
REMARK  7 active torsions:
REMARK  status: ('A' for Active; 'I' for Inactive)
REMARK    1  A    between atoms: C_1  and  C_2
REMARK    2  A    between atoms: C_2  and  N_3
REMARK    3  A    between atoms: N_8  and  C_9
REMARK    4  A    between atoms: C_9  and  C_10
REMARK    5  A    between atoms: C_14  and  C_15
REMARK    6  A    between atoms: C_16  and  C_17
REMARK    7  A    between atoms: N_19  and  O_20
REMARK                            x       y       z     vdW  Elec       q    Type
REMARK                         _______ _______ _______ _____ _____    ______ ____
ROOT
ATOM      1  N   UNL     1      -1.574  12.042  21.986  0.00  0.00    +0.000 N 
ATOM      2  C   UNL     1      -0.593  11.454  22.739  0.00  0.00    +0.000 A 
ATOM      3  N   UNL     1       0.183  10.677  22.014  0.00  0.00    +0.000 NA
ATOM      4  C   UNL     1      -0.340  10.754  20.736  0.00  0.00    +0.000 A 
ATOM      5  C   UNL     1       0.026  10.141  19.525  0.00  0.00    +0.000 A 
ATOM      6  N   UNL     1       1.073   9.213  19.492  0.00  0.00    +0.000 N 
ATOM      7  N   UNL     1      -0.722  10.443  18.424  0.00  0.00    +0.000 NA
ATOM      8  C   UNL     1      -1.801  11.270  18.517  0.00  0.00    +0.000 A 
ATOM      9  N   UNL     1      -2.582  11.483  17.392  0.00  0.00    +0.000 N 
ATOM     10  C   UNL     1      -3.984  11.856  17.582  0.00  0.00    +0.000 C 
ATOM     11  C   UNL     1      -4.752  10.880  16.695  0.00  0.00    +0.000 C 
ATOM     12  C   UNL     1      -3.782  10.609  15.558  0.00  0.00    +0.000 C 
ATOM     13  C   UNL     1      -2.417  10.594  16.249  0.00  0.00    +0.000 C 
ATOM     14  N   UNL     1      -2.181  11.907  19.643  0.00  0.00    +0.000 NA
ATOM     15  C   UNL     1      -1.424  11.604  20.700  0.00  0.00    +0.000 A 
ATOM     16  H   UNL     1       1.611   9.269  20.355  0.00  0.00    +0.000 HD
ENDROOT
BRANCH   1  18
ATOM     17  C   UNL     1      -3.455  12.329  23.550  0.00  0.00    +0.000 C 
ATOM     18  C   UNL     1      -2.590  12.950  22.468  0.00  0.00    +0.000 C 
ENDBRANCH   1  18
BRANCH   6  19
ATOM     19  C   UNL     1       1.865   9.154  18.283  0.00  0.00    +0.000 C 
BRANCH  19  20
ATOM     20  C   UNL     1       2.671   7.864  18.271  0.00  0.00    +0.000 A 
ATOM     21  C   UNL     1       2.521   6.928  19.303  0.00  0.00    +0.000 A 
ATOM     22  C   UNL     1       3.244   5.733  19.290  0.00  0.00    +0.000 A 
ATOM     23  C   UNL     1       4.137   5.466  18.252  0.00  0.00    +0.000 A 
ATOM     24  C   UNL     1       4.333   6.395  17.224  0.00  0.00    +0.000 A 
ATOM     25  C   UNL     1       3.593   7.589  17.240  0.00  0.00    +0.000 A 
BRANCH  24  26
ATOM     26  C   UNL     1       5.265   6.038  16.137  0.00  0.00    +0.000 C 
ATOM     27  C   UNL     1       5.537   4.781  15.747  0.00  0.00    +0.000 C 
BRANCH  27  28
ATOM     28  C   UNL     1       6.486   4.544  14.633  0.00  0.00    +0.000 C 
ATOM     29  O   UNL     1       7.559   5.128  14.510  0.00  0.00    +0.000 OA
ATOM     30  N   UNL     1       6.053   3.598  13.743  0.00  0.00    +0.000 N 
ATOM     31  H   UNL     1       5.175   3.098  13.786  0.00  0.00    +0.000 HD
BRANCH  30  32
ATOM     32  O   UNL     1       6.899   3.317  12.646  0.00  0.00    +0.000 OA
ATOM     33  H   UNL     1       7.218   4.211  12.396  0.00  0.00    +0.000 HD
ENDBRANCH  30  32
ENDBRANCH  27  28
ENDBRANCH  24  26
ENDBRANCH  19  20
ENDBRANCH   6  19
TORSDOF 6
ENDMDL
MODEL 2
REMARK VINA RESULT:      -8.6      4.230      9.261
REMARK  Name = 
REMARK  7 active torsions:
REMARK  status: ('A' for Active; 'I' for Inactive)
REMARK    1  A    between atoms: C_1  and  C_2
REMARK    2  A    between atoms: C_2  and  N_3
REMARK    3  A    between atoms: N_8  and  C_9
REMARK    4  A    between atoms: C_9  and  C_10
REMARK    5  A    between atoms: C_14  and  C_15
REMARK    6  A    between atoms: C_16  and  C_17
REMARK    7  A    between atoms: N_19  and  O_20
REMARK                            x       y       z     vdW  Elec       q    Type
REMARK                         _______ _______ _______ _____ _____    ______ ____
ROOT
ATOM      1  N   UNL     1       5.451   5.525  16.510  0.00  0.00    +0.000 N 
ATOM      2  C   UNL     1       5.339   6.637  15.720  0.00  0.00    +0.000 A 
ATOM      3  N   UNL     1       4.415   7.464  16.164  0.00  0.00    +0.000 NA
ATOM      4  C   UNL     1       3.894   6.838  17.282  0.00  0.00    +0.000 A 
ATOM      5  C   UNL     1       2.871   7.196  18.176  0.00  0.00    +0.000 A 
ATOM      6  N   UNL     1       2.130   8.366  17.969  0.00  0.00    +0.000 N 
ATOM      7  N   UNL     1       2.604   6.329  19.196  0.00  0.00    +0.000 NA
ATOM      8  C   UNL     1       3.275   5.149  19.304  0.00  0.00    +0.000 A 
ATOM      9  N   UNL     1       2.914   4.260  20.304  0.00  0.00    +0.000 N 
ATOM     10  C   UNL     1       3.183   2.837  20.098  0.00  0.00    +0.000 C 
ATOM     11  C   UNL     1       1.851   2.158  20.403  0.00  0.00    +0.000 C 
ATOM     12  C   UNL     1       1.231   3.067  21.449  0.00  0.00    +0.000 C 
ATOM     13  C   UNL     1       1.650   4.468  20.999  0.00  0.00    +0.000 C 
ATOM     14  N   UNL     1       4.283   4.765  18.494  0.00  0.00    +0.000 NA
ATOM     15  C   UNL     1       4.532   5.639  17.516  0.00  0.00    +0.000 A 
ATOM     16  H   UNL     1       2.599   8.954  17.283  0.00  0.00    +0.000 HD
ENDROOT
BRANCH   1  18
ATOM     17  C   UNL     1       7.564   4.489  17.240  0.00  0.00    +0.000 C 
ATOM     18  C   UNL     1       6.366   4.424  16.308  0.00  0.00    +0.000 C 
ENDBRANCH   1  18
BRANCH   6  19
ATOM     19  C   UNL     1       1.652   9.062  19.143  0.00  0.00    +0.000 C 
BRANCH  19  20
ATOM     20  C   UNL     1       0.382   9.823  18.795  0.00  0.00    +0.000 A 
ATOM     21  C   UNL     1       0.004  10.946  19.542  0.00  0.00    +0.000 A 
ATOM     22  C   UNL     1      -1.152  11.661  19.217  0.00  0.00    +0.000 A 
ATOM     23  C   UNL     1      -1.952  11.251  18.151  0.00  0.00    +0.000 A 
ATOM     24  C   UNL     1      -1.619  10.114  17.406  0.00  0.00    +0.000 A 
ATOM     25  C   UNL     1      -0.449   9.408  17.733  0.00  0.00    +0.000 A 
BRANCH  24  26
ATOM     26  C   UNL     1      -2.487   9.753  16.269  0.00  0.00    +0.000 C 
ATOM     27  C   UNL     1      -2.626  10.488  15.152  0.00  0.00    +0.000 C 
BRANCH  27  28
ATOM     28  C   UNL     1      -3.523  10.019  14.068  0.00  0.00    +0.000 C 
ATOM     29  O   UNL     1      -4.699   9.713  14.236  0.00  0.00    +0.000 OA
ATOM     30  N   UNL     1      -2.911   9.963  12.844  0.00  0.00    +0.000 N 
ATOM     31  H   UNL     1      -1.943  10.188  12.652  0.00  0.00    +0.000 HD
BRANCH  30  32
ATOM     32  O   UNL     1      -3.696   9.518  11.757  0.00  0.00    +0.000 OA
ATOM     33  H   UNL     1      -3.889  10.357  11.284  0.00  0.00    +0.000 HD
ENDBRANCH  30  32
ENDBRANCH  27  28
ENDBRANCH  24  26
ENDBRANCH  19  20
ENDBRANCH   6  19
TORSDOF 6
ENDMDL
MODEL 3
REMARK VINA RESULT:      -8.3      4.570      7.501
REMARK  Name = 
REMARK  7 active torsions:
REMARK  status: ('A' for Active; 'I' for Inactive)
REMARK    1  A    between atoms: C_1  and  C_2
REMARK    2  A    between atoms: C_2  and  N_3
REMARK    3  A    between atoms: N_8  and  C_9
REMARK    4  A    between atoms: C_9  and  C_10
REMARK    5  A    between atoms: C_14  and  C_15
REMARK    6  A    between atoms: C_16  and  C_17
REMARK    7  A    between atoms: N_19  and  O_20
REMARK                            x       y       z     vdW  Elec       q    Type
REMARK                         _______ _______ _______ _____ _____    ______ ____
ROOT
ATOM      1  N   UNL     1       2.112   3.178  19.444  0.00  0.00    +0.000 N 
ATOM      2  C   UNL     1       2.612   2.128  18.722  0.00  0.00    +0.000 A 
ATOM      3  N   UNL     1       3.379   2.533  17.732  0.00  0.00    +0.000 NA
ATOM      4  C   UNL     1       3.352   3.914  17.811  0.00  0.00    +0.000 A 
ATOM      5  C   UNL     1       3.947   4.918  17.029  0.00  0.00    +0.000 A 
ATOM      6  N   UNL     1       4.693   4.579  15.893  0.00  0.00    +0.000 N 
ATOM      7  N   UNL     1       3.710   6.213  17.391  0.00  0.00    +0.000 NA
ATOM      8  C   UNL     1       2.892   6.505  18.441  0.00  0.00    +0.000 A 
ATOM      9  N   UNL     1       2.610   7.833  18.723  0.00  0.00    +0.000 N 
ATOM     10  C   UNL     1       1.358   8.145  19.411  0.00  0.00    +0.000 C 
ATOM     11  C   UNL     1       0.726   9.239  18.555  0.00  0.00    +0.000 C 
ATOM     12  C   UNL     1       1.928   9.965  17.978  0.00  0.00    +0.000 C 
ATOM     13  C   UNL     1       2.935   8.842  17.722  0.00  0.00    +0.000 C 
ATOM     14  N   UNL     1       2.318   5.586  19.243  0.00  0.00    +0.000 NA
ATOM     15  C   UNL     1       2.579   4.329  18.873  0.00  0.00    +0.000 A 
ATOM     16  H   UNL     1       4.905   3.584  15.904  0.00  0.00    +0.000 HD
ENDROOT
BRANCH   1  18
ATOM     17  C   UNL     1       2.011   3.019  21.900  0.00  0.00    +0.000 C 
ATOM     18  C   UNL     1       1.240   3.086  20.593  0.00  0.00    +0.000 C 
ENDBRANCH   1  18
BRANCH   6  19
ATOM     19  C   UNL     1       5.807   5.437  15.554  0.00  0.00    +0.000 C 
BRANCH  19  20
ATOM     20  C   UNL     1       6.660   5.668  16.792  0.00  0.00    +0.000 A 
ATOM     21  C   UNL     1       6.958   4.603  17.653  0.00  0.00    +0.000 A 
ATOM     22  C   UNL     1       7.755   4.804  18.783  0.00  0.00    +0.000 A 
ATOM     23  C   UNL     1       8.252   6.074  19.073  0.00  0.00    +0.000 A 
ATOM     24  C   UNL     1       7.945   7.165  18.251  0.00  0.00    +0.000 A 
ATOM     25  C   UNL     1       7.152   6.951  17.110  0.00  0.00    +0.000 A 
BRANCH  24  26
ATOM     26  C   UNL     1       8.529   8.475  18.592  0.00  0.00    +0.000 C 
ATOM     27  C   UNL     1       8.331   9.605  17.891  0.00  0.00    +0.000 C 
BRANCH  27  28
ATOM     28  C   UNL     1       8.964  10.870  18.337  0.00  0.00    +0.000 C 
ATOM     29  O   UNL     1       8.888  11.929  17.721  0.00  0.00    +0.000 OA
ATOM     30  N   UNL     1       9.648  10.748  19.517  0.00  0.00    +0.000 N 
ATOM     31  H   UNL     1       9.756   9.899  20.057  0.00  0.00    +0.000 HD
BRANCH  30  32
ATOM     32  O   UNL     1      10.288  11.908  20.008  0.00  0.00    +0.000 OA
ATOM     33  H   UNL     1      10.257  11.766  20.979  0.00  0.00    +0.000 HD
ENDBRANCH  30  32
ENDBRANCH  27  28
ENDBRANCH  24  26
ENDBRANCH  19  20
ENDBRANCH   6  19
TORSDOF 6
ENDMDL
MODEL 4
REMARK VINA RESULT:      -8.2      4.543      7.410
REMARK  Name = 
REMARK  7 active torsions:
REMARK  status: ('A' for Active; 'I' for Inactive)
REMARK    1  A    between atoms: C_1  and  C_2
REMARK    2  A    between atoms: C_2  and  N_3
REMARK    3  A    between atoms: N_8  and  C_9
REMARK    4  A    between atoms: C_9  and  C_10
REMARK    5  A    between atoms: C_14  and  C_15
REMARK    6  A    between atoms: C_16  and  C_17
REMARK    7  A    between atoms: N_19  and  O_20
REMARK                            x       y       z     vdW  Elec       q    Type
REMARK                         _______ _______ _______ _____ _____    ______ ____
ROOT
ATOM      1  N   UNL     1       2.754   3.623  20.448  0.00  0.00    +0.000 N 
ATOM      2  C   UNL     1       3.296   2.528  19.829  0.00  0.00    +0.000 A 
ATOM      3  N   UNL     1       3.868   2.842  18.686  0.00  0.00    +0.000 NA
ATOM      4  C   UNL     1       3.664   4.204  18.556  0.00  0.00    +0.000 A 
ATOM      5  C   UNL     1       4.012   5.122  17.550  0.00  0.00    +0.000 A 
ATOM      6  N   UNL     1       4.645   4.681  16.382  0.00  0.00    +0.000 N 
ATOM      7  N   UNL     1       3.649   6.424  17.741  0.00  0.00    +0.000 NA
ATOM      8  C   UNL     1       2.939   6.796  18.843  0.00  0.00    +0.000 A 
ATOM      9  N   UNL     1       2.518   8.112  18.957  0.00  0.00    +0.000 N 
ATOM     10  C   UNL     1       1.334   8.393  19.767  0.00  0.00    +0.000 C 
ATOM     11  C   UNL     1       0.454   9.246  18.858  0.00  0.00    +0.000 C 
ATOM     12  C   UNL     1       1.463   9.995  18.004  0.00  0.00    +0.000 C 
ATOM     13  C   UNL     1       2.572   8.966  17.777  0.00  0.00    +0.000 C 
ATOM     14  N   UNL     1       2.603   5.968  19.852  0.00  0.00    +0.000 NA
ATOM     15  C   UNL     1       2.983   4.705  19.645  0.00  0.00    +0.000 A 
ATOM     16  H   UNL     1       4.990   3.732  16.513  0.00  0.00    +0.000 HD
ENDROOT
BRANCH   1  18
ATOM     17  C   UNL     1       1.270   2.352  21.948  0.00  0.00    +0.000 C 
ATOM     18  C   UNL     1       2.057   3.629  21.715  0.00  0.00    +0.000 C 
ENDBRANCH   1  18
BRANCH   6  19
ATOM     19  C   UNL     1       5.580   5.588  15.754  0.00  0.00    +0.000 C 
BRANCH  19  20
ATOM     20  C   UNL     1       6.528   6.142  16.806  0.00  0.00    +0.000 A 
ATOM     21  C   UNL     1       7.075   5.296  17.780  0.00  0.00    +0.000 A 
ATOM     22  C   UNL     1       7.960   5.794  18.739  0.00  0.00    +0.000 A 
ATOM     23  C   UNL     1       8.298   7.147  18.745  0.00  0.00    +0.000 A 
ATOM     24  C   UNL     1       7.743   8.025  17.806  0.00  0.00    +0.000 A 
ATOM     25  C   UNL     1       6.862   7.512  16.838  0.00  0.00    +0.000 A 
BRANCH  24  26
ATOM     26  C   UNL     1       8.166   9.437  17.844  0.00  0.00    +0.000 C 
ATOM     27  C   UNL     1       9.348   9.867  18.317  0.00  0.00    +0.000 C 
BRANCH  27  28
ATOM     28  C   UNL     1       9.669  11.315  18.295  0.00  0.00    +0.000 C 
ATOM     29  O   UNL     1       9.004  12.173  18.868  0.00  0.00    +0.000 OA
ATOM     30  N   UNL     1      10.792  11.611  17.570  0.00  0.00    +0.000 N 
ATOM     31  H   UNL     1      11.368  10.948  17.067  0.00  0.00    +0.000 HD
BRANCH  30  32
ATOM     32  O   UNL     1      11.164  12.972  17.494  0.00  0.00    +0.000 OA
ATOM     33  H   UNL     1      12.077  12.918  17.136  0.00  0.00    +0.000 HD
ENDBRANCH  30  32
ENDBRANCH  27  28
ENDBRANCH  24  26
ENDBRANCH  19  20
ENDBRANCH   6  19
TORSDOF 6
ENDMDL
MODEL 5
REMARK VINA RESULT:      -8.2      4.190      9.317
REMARK  Name = 
REMARK  7 active torsions:
REMARK  status: ('A' for Active; 'I' for Inactive)
REMARK    1  A    between atoms: C_1  and  C_2
REMARK    2  A    between atoms: C_2  and  N_3
REMARK    3  A    between atoms: N_8  and  C_9
REMARK    4  A    between atoms: C_9  and  C_10
REMARK    5  A    between atoms: C_14  and  C_15
REMARK    6  A    between atoms: C_16  and  C_17
REMARK    7  A    between atoms: N_19  and  O_20
REMARK                            x       y       z     vdW  Elec       q    Type
REMARK                         _______ _______ _______ _____ _____    ______ ____
ROOT
ATOM      1  N   UNL     1       5.277   5.718  16.634  0.00  0.00    +0.000 N 
ATOM      2  C   UNL     1       5.092   6.895  15.959  0.00  0.00    +0.000 A 
ATOM      3  N   UNL     1       4.173   7.647  16.527  0.00  0.00    +0.000 NA
ATOM      4  C   UNL     1       3.732   6.905  17.608  0.00  0.00    +0.000 A 
ATOM      5  C   UNL     1       2.751   7.147  18.585  0.00  0.00    +0.000 A 
ATOM      6  N   UNL     1       1.970   8.306  18.528  0.00  0.00    +0.000 N 
ATOM      7  N   UNL     1       2.564   6.180  19.532  0.00  0.00    +0.000 NA
ATOM      8  C   UNL     1       3.271   5.017  19.492  0.00  0.00    +0.000 A 
ATOM      9  N   UNL     1       2.990   4.028  20.421  0.00  0.00    +0.000 N 
ATOM     10  C   UNL     1       3.285   2.640  20.068  0.00  0.00    +0.000 C 
ATOM     11  C   UNL     1       1.989   1.894  20.378  0.00  0.00    +0.000 C 
ATOM     12  C   UNL     1       1.405   2.683  21.537  0.00  0.00    +0.000 C 
ATOM     13  C   UNL     1       1.761   4.131  21.199  0.00  0.00    +0.000 C 
ATOM     14  N   UNL     1       4.242   4.742  18.597  0.00  0.00    +0.000 NA
ATOM     15  C   UNL     1       4.413   5.710  17.693  0.00  0.00    +0.000 A 
ATOM     16  H   UNL     1       2.383   8.970  17.877  0.00  0.00    +0.000 HD
ENDROOT
BRANCH   1  18
ATOM     17  C   UNL     1       5.902   4.056  14.925  0.00  0.00    +0.000 C 
ATOM     18  C   UNL     1       6.208   4.670  16.281  0.00  0.00    +0.000 C 
ENDBRANCH   1  18
BRANCH   6  19
ATOM     19  C   UNL     1       1.539   8.875  19.787  0.00  0.00    +0.000 C 
BRANCH  19  20
ATOM     20  C   UNL     1       0.634  10.067  19.518  0.00  0.00    +0.000 A 
ATOM     21  C   UNL     1       0.752  11.232  20.286  0.00  0.00    +0.000 A 
ATOM     22  C   UNL     1      -0.064  12.337  20.033  0.00  0.00    +0.000 A 
ATOM     23  C   UNL     1      -1.019  12.285  19.018  0.00  0.00    +0.000 A 
ATOM     24  C   UNL     1      -1.185  11.123  18.255  0.00  0.00    +0.000 A 
ATOM     25  C   UNL     1      -0.351  10.021  18.509  0.00  0.00    +0.000 A 
BRANCH  24  26
ATOM     26  C   UNL     1      -2.188  11.143  17.174  0.00  0.00    +0.000 C 
ATOM     27  C   UNL     1      -2.197  10.302  16.125  0.00  0.00    +0.000 C 
BRANCH  27  28
ATOM     28  C   UNL     1      -3.265  10.410  15.102  0.00  0.00    +0.000 C 
ATOM     29  O   UNL     1      -4.412  10.774  15.345  0.00  0.00    +0.000 OA
ATOM     30  N   UNL     1      -2.848  10.066  13.844  0.00  0.00    +0.000 N 
ATOM     31  H   UNL     1      -1.923   9.746  13.590  0.00  0.00    +0.000 HD
BRANCH  30  32
ATOM     32  O   UNL     1      -3.810  10.136  12.810  0.00  0.00    +0.000 OA
ATOM     33  H   UNL     1      -3.661  11.037  12.450  0.00  0.00    +0.000 HD
ENDBRANCH  30  32
ENDBRANCH  27  28
ENDBRANCH  24  26
ENDBRANCH  19  20
ENDBRANCH   6  19
TORSDOF 6
ENDMDL
MODEL 6
REMARK VINA RESULT:      -8.0      4.760      9.740
REMARK  Name = 
REMARK  7 active torsions:
REMARK  status: ('A' for Active; 'I' for Inactive)
REMARK    1  A    between atoms: C_1  and  C_2
REMARK    2  A    between atoms: C_2  and  N_3
REMARK    3  A    between atoms: N_8  and  C_9
REMARK    4  A    between atoms: C_9  and  C_10
REMARK    5  A    between atoms: C_14  and  C_15
REMARK    6  A    between atoms: C_16  and  C_17
REMARK    7  A    between atoms: N_19  and  O_20
REMARK                            x       y       z     vdW  Elec       q    Type
REMARK                         _______ _______ _______ _____ _____    ______ ____
ROOT
ATOM      1  N   UNL     1       2.657   3.821  20.371  0.00  0.00    +0.000 N 
ATOM      2  C   UNL     1       1.954   4.618  21.234  0.00  0.00    +0.000 A 
ATOM      3  N   UNL     1       1.840   5.850  20.783  0.00  0.00    +0.000 NA
ATOM      4  C   UNL     1       2.522   5.846  19.580  0.00  0.00    +0.000 A 
ATOM      5  C   UNL     1       2.781   6.854  18.635  0.00  0.00    +0.000 A 
ATOM      6  N   UNL     1       2.360   8.168  18.873  0.00  0.00    +0.000 N 
ATOM      7  N   UNL     1       3.503   6.503  17.531  0.00  0.00    +0.000 NA
ATOM      8  C   UNL     1       3.987   5.237  17.386  0.00  0.00    +0.000 A 
ATOM      9  N   UNL     1       4.787   4.945  16.293  0.00  0.00    +0.000 N 
ATOM     10  C   UNL     1       5.743   3.846  16.407  0.00  0.00    +0.000 C 
ATOM     11  C   UNL     1       7.064   4.451  15.941  0.00  0.00    +0.000 C 
ATOM     12  C   UNL     1       6.629   5.490  14.923  0.00  0.00    +0.000 C 
ATOM     13  C   UNL     1       5.334   6.050  15.515  0.00  0.00    +0.000 C 
ATOM     14  N   UNL     1       3.747   4.224  18.243  0.00  0.00    +0.000 NA
ATOM     15  C   UNL     1       3.027   4.593  19.305  0.00  0.00    +0.000 A 
ATOM     16  H   UNL     1       1.691   8.183  19.639  0.00  0.00    +0.000 HD
ENDROOT
BRANCH   1  18
ATOM     17  C   UNL     1       2.218   1.529  19.580  0.00  0.00    +0.000 C 
ATOM     18  C   UNL     1       2.961   2.420  20.559  0.00  0.00    +0.000 C 
ENDBRANCH   1  18
BRANCH   6  19
ATOM     19  C   UNL     1       1.987   8.960  17.722  0.00  0.00    +0.000 C 
BRANCH  19  20
ATOM     20  C   UNL     1       1.002  10.037  18.149  0.00  0.00    +0.000 A 
ATOM     21  C   UNL     1       1.448  11.162  18.856  0.00  0.00    +0.000 A 
ATOM     22  C   UNL     1       0.552  12.164  19.236  0.00  0.00    +0.000 A 
ATOM     23  C   UNL     1      -0.803  12.046  18.929  0.00  0.00    +0.000 A 
ATOM     24  C   UNL     1      -1.285  10.919  18.253  0.00  0.00    +0.000 A 
ATOM     25  C   UNL     1      -0.374   9.922  17.864  0.00  0.00    +0.000 A 
BRANCH  24  26
ATOM     26  C   UNL     1      -2.723  10.870  17.927  0.00  0.00    +0.000 C 
ATOM     27  C   UNL     1      -3.664  11.634  18.508  0.00  0.00    +0.000 C 
BRANCH  27  28
ATOM     28  C   UNL     1      -5.081  11.503  18.090  0.00  0.00    +0.000 C 
ATOM     29  O   UNL     1      -5.825  10.601  18.462  0.00  0.00    +0.000 OA
ATOM     30  N   UNL     1      -5.490  12.498  17.243  0.00  0.00    +0.000 N 
ATOM     31  H   UNL     1      -4.918  13.255  16.893  0.00  0.00    +0.000 HD
BRANCH  30  32
ATOM     32  O   UNL     1      -6.828  12.443  16.792  0.00  0.00    +0.000 OA
ATOM     33  H   UNL     1      -6.887  13.239  16.220  0.00  0.00    +0.000 HD
ENDBRANCH  30  32
ENDBRANCH  27  28
ENDBRANCH  24  26
ENDBRANCH  19  20
ENDBRANCH   6  19
TORSDOF 6
ENDMDL
MODEL 7
REMARK VINA RESULT:      -8.0      4.766      9.952
REMARK  Name = 
REMARK  7 active torsions:
REMARK  status: ('A' for Active; 'I' for Inactive)
REMARK    1  A    between atoms: C_1  and  C_2
REMARK    2  A    between atoms: C_2  and  N_3
REMARK    3  A    between atoms: N_8  and  C_9
REMARK    4  A    between atoms: C_9  and  C_10
REMARK    5  A    between atoms: C_14  and  C_15
REMARK    6  A    between atoms: C_16  and  C_17
REMARK    7  A    between atoms: N_19  and  O_20
REMARK                            x       y       z     vdW  Elec       q    Type
REMARK                         _______ _______ _______ _____ _____    ______ ____
ROOT
ATOM      1  N   UNL     1       5.406   5.758  16.633  0.00  0.00    +0.000 N 
ATOM      2  C   UNL     1       5.251   6.909  15.908  0.00  0.00    +0.000 A 
ATOM      3  N   UNL     1       4.294   7.670  16.394  0.00  0.00    +0.000 NA
ATOM      4  C   UNL     1       3.796   6.961  17.472  0.00  0.00    +0.000 A 
ATOM      5  C   UNL     1       2.757   7.226  18.381  0.00  0.00    +0.000 A 
ATOM      6  N   UNL     1       1.970   8.374  18.238  0.00  0.00    +0.000 N 
ATOM      7  N   UNL     1       2.523   6.291  19.348  0.00  0.00    +0.000 NA
ATOM      8  C   UNL     1       3.241   5.134  19.391  0.00  0.00    +0.000 A 
ATOM      9  N   UNL     1       2.914   4.175  20.336  0.00  0.00    +0.000 N 
ATOM     10  C   UNL     1       3.241   2.779  20.050  0.00  0.00    +0.000 C 
ATOM     11  C   UNL     1       1.937   2.031  20.309  0.00  0.00    +0.000 C 
ATOM     12  C   UNL     1       1.278   2.852  21.403  0.00  0.00    +0.000 C 
ATOM     13  C   UNL     1       1.641   4.292  21.036  0.00  0.00    +0.000 C 
ATOM     14  N   UNL     1       4.265   4.839  18.565  0.00  0.00    +0.000 NA
ATOM     15  C   UNL     1       4.482   5.777  17.639  0.00  0.00    +0.000 A 
ATOM     16  H   UNL     1       2.416   9.019  17.589  0.00  0.00    +0.000 HD
ENDROOT
BRANCH   1  18
ATOM     17  C   UNL     1       5.833   3.665  15.406  0.00  0.00    +0.000 C 
ATOM     18  C   UNL     1       6.366   4.708  16.372  0.00  0.00    +0.000 C 
ENDBRANCH   1  18
BRANCH   6  19
ATOM     19  C   UNL     1       1.461   8.982  19.448  0.00  0.00    +0.000 C 
BRANCH  19  20
ATOM     20  C   UNL     1       0.737  10.272  19.098  0.00  0.00    +0.000 A 
ATOM     21  C   UNL     1       1.464  11.434  18.808  0.00  0.00    +0.000 A 
ATOM     22  C   UNL     1       0.806  12.619  18.468  0.00  0.00    +0.000 A 
ATOM     23  C   UNL     1      -0.587  12.660  18.429  0.00  0.00    +0.000 A 
ATOM     24  C   UNL     1      -1.343  11.525  18.746  0.00  0.00    +0.000 A 
ATOM     25  C   UNL     1      -0.672  10.335  19.075  0.00  0.00    +0.000 A 
BRANCH  24  26
ATOM     26  C   UNL     1      -2.812  11.623  18.652  0.00  0.00    +0.000 C 
ATOM     27  C   UNL     1      -3.573  10.900  17.813  0.00  0.00    +0.000 C 
BRANCH  27  28
ATOM     28  C   UNL     1      -5.046  11.078  17.815  0.00  0.00    +0.000 C 
ATOM     29  O   UNL     1      -5.809  10.469  18.559  0.00  0.00    +0.000 OA
ATOM     30  N   UNL     1      -5.481  11.999  16.900  0.00  0.00    +0.000 N 
ATOM     31  H   UNL     1      -4.901  12.517  16.254  0.00  0.00    +0.000 HD
BRANCH  30  32
ATOM     32  O   UNL     1      -6.875  12.223  16.833  0.00  0.00    +0.000 OA
ATOM     33  H   UNL     1      -6.923  13.100  16.395  0.00  0.00    +0.000 HD
ENDBRANCH  30  32
ENDBRANCH  27  28
ENDBRANCH  24  26
ENDBRANCH  19  20
ENDBRANCH   6  19
TORSDOF 6
ENDMDL
MODEL 8
REMARK VINA RESULT:      -7.9      4.943     10.032
REMARK  Name = 
REMARK  7 active torsions:
REMARK  status: ('A' for Active; 'I' for Inactive)
REMARK    1  A    between atoms: C_1  and  C_2
REMARK    2  A    between atoms: C_2  and  N_3
REMARK    3  A    between atoms: N_8  and  C_9
REMARK    4  A    between atoms: C_9  and  C_10
REMARK    5  A    between atoms: C_14  and  C_15
REMARK    6  A    between atoms: C_16  and  C_17
REMARK    7  A    between atoms: N_19  and  O_20
REMARK                            x       y       z     vdW  Elec       q    Type
REMARK                         _______ _______ _______ _____ _____    ______ ____
ROOT
ATOM      1  N   UNL     1       1.922   2.768  19.220  0.00  0.00    +0.000 N 
ATOM      2  C   UNL     1       0.963   3.008  20.167  0.00  0.00    +0.000 A 
ATOM      3  N   UNL     1       0.922   4.278  20.514  0.00  0.00    +0.000 NA
ATOM      4  C   UNL     1       1.920   4.877  19.766  0.00  0.00    +0.000 A 
ATOM      5  C   UNL     1       2.388   6.200  19.700  0.00  0.00    +0.000 A 
ATOM      6  N   UNL     1       1.853   7.180  20.544  0.00  0.00    +0.000 N 
ATOM      7  N   UNL     1       3.413   6.456  18.835  0.00  0.00    +0.000 NA
ATOM      8  C   UNL     1       3.980   5.453  18.107  0.00  0.00    +0.000 A 
ATOM      9  N   UNL     1       5.073   5.741  17.305  0.00  0.00    +0.000 N 
ATOM     10  C   UNL     1       6.010   4.661  16.996  0.00  0.00    +0.000 C 
ATOM     11  C   UNL     1       7.377   5.246  17.338  0.00  0.00    +0.000 C 
ATOM     12  C   UNL     1       7.201   6.727  17.052  0.00  0.00    +0.000 C 
ATOM     13  C   UNL     1       5.765   7.009  17.499  0.00  0.00    +0.000 C 
ATOM     14  N   UNL     1       3.555   4.173  18.108  0.00  0.00    +0.000 NA
ATOM     15  C   UNL     1       2.543   3.955  18.951  0.00  0.00    +0.000 A 
ATOM     16  H   UNL     1       0.992   6.840  20.967  0.00  0.00    +0.000 HD
ENDROOT
BRANCH   1  18
ATOM     17  C   UNL     1       3.720   1.202  18.600  0.00  0.00    +0.000 C 
ATOM     18  C   UNL     1       2.229   1.488  18.622  0.00  0.00    +0.000 C 
ENDBRANCH   1  18
BRANCH   6  19
ATOM     19  C   UNL     1       1.787   8.531  20.029  0.00  0.00    +0.000 C 
BRANCH  19  20
ATOM     20  C   UNL     1       0.864   9.360  20.908  0.00  0.00    +0.000 A 
ATOM     21  C   UNL     1       0.522   8.915  22.191  0.00  0.00    +0.000 A 
ATOM     22  C   UNL     1      -0.311   9.680  23.012  0.00  0.00    +0.000 A 
ATOM     23  C   UNL     1      -0.824  10.893  22.552  0.00  0.00    +0.000 A 
ATOM     24  C   UNL     1      -0.528  11.349  21.263  0.00  0.00    +0.000 A 
ATOM     25  C   UNL     1       0.320  10.578  20.449  0.00  0.00    +0.000 A 
BRANCH  24  26
ATOM     26  C   UNL     1      -1.073  12.655  20.849  0.00  0.00    +0.000 C 
ATOM     27  C   UNL     1      -0.347  13.650  20.310  0.00  0.00    +0.000 C 
BRANCH  27  28
ATOM     28  C   UNL     1      -1.008  14.920  19.922  0.00  0.00    +0.000 C 
ATOM     29  O   UNL     1      -0.471  15.793  19.247  0.00  0.00    +0.000 OA
ATOM     30  N   UNL     1      -2.290  15.028  20.389  0.00  0.00    +0.000 N 
ATOM     31  H   UNL     1      -2.776  14.348  20.960  0.00  0.00    +0.000 HD
BRANCH  30  32
ATOM     32  O   UNL     1      -2.989  16.214  20.069  0.00  0.00    +0.000 OA
ATOM     33  H   UNL     1      -2.654  16.841  20.746  0.00  0.00    +0.000 HD
ENDBRANCH  30  32
ENDBRANCH  27  28
ENDBRANCH  24  26
ENDBRANCH  19  20
ENDBRANCH   6  19
TORSDOF 6
ENDMDL
MODEL 9
REMARK VINA RESULT:      -7.9      2.830      3.584
REMARK  Name = 
REMARK  7 active torsions:
REMARK  status: ('A' for Active; 'I' for Inactive)
REMARK    1  A    between atoms: C_1  and  C_2
REMARK    2  A    between atoms: C_2  and  N_3
REMARK    3  A    between atoms: N_8  and  C_9
REMARK    4  A    between atoms: C_9  and  C_10
REMARK    5  A    between atoms: C_14  and  C_15
REMARK    6  A    between atoms: C_16  and  C_17
REMARK    7  A    between atoms: N_19  and  O_20
REMARK                            x       y       z     vdW  Elec       q    Type
REMARK                         _______ _______ _______ _____ _____    ______ ____
ROOT
ATOM      1  N   UNL     1      -0.640  12.430  22.234  0.00  0.00    +0.000 N 
ATOM      2  C   UNL     1      -1.159  11.167  22.133  0.00  0.00    +0.000 A 
ATOM      3  N   UNL     1      -0.656  10.510  21.109  0.00  0.00    +0.000 NA
ATOM      4  C   UNL     1       0.213  11.406  20.512  0.00  0.00    +0.000 A 
ATOM      5  C   UNL     1       1.031  11.314  19.372  0.00  0.00    +0.000 A 
ATOM      6  N   UNL     1       1.008  10.162  18.578  0.00  0.00    +0.000 N 
ATOM      7  N   UNL     1       1.781  12.410  19.055  0.00  0.00    +0.000 NA
ATOM      8  C   UNL     1       1.697  13.552  19.792  0.00  0.00    +0.000 A 
ATOM      9  N   UNL     1       2.411  14.668  19.386  0.00  0.00    +0.000 N 
ATOM     10  C   UNL     1       1.917  15.988  19.777  0.00  0.00    +0.000 C 
ATOM     11  C   UNL     1       1.887  16.776  18.470  0.00  0.00    +0.000 C 
ATOM     12  C   UNL     1       3.029  16.170  17.674  0.00  0.00    +0.000 C 
ATOM     13  C   UNL     1       2.971  14.686  18.040  0.00  0.00    +0.000 C 
ATOM     14  N   UNL     1       0.953  13.688  20.909  0.00  0.00    +0.000 NA
ATOM     15  C   UNL     1       0.242  12.598  21.203  0.00  0.00    +0.000 A 
ATOM     16  H   UNL     1       0.541   9.408  19.077  0.00  0.00    +0.000 HD
ENDROOT
BRANCH   1  18
ATOM     17  C   UNL     1      -2.243  14.176  22.907  0.00  0.00    +0.000 C 
ATOM     18  C   UNL     1      -0.974  13.411  23.242  0.00  0.00    +0.000 C 
ENDBRANCH   1  18
BRANCH   6  19
ATOM     19  C   UNL     1       2.242   9.786  17.923  0.00  0.00    +0.000 C 
BRANCH  19  20
ATOM     20  C   UNL     1       2.583   8.347  18.277  0.00  0.00    +0.000 A 
ATOM     21  C   UNL     1       2.027   7.749  19.416  0.00  0.00    +0.000 A 
ATOM     22  C   UNL     1       2.321   6.422  19.737  0.00  0.00    +0.000 A 
ATOM     23  C   UNL     1       3.186   5.681  18.932  0.00  0.00    +0.000 A 
ATOM     24  C   UNL     1       3.783   6.260  17.806  0.00  0.00    +0.000 A 
ATOM     25  C   UNL     1       3.472   7.592  17.484  0.00  0.00    +0.000 A 
BRANCH  24  26
ATOM     26  C   UNL     1       4.661   5.414  16.976  0.00  0.00    +0.000 C 
ATOM     27  C   UNL     1       5.445   5.870  15.984  0.00  0.00    +0.000 C 
BRANCH  27  28
ATOM     28  C   UNL     1       6.295   4.924  15.221  0.00  0.00    +0.000 C 
ATOM     29  O   UNL     1       7.495   4.762  15.427  0.00  0.00    +0.000 OA
ATOM     30  N   UNL     1       5.610   4.235  14.257  0.00  0.00    +0.000 N 
ATOM     31  H   UNL     1       4.628   4.338  14.035  0.00  0.00    +0.000 HD
BRANCH  30  32
ATOM     32  O   UNL     1       6.351   3.316  13.480  0.00  0.00    +0.000 OA
ATOM     33  H   UNL     1       6.636   3.869  12.721  0.00  0.00    +0.000 HD
ENDBRANCH  30  32
ENDBRANCH  27  28
ENDBRANCH  24  26
ENDBRANCH  19  20
ENDBRANCH   6  19
TORSDOF 6
ENDMDL
