MODEL 1
REMARK VINA RESULT:      -7.2      0.000      0.000
REMARK  Name = 
REMARK  7 active torsions:
REMARK  status: ('A' for Active; 'I' for Inactive)
REMARK    1  A    between atoms: C_1  and  C_2
REMARK    2  A    between atoms: C_2  and  C_3
REMARK    3  A    between atoms: C_2  and  C_4
REMARK    4  A    between atoms: C_4  and  S_5
REMARK    5  A    between atoms: S_5  and  N_8
REMARK    6  A    between atoms: N_13  and  C_14
REMARK    7  A    between atoms: N_24  and  C_25
REMARK                            x       y       z     vdW  Elec       q    Type
REMARK                         _______ _______ _______ _____ _____    ______ ____
ROOT
ATOM      1  N   UNL     1       5.591   5.508  16.097  0.00  0.00    +0.000 NA
ATOM      2  C   UNL     1       6.199   6.046  17.322  0.00  0.00    +0.000 C 
ATOM      3  C   UNL     1       5.005   6.484  18.141  0.00  0.00    +0.000 C 
ATOM      4  C   UNL     1       3.916   5.427  17.847  0.00  0.00    +0.000 C 
ATOM      5  C   UNL     1       2.527   6.108  17.777  0.00  0.00    +0.000 C 
ATOM      6  N   UNL     1       2.120   6.618  19.076  0.00  0.00    +0.000 N 
ATOM      7  C   UNL     1       2.176   5.736  20.157  0.00  0.00    +0.000 C 
ATOM      8  O   UNL     1       1.456   5.825  21.153  0.00  0.00    +0.000 OA
ATOM      9  C   UNL     1       3.358   4.764  20.157  0.00  0.00    +0.000 C 
ATOM     10  N   UNL     1       3.819   4.314  18.826  0.00  0.00    +0.000 NA
ATOM     11  C   UNL     1       5.032   3.509  18.998  0.00  0.00    +0.000 C 
ATOM     12  C   UNL     1       4.257   4.944  16.408  0.00  0.00    +0.000 C 
ENDROOT
BRANCH   6  13
ATOM     13  C   UNL     1       1.813   8.002  19.255  0.00  0.00    +0.000 A 
ATOM     14  C   UNL     1       1.908   8.877  18.159  0.00  0.00    +0.000 A 
ATOM     15  C   UNL     1       1.497  10.208  18.257  0.00  0.00    +0.000 A 
ATOM     16  C   UNL     1       0.998  10.691  19.462  0.00  0.00    +0.000 A 
ATOM     17  C   UNL     1       0.913   9.840  20.556  0.00  0.00    +0.000 A 
ATOM     18  F   UNL     1       0.445  10.311  21.724  0.00  0.00    +0.000 F 
ATOM     19  C   UNL     1       1.314   8.508  20.465  0.00  0.00    +0.000 A 
ENDBRANCH   6  13
BRANCH   1  20
ATOM     20  S   UNL     1       6.565   4.623  15.051  0.00  0.00    +0.000 S 
ATOM     21  O   UNL     1       6.739   3.315  15.636  0.00  0.00    +0.000 OA
ATOM     22  O   UNL     1       7.723   5.441  14.750  0.00  0.00    +0.000 OA
BRANCH  20  23
ATOM     23  C   UNL     1       5.458   4.556  13.644  0.00  0.00    +0.000 C 
BRANCH  23  25
ATOM     24  C   UNL     1       4.577   3.179  11.725  0.00  0.00    +0.000 C 
ATOM     25  C   UNL     1       5.775   3.468  12.627  0.00  0.00    +0.000 C 
ATOM     26  C   UNL     1       7.068   3.768  11.863  0.00  0.00    +0.000 C 
ENDBRANCH  23  25
ENDBRANCH  20  23
ENDBRANCH   1  20
TORSDOF 4
ENDMDL
MODEL 2
REMARK VINA RESULT:      -7.1      0.950      1.234
REMARK  Name = 
REMARK  7 active torsions:
REMARK  status: ('A' for Active; 'I' for Inactive)
REMARK    1  A    between atoms: C_1  and  C_2
REMARK    2  A    between atoms: C_2  and  C_3
REMARK    3  A    between atoms: C_2  and  C_4
REMARK    4  A    between atoms: C_4  and  S_5
REMARK    5  A    between atoms: S_5  and  N_8
REMARK    6  A    between atoms: N_13  and  C_14
REMARK    7  A    between atoms: N_24  and  C_25
REMARK                            x       y       z     vdW  Elec       q    Type
REMARK                         _______ _______ _______ _____ _____    ______ ____
ROOT
ATOM      1  N   UNL     1       6.074   5.533  16.893  0.00  0.00    +0.000 NA
ATOM      2  C   UNL     1       6.396   5.679  18.320  0.00  0.00    +0.000 C 
ATOM      3  C   UNL     1       5.059   6.009  18.947  0.00  0.00    +0.000 C 
ATOM      4  C   UNL     1       4.032   5.174  18.148  0.00  0.00    +0.000 C 
ATOM      5  C   UNL     1       2.725   5.984  17.966  0.00  0.00    +0.000 C 
ATOM      6  N   UNL     1       2.042   6.184  19.233  0.00  0.00    +0.000 N 
ATOM      7  C   UNL     1       1.809   5.054  20.021  0.00  0.00    +0.000 C 
ATOM      8  O   UNL     1       0.877   4.957  20.823  0.00  0.00    +0.000 OA
ATOM      9  C   UNL     1       2.921   4.003  20.014  0.00  0.00    +0.000 C 
ATOM     10  N   UNL     1       3.666   3.864  18.744  0.00  0.00    +0.000 NA
ATOM     11  C   UNL     1       4.773   2.926  18.952  0.00  0.00    +0.000 C 
ATOM     12  C   UNL     1       4.684   5.043  16.742  0.00  0.00    +0.000 C 
ENDROOT
BRANCH   6  13
ATOM     13  C   UNL     1       1.753   7.499  19.710  0.00  0.00    +0.000 A 
ATOM     14  C   UNL     1       1.624   8.554  18.788  0.00  0.00    +0.000 A 
ATOM     15  C   UNL     1       1.218   9.826  19.196  0.00  0.00    +0.000 A 
ATOM     16  C   UNL     1       0.949  10.069  20.539  0.00  0.00    +0.000 A 
ATOM     17  C   UNL     1       1.087   9.040  21.460  0.00  0.00    +0.000 A 
ATOM     18  F   UNL     1       0.842   9.280  22.759  0.00  0.00    +0.000 F 
ATOM     19  C   UNL     1       1.484   7.765  21.062  0.00  0.00    +0.000 A 
ENDBRANCH   6  13
BRANCH   1  20
ATOM     20  S   UNL     1       7.233   4.853  15.885  0.00  0.00    +0.000 S 
ATOM     21  O   UNL     1       8.108   4.062  16.715  0.00  0.00    +0.000 OA
ATOM     22  O   UNL     1       7.778   5.926  15.075  0.00  0.00    +0.000 OA
BRANCH  20  23
ATOM     23  C   UNL     1       6.158   3.808  14.905  0.00  0.00    +0.000 C 
BRANCH  23  25
ATOM     24  C   UNL     1       7.347   3.981  12.688  0.00  0.00    +0.000 C 
ATOM     25  C   UNL     1       6.036   4.204  13.440  0.00  0.00    +0.000 C 
ATOM     26  C   UNL     1       4.822   3.548  12.775  0.00  0.00    +0.000 C 
ENDBRANCH  23  25
ENDBRANCH  20  23
ENDBRANCH   1  20
TORSDOF 4
ENDMDL
MODEL 3
REMARK VINA RESULT:      -6.9      6.245     10.995
REMARK  Name = 
REMARK  7 active torsions:
REMARK  status: ('A' for Active; 'I' for Inactive)
REMARK    1  A    between atoms: C_1  and  C_2
REMARK    2  A    between atoms: C_2  and  C_3
REMARK    3  A    between atoms: C_2  and  C_4
REMARK    4  A    between atoms: C_4  and  S_5
REMARK    5  A    between atoms: S_5  and  N_8
REMARK    6  A    between atoms: N_13  and  C_14
REMARK    7  A    between atoms: N_24  and  C_25
REMARK                            x       y       z     vdW  Elec       q    Type
REMARK                         _______ _______ _______ _____ _____    ______ ____
ROOT
ATOM      1  N   UNL     1      -3.085  12.280  21.423  0.00  0.00    +0.000 NA
ATOM      2  C   UNL     1      -1.913  12.208  22.308  0.00  0.00    +0.000 C 
ATOM      3  C   UNL     1      -0.809  11.736  21.386  0.00  0.00    +0.000 C 
ATOM      4  C   UNL     1      -1.104  12.423  20.033  0.00  0.00    +0.000 C 
ATOM      5  C   UNL     1      -0.765  11.459  18.870  0.00  0.00    +0.000 C 
ATOM      6  N   UNL     1       0.664  11.210  18.785  0.00  0.00    +0.000 N 
ATOM      7  C   UNL     1       1.508  12.323  18.757  0.00  0.00    +0.000 C 
ATOM      8  O   UNL     1       2.619  12.328  18.223  0.00  0.00    +0.000 OA
ATOM      9  C   UNL     1       1.081  13.498  19.638  0.00  0.00    +0.000 C 
ATOM     10  N   UNL     1      -0.378  13.694  19.785  0.00  0.00    +0.000 NA
ATOM     11  C   UNL     1      -0.610  14.762  20.762  0.00  0.00    +0.000 C 
ATOM     12  C   UNL     1      -2.650  12.597  20.043  0.00  0.00    +0.000 C 
ENDROOT
BRANCH   6  13
ATOM     13  C   UNL     1       1.182   9.881  18.871  0.00  0.00    +0.000 A 
ATOM     14  C   UNL     1       1.890   9.346  17.781  0.00  0.00    +0.000 A 
ATOM     15  C   UNL     1       2.522   8.103  17.868  0.00  0.00    +0.000 A 
ATOM     16  C   UNL     1       2.440   7.366  19.044  0.00  0.00    +0.000 A 
ATOM     17  C   UNL     1       1.731   7.878  20.122  0.00  0.00    +0.000 A 
ATOM     18  F   UNL     1       1.640   7.159  21.254  0.00  0.00    +0.000 F 
ATOM     19  C   UNL     1       1.104   9.121  20.048  0.00  0.00    +0.000 A 
ENDBRANCH   6  13
BRANCH   1  20
ATOM     20  S   UNL     1      -4.457  13.069  21.987  0.00  0.00    +0.000 S 
ATOM     21  O   UNL     1      -4.202  14.486  21.892  0.00  0.00    +0.000 OA
ATOM     22  O   UNL     1      -4.793  12.479  23.269  0.00  0.00    +0.000 OA
BRANCH  20  23
ATOM     23  C   UNL     1      -5.612  12.536  20.726  0.00  0.00    +0.000 C 
BRANCH  23  25
ATOM     24  C   UNL     1      -7.910  13.293  21.435  0.00  0.00    +0.000 C 
ATOM     25  C   UNL     1      -6.976  12.100  21.245  0.00  0.00    +0.000 C 
ATOM     26  C   UNL     1      -7.572  10.975  20.393  0.00  0.00    +0.000 C 
ENDBRANCH  23  25
ENDBRANCH  20  23
ENDBRANCH   1  20
TORSDOF 4
ENDMDL
MODEL 4
REMARK VINA RESULT:      -6.8      1.129      1.616
REMARK  Name = 
REMARK  7 active torsions:
REMARK  status: ('A' for Active; 'I' for Inactive)
REMARK    1  A    between atoms: C_1  and  C_2
REMARK    2  A    between atoms: C_2  and  C_3
REMARK    3  A    between atoms: C_2  and  C_4
REMARK    4  A    between atoms: C_4  and  S_5
REMARK    5  A    between atoms: S_5  and  N_8
REMARK    6  A    between atoms: N_13  and  C_14
REMARK    7  A    between atoms: N_24  and  C_25
REMARK                            x       y       z     vdW  Elec       q    Type
REMARK                         _______ _______ _______ _____ _____    ______ ____
ROOT
ATOM      1  N   UNL     1       5.933   5.686  16.113  0.00  0.00    +0.000 NA
ATOM      2  C   UNL     1       6.443   6.328  17.334  0.00  0.00    +0.000 C 
ATOM      3  C   UNL     1       5.184   6.766  18.050  0.00  0.00    +0.000 C 
ATOM      4  C   UNL     1       4.158   5.645  17.763  0.00  0.00    +0.000 C 
ATOM      5  C   UNL     1       2.751   6.259  17.567  0.00  0.00    +0.000 C 
ATOM      6  N   UNL     1       2.244   6.834  18.803  0.00  0.00    +0.000 N 
ATOM      7  C   UNL     1       2.269   6.026  19.942  0.00  0.00    +0.000 C 
ATOM      8  O   UNL     1       1.485   6.148  20.886  0.00  0.00    +0.000 OA
ATOM      9  C   UNL     1       3.486   5.109  20.076  0.00  0.00    +0.000 C 
ATOM     10  N   UNL     1       4.045   4.594  18.807  0.00  0.00    +0.000 NA
ATOM     11  C   UNL     1       5.276   3.856  19.104  0.00  0.00    +0.000 C 
ATOM     12  C   UNL     1       4.606   5.086  16.382  0.00  0.00    +0.000 C 
ENDROOT
BRANCH   6  13
ATOM     13  C   UNL     1       1.872   8.211  18.871  0.00  0.00    +0.000 A 
ATOM     14  C   UNL     1       1.103   8.665  19.957  0.00  0.00    +0.000 A 
ATOM     15  C   UNL     1       0.824  10.023  20.130  0.00  0.00    +0.000 A 
ATOM     16  C   UNL     1       1.299  10.949  19.209  0.00  0.00    +0.000 A 
ATOM     17  C   UNL     1       2.047  10.512  18.124  0.00  0.00    +0.000 A 
ATOM     18  F   UNL     1       2.492  11.407  17.226  0.00  0.00    +0.000 F 
ATOM     19  C   UNL     1       2.337   9.160  17.947  0.00  0.00    +0.000 A 
ENDBRANCH   6  13
BRANCH   1  20
ATOM     20  S   UNL     1       7.003   4.779  15.188  0.00  0.00    +0.000 S 
ATOM     21  O   UNL     1       7.771   3.967  16.100  0.00  0.00    +0.000 OA
ATOM     22  O   UNL     1       7.680   5.698  14.293  0.00  0.00    +0.000 OA
BRANCH  20  23
ATOM     23  C   UNL     1       5.811   3.788  14.291  0.00  0.00    +0.000 C 
BRANCH  23  25
ATOM     24  C   UNL     1       7.097   3.340  12.169  0.00  0.00    +0.000 C 
ATOM     25  C   UNL     1       5.841   3.959  12.778  0.00  0.00    +0.000 C 
ATOM     26  C   UNL     1       4.538   3.481  12.129  0.00  0.00    +0.000 C 
ENDBRANCH  23  25
ENDBRANCH  20  23
ENDBRANCH   1  20
TORSDOF 4
ENDMDL
MODEL 5
REMARK VINA RESULT:      -6.8      6.050      9.341
REMARK  Name = 
REMARK  7 active torsions:
REMARK  status: ('A' for Active; 'I' for Inactive)
REMARK    1  A    between atoms: C_1  and  C_2
REMARK    2  A    between atoms: C_2  and  C_3
REMARK    3  A    between atoms: C_2  and  C_4
REMARK    4  A    between atoms: C_4  and  S_5
REMARK    5  A    between atoms: S_5  and  N_8
REMARK    6  A    between atoms: N_13  and  C_14
REMARK    7  A    between atoms: N_24  and  C_25
REMARK                            x       y       z     vdW  Elec       q    Type
REMARK                         _______ _______ _______ _____ _____    ______ ____
ROOT
ATOM      1  N   UNL     1       3.356  14.682  19.648  0.00  0.00    +0.000 NA
ATOM      2  C   UNL     1       3.105  14.312  18.247  0.00  0.00    +0.000 C 
ATOM      3  C   UNL     1       2.313  13.028  18.363  0.00  0.00    +0.000 C 
ATOM      4  C   UNL     1       1.419  13.227  19.608  0.00  0.00    +0.000 C 
ATOM      5  C   UNL     1       1.295  11.894  20.385  0.00  0.00    +0.000 C 
ATOM      6  N   UNL     1       0.552  10.902  19.625  0.00  0.00    +0.000 N 
ATOM      7  C   UNL     1      -0.691  11.286  19.116  0.00  0.00    +0.000 C 
ATOM      8  O   UNL     1      -1.615  10.500  18.897  0.00  0.00    +0.000 OA
ATOM      9  C   UNL     1      -0.782  12.728  18.611  0.00  0.00    +0.000 C 
ATOM     10  N   UNL     1       0.042  13.716  19.340  0.00  0.00    +0.000 NA
ATOM     11  C   UNL     1      -0.053  15.005  18.648  0.00  0.00    +0.000 C 
ATOM     12  C   UNL     1       2.246  14.197  20.500  0.00  0.00    +0.000 C 
ENDROOT
BRANCH   6  13
ATOM     13  C   UNL     1       1.136   9.641  19.298  0.00  0.00    +0.000 A 
ATOM     14  C   UNL     1       1.731   9.463  18.036  0.00  0.00    +0.000 A 
ATOM     15  C   UNL     1       2.424   8.292  17.721  0.00  0.00    +0.000 A 
ATOM     16  C   UNL     1       2.519   7.271  18.660  0.00  0.00    +0.000 A 
ATOM     17  C   UNL     1       1.923   7.429  19.904  0.00  0.00    +0.000 A 
ATOM     18  F   UNL     1       2.003   6.435  20.805  0.00  0.00    +0.000 F 
ATOM     19  C   UNL     1       1.236   8.596  20.231  0.00  0.00    +0.000 A 
ENDBRANCH   6  13
BRANCH   1  20
ATOM     20  S   UNL     1       3.940  16.226  19.967  0.00  0.00    +0.000 S 
ATOM     21  O   UNL     1       3.533  16.565  21.309  0.00  0.00    +0.000 OA
ATOM     22  O   UNL     1       3.545  17.071  18.856  0.00  0.00    +0.000 OA
BRANCH  20  23
ATOM     23  C   UNL     1       5.694  15.870  19.897  0.00  0.00    +0.000 C 
BRANCH  23  25
ATOM     24  C   UNL     1       7.476  17.189  18.696  0.00  0.00    +0.000 C 
ATOM     25  C   UNL     1       6.356  16.161  18.556  0.00  0.00    +0.000 C 
ATOM     26  C   UNL     1       6.782  14.873  17.845  0.00  0.00    +0.000 C 
ENDBRANCH  23  25
ENDBRANCH  20  23
ENDBRANCH   1  20
TORSDOF 4
ENDMDL
MODEL 6
REMARK VINA RESULT:      -6.8      3.853      7.629
REMARK  Name = 
REMARK  7 active torsions:
REMARK  status: ('A' for Active; 'I' for Inactive)
REMARK    1  A    between atoms: C_1  and  C_2
REMARK    2  A    between atoms: C_2  and  C_3
REMARK    3  A    between atoms: C_2  and  C_4
REMARK    4  A    between atoms: C_4  and  S_5
REMARK    5  A    between atoms: S_5  and  N_8
REMARK    6  A    between atoms: N_13  and  C_14
REMARK    7  A    between atoms: N_24  and  C_25
REMARK                            x       y       z     vdW  Elec       q    Type
REMARK                         _______ _______ _______ _____ _____    ______ ____
ROOT
ATOM      1  N   UNL     1       2.497   2.869  17.878  0.00  0.00    +0.000 NA
ATOM      2  C   UNL     1       3.738   2.081  17.906  0.00  0.00    +0.000 C 
ATOM      3  C   UNL     1       4.682   2.889  17.042  0.00  0.00    +0.000 C 
ATOM      4  C   UNL     1       4.329   4.363  17.343  0.00  0.00    +0.000 C 
ATOM      5  C   UNL     1       4.437   5.205  16.048  0.00  0.00    +0.000 C 
ATOM      6  N   UNL     1       5.814   5.304  15.592  0.00  0.00    +0.000 N 
ATOM      7  C   UNL     1       6.769   5.718  16.524  0.00  0.00    +0.000 C 
ATOM      8  O   UNL     1       7.813   6.300  16.223  0.00  0.00    +0.000 OA
ATOM      9  C   UNL     1       6.568   5.203  17.950  0.00  0.00    +0.000 C 
ATOM     10  N   UNL     1       5.163   5.026  18.378  0.00  0.00    +0.000 NA
ATOM     11  C   UNL     1       5.152   4.401  19.703  0.00  0.00    +0.000 C 
ATOM     12  C   UNL     1       2.821   4.306  17.722  0.00  0.00    +0.000 C 
ENDROOT
BRANCH   6  13
ATOM     13  C   UNL     1       6.187   4.858  14.287  0.00  0.00    +0.000 A 
ATOM     14  C   UNL     1       7.364   5.355  13.700  0.00  0.00    +0.000 A 
ATOM     15  C   UNL     1       7.833   4.853  12.483  0.00  0.00    +0.000 A 
ATOM     16  C   UNL     1       7.121   3.857  11.825  0.00  0.00    +0.000 A 
ATOM     17  C   UNL     1       5.950   3.369  12.388  0.00  0.00    +0.000 A 
ATOM     18  F   UNL     1       5.254   2.417  11.744  0.00  0.00    +0.000 F 
ATOM     19  C   UNL     1       5.478   3.857  13.605  0.00  0.00    +0.000 A 
ENDBRANCH   6  13
BRANCH   1  20
ATOM     20  S   UNL     1       1.286   2.478  18.976  0.00  0.00    +0.000 S 
ATOM     21  O   UNL     1       1.883   1.638  19.987  0.00  0.00    +0.000 OA
ATOM     22  O   UNL     1       0.153   1.995  18.210  0.00  0.00    +0.000 OA
BRANCH  20  23
ATOM     23  C   UNL     1       0.961   4.120  19.615  0.00  0.00    +0.000 C 
BRANCH  23  25
ATOM     24  C   UNL     1       1.803   6.142  20.863  0.00  0.00    +0.000 C 
ATOM     25  C   UNL     1       2.016   4.658  20.571  0.00  0.00    +0.000 C 
ATOM     26  C   UNL     1       2.135   3.791  21.828  0.00  0.00    +0.000 C 
ENDBRANCH  23  25
ENDBRANCH  20  23
ENDBRANCH   1  20
TORSDOF 4
ENDMDL
MODEL 7
REMARK VINA RESULT:      -6.7      3.612      7.705
REMARK  Name = 
REMARK  7 active torsions:
REMARK  status: ('A' for Active; 'I' for Inactive)
REMARK    1  A    between atoms: C_1  and  C_2
REMARK    2  A    between atoms: C_2  and  C_3
REMARK    3  A    between atoms: C_2  and  C_4
REMARK    4  A    between atoms: C_4  and  S_5
REMARK    5  A    between atoms: S_5  and  N_8
REMARK    6  A    between atoms: N_13  and  C_14
REMARK    7  A    between atoms: N_24  and  C_25
REMARK                            x       y       z     vdW  Elec       q    Type
REMARK                         _______ _______ _______ _____ _____    ______ ____
ROOT
ATOM      1  N   UNL     1       1.930   7.717  20.018  0.00  0.00    +0.000 NA
ATOM      2  C   UNL     1       1.308   7.253  18.769  0.00  0.00    +0.000 C 
ATOM      3  C   UNL     1       2.266   6.190  18.276  0.00  0.00    +0.000 C 
ATOM      4  C   UNL     1       2.772   5.491  19.559  0.00  0.00    +0.000 C 
ATOM      5  C   UNL     1       4.268   5.123  19.401  0.00  0.00    +0.000 C 
ATOM      6  N   UNL     1       4.459   4.095  18.391  0.00  0.00    +0.000 N 
ATOM      7  C   UNL     1       3.683   2.939  18.499  0.00  0.00    +0.000 C 
ATOM      8  O   UNL     1       4.030   1.837  18.071  0.00  0.00    +0.000 OA
ATOM      9  C   UNL     1       2.246   3.151  18.980  0.00  0.00    +0.000 C 
ATOM     10  N   UNL     1       2.047   4.254  19.946  0.00  0.00    +0.000 NA
ATOM     11  C   UNL     1       0.611   4.407  20.192  0.00  0.00    +0.000 C 
ATOM     12  C   UNL     1       2.691   6.608  20.639  0.00  0.00    +0.000 C 
ENDROOT
BRANCH   6  13
ATOM     13  C   UNL     1       5.303   4.326  17.262  0.00  0.00    +0.000 A 
ATOM     14  C   UNL     1       6.671   4.582  17.464  0.00  0.00    +0.000 A 
ATOM     15  C   UNL     1       7.555   4.686  16.388  0.00  0.00    +0.000 A 
ATOM     16  C   UNL     1       7.080   4.553  15.087  0.00  0.00    +0.000 A 
ATOM     17  C   UNL     1       5.729   4.315  14.875  0.00  0.00    +0.000 A 
ATOM     18  F   UNL     1       5.269   4.202  13.617  0.00  0.00    +0.000 F 
ATOM     19  C   UNL     1       4.841   4.201  15.943  0.00  0.00    +0.000 A 
ENDBRANCH   6  13
BRANCH   1  20
ATOM     20  S   UNL     1       1.018   8.682  21.048  0.00  0.00    +0.000 S 
ATOM     21  O   UNL     1       1.874   9.060  22.146  0.00  0.00    +0.000 OA
ATOM     22  O   UNL     1      -0.223   7.977  21.307  0.00  0.00    +0.000 OA
BRANCH  20  23
ATOM     23  C   UNL     1       0.738  10.064  19.944  0.00  0.00    +0.000 C 
BRANCH  23  25
ATOM     24  C   UNL     1      -1.164  11.681  20.300  0.00  0.00    +0.000 C 
ATOM     25  C   UNL     1      -0.726  10.369  19.653  0.00  0.00    +0.000 C 
ATOM     26  C   UNL     1      -1.034  10.284  18.155  0.00  0.00    +0.000 C 
ENDBRANCH  23  25
ENDBRANCH  20  23
ENDBRANCH   1  20
TORSDOF 4
ENDMDL
MODEL 8
REMARK VINA RESULT:      -6.7      6.401     11.001
REMARK  Name = 
REMARK  7 active torsions:
REMARK  status: ('A' for Active; 'I' for Inactive)
REMARK    1  A    between atoms: C_1  and  C_2
REMARK    2  A    between atoms: C_2  and  C_3
REMARK    3  A    between atoms: C_2  and  C_4
REMARK    4  A    between atoms: C_4  and  S_5
REMARK    5  A    between atoms: S_5  and  N_8
REMARK    6  A    between atoms: N_13  and  C_14
REMARK    7  A    between atoms: N_24  and  C_25
REMARK                            x       y       z     vdW  Elec       q    Type
REMARK                         _______ _______ _______ _____ _____    ______ ____
ROOT
ATOM      1  N   UNL     1      -3.621  12.320  21.028  0.00  0.00    +0.000 NA
ATOM      2  C   UNL     1      -2.543  12.471  22.015  0.00  0.00    +0.000 C 
ATOM      3  C   UNL     1      -1.319  11.985  21.271  0.00  0.00    +0.000 C 
ATOM      4  C   UNL     1      -1.528  12.460  19.814  0.00  0.00    +0.000 C 
ATOM      5  C   UNL     1      -1.000  11.387  18.831  0.00  0.00    +0.000 C 
ATOM      6  N   UNL     1       0.445  11.259  18.909  0.00  0.00    +0.000 N 
ATOM      7  C   UNL     1       1.199  12.430  18.802  0.00  0.00    +0.000 C 
ATOM      8  O   UNL     1       2.354  12.466  18.375  0.00  0.00    +0.000 OA
ATOM      9  C   UNL     1       0.595  13.668  19.470  0.00  0.00    +0.000 C 
ATOM     10  N   UNL     1      -0.881  13.748  19.458  0.00  0.00    +0.000 NA
ATOM     11  C   UNL     1      -1.293  14.909  20.253  0.00  0.00    +0.000 C 
ATOM     12  C   UNL     1      -3.076  12.493  19.662  0.00  0.00    +0.000 C 
ENDROOT
BRANCH   6  13
ATOM     13  C   UNL     1       1.054  10.005  19.224  0.00  0.00    +0.000 A 
ATOM     14  C   UNL     1       0.878   9.457  20.507  0.00  0.00    +0.000 A 
ATOM     15  C   UNL     1       1.346   8.178  20.819  0.00  0.00    +0.000 A 
ATOM     16  C   UNL     1       2.015   7.433  19.854  0.00  0.00    +0.000 A 
ATOM     17  C   UNL     1       2.207   7.970  18.588  0.00  0.00    +0.000 A 
ATOM     18  F   UNL     1       2.867   7.254  17.661  0.00  0.00    +0.000 F 
ATOM     19  C   UNL     1       1.737   9.241  18.266  0.00  0.00    +0.000 A 
ENDBRANCH   6  13
BRANCH   1  20
ATOM     20  S   UNL     1      -5.101  13.049  21.353  0.00  0.00    +0.000 S 
ATOM     21  O   UNL     1      -4.821  14.333  21.950  0.00  0.00    +0.000 OA
ATOM     22  O   UNL     1      -5.908  12.079  22.068  0.00  0.00    +0.000 OA
BRANCH  20  23
ATOM     23  C   UNL     1      -5.685  13.236  19.669  0.00  0.00    +0.000 C 
BRANCH  23  25
ATOM     24  C   UNL     1      -7.916  13.383  18.504  0.00  0.00    +0.000 C 
ATOM     25  C   UNL     1      -6.991  12.519  19.359  0.00  0.00    +0.000 C 
ATOM     26  C   UNL     1      -6.747  11.120  18.785  0.00  0.00    +0.000 C 
ENDBRANCH  23  25
ENDBRANCH  20  23
ENDBRANCH   1  20
TORSDOF 4
ENDMDL
MODEL 9
REMARK VINA RESULT:      -6.6      0.925      1.321
REMARK  Name = 
REMARK  7 active torsions:
REMARK  status: ('A' for Active; 'I' for Inactive)
REMARK    1  A    between atoms: C_1  and  C_2
REMARK    2  A    between atoms: C_2  and  C_3
REMARK    3  A    between atoms: C_2  and  C_4
REMARK    4  A    between atoms: C_4  and  S_5
REMARK    5  A    between atoms: S_5  and  N_8
REMARK    6  A    between atoms: N_13  and  C_14
REMARK    7  A    between atoms: N_24  and  C_25
REMARK                            x       y       z     vdW  Elec       q    Type
REMARK                         _______ _______ _______ _____ _____    ______ ____
ROOT
ATOM      1  N   UNL     1       5.774   5.552  16.350  0.00  0.00    +0.000 NA
ATOM      2  C   UNL     1       6.276   5.971  17.667  0.00  0.00    +0.000 C 
ATOM      3  C   UNL     1       5.013   6.298  18.433  0.00  0.00    +0.000 C 
ATOM      4  C   UNL     1       3.978   5.257  17.950  0.00  0.00    +0.000 C 
ATOM      5  C   UNL     1       2.580   5.914  17.846  0.00  0.00    +0.000 C 
ATOM      6  N   UNL     1       2.065   6.279  19.155  0.00  0.00    +0.000 N 
ATOM      7  C   UNL     1       2.065   5.290  20.142  0.00  0.00    +0.000 C 
ATOM      8  O   UNL     1       1.271   5.261  21.084  0.00  0.00    +0.000 OA
ATOM      9  C   UNL     1       3.270   4.346  20.131  0.00  0.00    +0.000 C 
ATOM     10  N   UNL     1       3.839   4.046  18.800  0.00  0.00    +0.000 NA
ATOM     11  C   UNL     1       5.057   3.251  18.980  0.00  0.00    +0.000 C 
ATOM     12  C   UNL     1       4.436   4.933  16.499  0.00  0.00    +0.000 C 
ENDROOT
BRANCH   6  13
ATOM     13  C   UNL     1       1.708   7.630  19.452  0.00  0.00    +0.000 A 
ATOM     14  C   UNL     1       1.352   7.976  20.767  0.00  0.00    +0.000 A 
ATOM     15  C   UNL     1       1.120   9.305  21.129  0.00  0.00    +0.000 A 
ATOM     16  C   UNL     1       1.225  10.310  20.174  0.00  0.00    +0.000 A 
ATOM     17  C   UNL     1       1.562   9.979  18.868  0.00  0.00    +0.000 A 
ATOM     18  F   UNL     1       1.648  10.949  17.943  0.00  0.00    +0.000 F 
ATOM     19  C   UNL     1       1.803   8.656  18.500  0.00  0.00    +0.000 A 
ENDBRANCH   6  13
BRANCH   1  20
ATOM     20  S   UNL     1       6.845   4.800  15.296  0.00  0.00    +0.000 S 
ATOM     21  O   UNL     1       7.298   3.591  15.941  0.00  0.00    +0.000 OA
ATOM     22  O   UNL     1       7.808   5.801  14.878  0.00  0.00    +0.000 OA
BRANCH  20  23
ATOM     23  C   UNL     1       5.702   4.431  13.967  0.00  0.00    +0.000 C 
BRANCH  23  25
ATOM     24  C   UNL     1       5.190   3.003  11.954  0.00  0.00    +0.000 C 
ATOM     25  C   UNL     1       6.286   3.613  12.824  0.00  0.00    +0.000 C 
ATOM     26  C   UNL     1       7.332   4.408  12.036  0.00  0.00    +0.000 C 
ENDBRANCH  23  25
ENDBRANCH  20  23
ENDBRANCH   1  20
TORSDOF 4
ENDMDL
