MODEL 1
REMARK VINA RESULT:      -6.5      0.000      0.000
REMARK  Name = 
REMARK  7 active torsions:
REMARK  status: ('A' for Active; 'I' for Inactive)
REMARK    1  A    between atoms: C_1  and  C_2
REMARK    2  A    between atoms: C_2  and  O_3
REMARK    3  A    between atoms: O_3  and  C_4
REMARK    4  A    between atoms: N_9  and  C_10
REMARK    5  A    between atoms: C_10  and  C_11
REMARK    6  A    between atoms: C_11  and  O_12
REMARK    7  A    between atoms: C_18  and  C_19
REMARK                            x       y       z     vdW  Elec       q    Type
REMARK                         _______ _______ _______ _____ _____    ______ ____
ROOT
ATOM      1  C   UNL     1       3.073   6.894  19.518  0.00  0.00    +0.000 C 
ATOM      2  C   UNL     1       4.193   7.092  18.469  0.00  0.00    +0.000 C 
ATOM      3  C   UNL     1       4.680   5.695  17.955  0.00  0.00    +0.000 C 
ATOM      4  C   UNL     1       6.201   5.530  18.188  0.00  0.00    +0.000 C 
ATOM      5  C   UNL     1       7.040   6.325  17.178  0.00  0.00    +0.000 C 
ATOM      6  N   UNL     1       6.708   6.036  15.770  0.00  0.00    +0.000 NA
ATOM      7  C   UNL     1       5.276   6.292  15.547  0.00  0.00    +0.000 C 
ATOM      8  C   UNL     1       4.349   5.487  16.463  0.00  0.00    +0.000 C 
ATOM      9  C   UNL     1       3.901   4.739  18.834  0.00  0.00    +0.000 A 
ATOM     10  C   UNL     1       3.912   3.350  18.810  0.00  0.00    +0.000 A 
ATOM     11  C   UNL     1       3.094   2.639  19.695  0.00  0.00    +0.000 A 
ATOM     12  C   UNL     1       2.307   3.315  20.642  0.00  0.00    +0.000 A 
ATOM     13  C   UNL     1       1.351   2.588  21.542  0.00  0.00    +0.000 C 
ATOM     14  C   UNL     1       2.354   4.711  20.693  0.00  0.00    +0.000 A 
ATOM     15  C   UNL     1       3.091   5.413  19.746  0.00  0.00    +0.000 A 
ENDROOT
BRANCH   1  16
ATOM     16  O   UNL     1       1.839   7.350  18.949  0.00  0.00    +0.000 OA
BRANCH  16  18
ATOM     17  C   UNL     1       1.085   9.474  18.094  0.00  0.00    +0.000 C 
ATOM     18  C   UNL     1       2.006   8.291  17.891  0.00  0.00    +0.000 C 
ENDBRANCH  16  18
ENDBRANCH   1  16
BRANCH   6  19
ATOM     19  C   UNL     1       7.156   4.679  15.393  0.00  0.00    +0.000 C 
BRANCH  19  20
ATOM     20  C   UNL     1       7.048   4.361  13.891  0.00  0.00    +0.000 C 
BRANCH  20  21
ATOM     21  O   UNL     1       6.249   3.202  13.681  0.00  0.00    +0.000 OA
ATOM     22  H   UNL     1       6.387   2.649  14.477  0.00  0.00    +0.000 HD
ENDBRANCH  20  21
ENDBRANCH  19  20
ENDBRANCH   6  19
TORSDOF 5
ENDMDL
MODEL 2
REMARK VINA RESULT:      -6.4      2.861      6.064
REMARK  Name = 
REMARK  7 active torsions:
REMARK  status: ('A' for Active; 'I' for Inactive)
REMARK    1  A    between atoms: C_1  and  C_2
REMARK    2  A    between atoms: C_2  and  O_3
REMARK    3  A    between atoms: O_3  and  C_4
REMARK    4  A    between atoms: N_9  and  C_10
REMARK    5  A    between atoms: C_10  and  C_11
REMARK    6  A    between atoms: C_11  and  O_12
REMARK    7  A    between atoms: C_18  and  C_19
REMARK                            x       y       z     vdW  Elec       q    Type
REMARK                         _______ _______ _______ _____ _____    ______ ____
ROOT
ATOM      1  C   UNL     1       6.437   6.542  17.420  0.00  0.00    +0.000 C 
ATOM      2  C   UNL     1       5.351   5.977  18.365  0.00  0.00    +0.000 C 
ATOM      3  C   UNL     1       4.742   4.675  17.743  0.00  0.00    +0.000 C 
ATOM      4  C   UNL     1       3.210   4.816  17.577  0.00  0.00    +0.000 C 
ATOM      5  C   UNL     1       2.458   4.672  18.907  0.00  0.00    +0.000 C 
ATOM      6  N   UNL     1       2.777   3.432  19.640  0.00  0.00    +0.000 NA
ATOM      7  C   UNL     1       4.228   3.365  19.872  0.00  0.00    +0.000 C 
ATOM      8  C   UNL     1       5.068   3.429  18.593  0.00  0.00    +0.000 C 
ATOM      9  C   UNL     1       5.421   4.617  16.391  0.00  0.00    +0.000 A 
ATOM     10  C   UNL     1       5.282   3.650  15.404  0.00  0.00    +0.000 A 
ATOM     11  C   UNL     1       6.022   3.761  14.221  0.00  0.00    +0.000 A 
ATOM     12  C   UNL     1       6.858   4.869  14.002  0.00  0.00    +0.000 A 
ATOM     13  C   UNL     1       7.734   4.972  12.788  0.00  0.00    +0.000 C 
ATOM     14  C   UNL     1       6.940   5.863  14.981  0.00  0.00    +0.000 A 
ATOM     15  C   UNL     1       6.280   5.695  16.193  0.00  0.00    +0.000 A 
ENDROOT
BRANCH   1  16
ATOM     16  O   UNL     1       7.714   6.371  18.049  0.00  0.00    +0.000 OA
BRANCH  16  18
ATOM     17  C   UNL     1       7.902   8.747  17.691  0.00  0.00    +0.000 C 
ATOM     18  C   UNL     1       8.261   7.576  18.579  0.00  0.00    +0.000 C 
ENDBRANCH  16  18
ENDBRANCH   1  16
BRANCH   6  19
ATOM     19  C   UNL     1       2.209   2.255  18.949  0.00  0.00    +0.000 C 
BRANCH  19  20
ATOM     20  C   UNL     1       0.701   2.351  18.652  0.00  0.00    +0.000 C 
BRANCH  20  21
ATOM     21  O   UNL     1      -0.031   2.578  19.852  0.00  0.00    +0.000 OA
ATOM     22  H   UNL     1      -0.973   2.504  19.595  0.00  0.00    +0.000 HD
ENDBRANCH  20  21
ENDBRANCH  19  20
ENDBRANCH   6  19
TORSDOF 5
ENDMDL
MODEL 3
REMARK VINA RESULT:      -6.4      1.390      1.420
REMARK  Name = 
REMARK  7 active torsions:
REMARK  status: ('A' for Active; 'I' for Inactive)
REMARK    1  A    between atoms: C_1  and  C_2
REMARK    2  A    between atoms: C_2  and  O_3
REMARK    3  A    between atoms: O_3  and  C_4
REMARK    4  A    between atoms: N_9  and  C_10
REMARK    5  A    between atoms: C_10  and  C_11
REMARK    6  A    between atoms: C_11  and  O_12
REMARK    7  A    between atoms: C_18  and  C_19
REMARK                            x       y       z     vdW  Elec       q    Type
REMARK                         _______ _______ _______ _____ _____    ______ ____
ROOT
ATOM      1  C   UNL     1       3.223   6.101  19.437  0.00  0.00    +0.000 C 
ATOM      2  C   UNL     1       4.537   6.405  18.679  0.00  0.00    +0.000 C 
ATOM      3  C   UNL     1       4.825   5.258  17.652  0.00  0.00    +0.000 C 
ATOM      4  C   UNL     1       6.212   4.626  17.919  0.00  0.00    +0.000 C 
ATOM      5  C   UNL     1       7.366   5.512  17.431  0.00  0.00    +0.000 C 
ATOM      6  N   UNL     1       7.253   5.910  16.015  0.00  0.00    +0.000 NA
ATOM      7  C   UNL     1       5.968   6.596  15.804  0.00  0.00    +0.000 C 
ATOM      8  C   UNL     1       4.745   5.761  16.196  0.00  0.00    +0.000 C 
ATOM      9  C   UNL     1       3.722   4.268  17.958  0.00  0.00    +0.000 A 
ATOM     10  C   UNL     1       3.462   3.055  17.333  0.00  0.00    +0.000 A 
ATOM     11  C   UNL     1       2.367   2.286  17.748  0.00  0.00    +0.000 A 
ATOM     12  C   UNL     1       1.567   2.704  18.823  0.00  0.00    +0.000 A 
ATOM     13  C   UNL     1       0.334   1.951  19.232  0.00  0.00    +0.000 C 
ATOM     14  C   UNL     1       1.879   3.898  19.480  0.00  0.00    +0.000 A 
ATOM     15  C   UNL     1       2.905   4.703  18.999  0.00  0.00    +0.000 A 
ENDROOT
BRANCH   1  16
ATOM     16  O   UNL     1       2.233   7.049  19.021  0.00  0.00    +0.000 OA
BRANCH  16  18
ATOM     17  C   UNL     1       1.693   9.114  17.898  0.00  0.00    +0.000 C 
ATOM     18  C   UNL     1       2.716   8.015  18.089  0.00  0.00    +0.000 C 
ENDBRANCH  16  18
ENDBRANCH   1  16
BRANCH   6  19
ATOM     19  C   UNL     1       7.487   4.753  15.125  0.00  0.00    +0.000 C 
BRANCH  19  20
ATOM     20  C   UNL     1       7.474   5.086  13.623  0.00  0.00    +0.000 C 
BRANCH  20  21
ATOM     21  O   UNL     1       8.587   5.906  13.282  0.00  0.00    +0.000 OA
ATOM     22  H   UNL     1       9.340   5.289  13.184  0.00  0.00    +0.000 HD
ENDBRANCH  20  21
ENDBRANCH  19  20
ENDBRANCH   6  19
TORSDOF 5
ENDMDL
MODEL 4
REMARK VINA RESULT:      -6.2      2.936      5.461
REMARK  Name = 
REMARK  7 active torsions:
REMARK  status: ('A' for Active; 'I' for Inactive)
REMARK    1  A    between atoms: C_1  and  C_2
REMARK    2  A    between atoms: C_2  and  O_3
REMARK    3  A    between atoms: O_3  and  C_4
REMARK    4  A    between atoms: N_9  and  C_10
REMARK    5  A    between atoms: C_10  and  C_11
REMARK    6  A    between atoms: C_11  and  O_12
REMARK    7  A    between atoms: C_18  and  C_19
REMARK                            x       y       z     vdW  Elec       q    Type
REMARK                         _______ _______ _______ _____ _____    ______ ____
ROOT
ATOM      1  C   UNL     1       2.995   7.542  17.351  0.00  0.00    +0.000 C 
ATOM      2  C   UNL     1       1.975   6.474  17.813  0.00  0.00    +0.000 C 
ATOM      3  C   UNL     1       2.729   5.319  18.555  0.00  0.00    +0.000 C 
ATOM      4  C   UNL     1       2.443   3.959  17.873  0.00  0.00    +0.000 C 
ATOM      5  C   UNL     1       1.047   3.417  18.203  0.00  0.00    +0.000 C 
ATOM      6  N   UNL     1       0.769   3.328  19.649  0.00  0.00    +0.000 NA
ATOM      7  C   UNL     1       0.952   4.654  20.261  0.00  0.00    +0.000 C 
ATOM      8  C   UNL     1       2.346   5.251  20.048  0.00  0.00    +0.000 C 
ATOM      9  C   UNL     1       4.180   5.711  18.371  0.00  0.00    +0.000 A 
ATOM     10  C   UNL     1       5.310   5.059  18.847  0.00  0.00    +0.000 A 
ATOM     11  C   UNL     1       6.576   5.600  18.591  0.00  0.00    +0.000 A 
ATOM     12  C   UNL     1       6.714   6.761  17.813  0.00  0.00    +0.000 A 
ATOM     13  C   UNL     1       8.047   7.417  17.598  0.00  0.00    +0.000 C 
ATOM     14  C   UNL     1       5.569   7.370  17.292  0.00  0.00    +0.000 A 
ATOM     15  C   UNL     1       4.312   6.885  17.633  0.00  0.00    +0.000 A 
ENDROOT
BRANCH   1  16
ATOM     16  O   UNL     1       2.790   8.727  18.131  0.00  0.00    +0.000 OA
BRANCH  16  18
ATOM     17  C   UNL     1       0.897   9.808  19.159  0.00  0.00    +0.000 C 
ATOM     18  C   UNL     1       1.554   9.386  17.863  0.00  0.00    +0.000 C 
ENDBRANCH  16  18
ENDBRANCH   1  16
BRANCH   6  19
ATOM     19  C   UNL     1       1.564   2.248  20.270  0.00  0.00    +0.000 C 
BRANCH  19  20
ATOM     20  C   UNL     1       1.781   2.401  21.786  0.00  0.00    +0.000 C 
BRANCH  20  21
ATOM     21  O   UNL     1       3.159   2.248  22.113  0.00  0.00    +0.000 OA
ATOM     22  H   UNL     1       3.645   2.563  21.324  0.00  0.00    +0.000 HD
ENDBRANCH  20  21
ENDBRANCH  19  20
ENDBRANCH   6  19
TORSDOF 5
ENDMDL
MODEL 5
REMARK VINA RESULT:      -6.1      2.727      6.370
REMARK  Name = 
REMARK  7 active torsions:
REMARK  status: ('A' for Active; 'I' for Inactive)
REMARK    1  A    between atoms: C_1  and  C_2
REMARK    2  A    between atoms: C_2  and  O_3
REMARK    3  A    between atoms: O_3  and  C_4
REMARK    4  A    between atoms: N_9  and  C_10
REMARK    5  A    between atoms: C_10  and  C_11
REMARK    6  A    between atoms: C_11  and  O_12
REMARK    7  A    between atoms: C_18  and  C_19
REMARK                            x       y       z     vdW  Elec       q    Type
REMARK                         _______ _______ _______ _____ _____    ______ ____
ROOT
ATOM      1  C   UNL     1       5.802   3.750  15.798  0.00  0.00    +0.000 C 
ATOM      2  C   UNL     1       4.640   2.984  16.476  0.00  0.00    +0.000 C 
ATOM      3  C   UNL     1       4.110   3.812  17.695  0.00  0.00    +0.000 C 
ATOM      4  C   UNL     1       4.190   2.977  18.995  0.00  0.00    +0.000 C 
ATOM      5  C   UNL     1       3.083   1.918  19.084  0.00  0.00    +0.000 C 
ATOM      6  N   UNL     1       1.723   2.462  18.913  0.00  0.00    +0.000 NA
ATOM      7  C   UNL     1       1.641   3.170  17.626  0.00  0.00    +0.000 C 
ATOM      8  C   UNL     1       2.664   4.300  17.469  0.00  0.00    +0.000 C 
ATOM      9  C   UNL     1       5.084   4.970  17.746  0.00  0.00    +0.000 A 
ATOM     10  C   UNL     1       5.089   6.048  18.622  0.00  0.00    +0.000 A 
ATOM     11  C   UNL     1       6.068   7.039  18.490  0.00  0.00    +0.000 A 
ATOM     12  C   UNL     1       7.075   6.924  17.518  0.00  0.00    +0.000 A 
ATOM     13  C   UNL     1       8.084   8.013  17.289  0.00  0.00    +0.000 C 
ATOM     14  C   UNL     1       7.091   5.803  16.684  0.00  0.00    +0.000 A 
ATOM     15  C   UNL     1       6.059   4.875  16.755  0.00  0.00    +0.000 A 
ENDROOT
BRANCH   1  16
ATOM     16  O   UNL     1       5.352   4.207  14.516  0.00  0.00    +0.000 OA
BRANCH  16  18
ATOM     17  C   UNL     1       5.530   3.301  12.289  0.00  0.00    +0.000 C 
ATOM     18  C   UNL     1       6.262   3.931  13.454  0.00  0.00    +0.000 C 
ENDBRANCH  16  18
ENDBRANCH   1  16
BRANCH   6  19
ATOM     19  C   UNL     1       1.332   3.272  20.086  0.00  0.00    +0.000 C 
BRANCH  19  20
ATOM     20  C   UNL     1       1.455   2.545  21.437  0.00  0.00    +0.000 C 
BRANCH  20  21
ATOM     21  O   UNL     1       2.366   3.228  22.292  0.00  0.00    +0.000 OA
ATOM     22  H   UNL     1       2.068   4.160  22.292  0.00  0.00    +0.000 HD
ENDBRANCH  20  21
ENDBRANCH  19  20
ENDBRANCH   6  19
TORSDOF 5
ENDMDL
MODEL 6
REMARK VINA RESULT:      -6.0      1.256      1.362
REMARK  Name = 
REMARK  7 active torsions:
REMARK  status: ('A' for Active; 'I' for Inactive)
REMARK    1  A    between atoms: C_1  and  C_2
REMARK    2  A    between atoms: C_2  and  O_3
REMARK    3  A    between atoms: O_3  and  C_4
REMARK    4  A    between atoms: N_9  and  C_10
REMARK    5  A    between atoms: C_10  and  C_11
REMARK    6  A    between atoms: C_11  and  O_12
REMARK    7  A    between atoms: C_18  and  C_19
REMARK                            x       y       z     vdW  Elec       q    Type
REMARK                         _______ _______ _______ _____ _____    ______ ____
ROOT
ATOM      1  C   UNL     1       3.085   6.227  19.404  0.00  0.00    +0.000 C 
ATOM      2  C   UNL     1       4.416   6.519  18.672  0.00  0.00    +0.000 C 
ATOM      3  C   UNL     1       4.763   5.323  17.722  0.00  0.00    +0.000 C 
ATOM      4  C   UNL     1       6.154   4.739  18.069  0.00  0.00    +0.000 C 
ATOM      5  C   UNL     1       7.304   5.623  17.569  0.00  0.00    +0.000 C 
ATOM      6  N   UNL     1       7.231   5.938  16.130  0.00  0.00    +0.000 NA
ATOM      7  C   UNL     1       5.939   6.580  15.839  0.00  0.00    +0.000 C 
ATOM      8  C   UNL     1       4.722   5.740  16.238  0.00  0.00    +0.000 C 
ATOM      9  C   UNL     1       3.672   4.326  18.049  0.00  0.00    +0.000 A 
ATOM     10  C   UNL     1       3.459   3.073  17.486  0.00  0.00    +0.000 A 
ATOM     11  C   UNL     1       2.368   2.304  17.908  0.00  0.00    +0.000 A 
ATOM     12  C   UNL     1       1.524   2.763  18.932  0.00  0.00    +0.000 A 
ATOM     13  C   UNL     1       0.294   2.006  19.344  0.00  0.00    +0.000 C 
ATOM     14  C   UNL     1       1.788   3.999  19.529  0.00  0.00    +0.000 A 
ATOM     15  C   UNL     1       2.811   4.800  19.036  0.00  0.00    +0.000 A 
ENDROOT
BRANCH   1  16
ATOM     16  O   UNL     1       2.089   7.127  18.902  0.00  0.00    +0.000 OA
BRANCH  16  18
ATOM     17  C   UNL     1       1.255   7.854  21.044  0.00  0.00    +0.000 C 
ATOM     18  C   UNL     1       1.876   8.269  19.728  0.00  0.00    +0.000 C 
ENDBRANCH  16  18
ENDBRANCH   1  16
BRANCH   6  19
ATOM     19  C   UNL     1       7.519   4.738  15.316  0.00  0.00    +0.000 C 
BRANCH  19  20
ATOM     20  C   UNL     1       6.871   4.739  13.920  0.00  0.00    +0.000 C 
BRANCH  20  21
ATOM     21  O   UNL     1       6.365   3.446  13.602  0.00  0.00    +0.000 OA
ATOM     22  H   UNL     1       5.759   3.587  12.846  0.00  0.00    +0.000 HD
ENDBRANCH  20  21
ENDBRANCH  19  20
ENDBRANCH   6  19
TORSDOF 5
ENDMDL
MODEL 7
REMARK VINA RESULT:      -6.0      2.616      6.109
REMARK  Name = 
REMARK  7 active torsions:
REMARK  status: ('A' for Active; 'I' for Inactive)
REMARK    1  A    between atoms: C_1  and  C_2
REMARK    2  A    between atoms: C_2  and  O_3
REMARK    3  A    between atoms: O_3  and  C_4
REMARK    4  A    between atoms: N_9  and  C_10
REMARK    5  A    between atoms: C_10  and  C_11
REMARK    6  A    between atoms: C_11  and  O_12
REMARK    7  A    between atoms: C_18  and  C_19
REMARK                            x       y       z     vdW  Elec       q    Type
REMARK                         _______ _______ _______ _____ _____    ______ ____
ROOT
ATOM      1  C   UNL     1       6.254   6.791  16.322  0.00  0.00    +0.000 C 
ATOM      2  C   UNL     1       5.363   6.542  17.562  0.00  0.00    +0.000 C 
ATOM      3  C   UNL     1       4.766   5.096  17.494  0.00  0.00    +0.000 C 
ATOM      4  C   UNL     1       3.219   5.143  17.543  0.00  0.00    +0.000 C 
ATOM      5  C   UNL     1       2.684   5.424  18.953  0.00  0.00    +0.000 C 
ATOM      6  N   UNL     1       3.196   4.497  19.980  0.00  0.00    +0.000 NA
ATOM      7  C   UNL     1       4.667   4.540  19.982  0.00  0.00    +0.000 C 
ATOM      8  C   UNL     1       5.302   4.201  18.630  0.00  0.00    +0.000 C 
ATOM      9  C   UNL     1       5.240   4.615  16.139  0.00  0.00    +0.000 A 
ATOM     10  C   UNL     1       5.028   3.376  15.547  0.00  0.00    +0.000 A 
ATOM     11  C   UNL     1       5.577   3.112  14.286  0.00  0.00    +0.000 A 
ATOM     12  C   UNL     1       6.288   4.106  13.594  0.00  0.00    +0.000 A 
ATOM     13  C   UNL     1       6.967   3.827  12.284  0.00  0.00    +0.000 C 
ATOM     14  C   UNL     1       6.441   5.366  14.178  0.00  0.00    +0.000 A 
ATOM     15  C   UNL     1       5.980   5.588  15.471  0.00  0.00    +0.000 A 
ENDROOT
BRANCH   1  16
ATOM     16  O   UNL     1       7.619   6.861  16.756  0.00  0.00    +0.000 OA
BRANCH  16  18
ATOM     17  C   UNL     1       8.255   8.814  18.017  0.00  0.00    +0.000 C 
ATOM     18  C   UNL     1       7.777   7.380  18.075  0.00  0.00    +0.000 C 
ENDBRANCH  16  18
ENDBRANCH   1  16
BRANCH   6  19
ATOM     19  C   UNL     1       2.619   3.148  19.802  0.00  0.00    +0.000 C 
BRANCH  19  20
ATOM     20  C   UNL     1       1.446   2.822  20.743  0.00  0.00    +0.000 C 
BRANCH  20  21
ATOM     21  O   UNL     1       1.902   2.689  22.085  0.00  0.00    +0.000 OA
ATOM     22  H   UNL     1       1.199   3.089  22.635  0.00  0.00    +0.000 HD
ENDBRANCH  20  21
ENDBRANCH  19  20
ENDBRANCH   6  19
TORSDOF 5
ENDMDL
MODEL 8
REMARK VINA RESULT:      -5.9      1.552      3.825
REMARK  Name = 
REMARK  7 active torsions:
REMARK  status: ('A' for Active; 'I' for Inactive)
REMARK    1  A    between atoms: C_1  and  C_2
REMARK    2  A    between atoms: C_2  and  O_3
REMARK    3  A    between atoms: O_3  and  C_4
REMARK    4  A    between atoms: N_9  and  C_10
REMARK    5  A    between atoms: C_10  and  C_11
REMARK    6  A    between atoms: C_11  and  O_12
REMARK    7  A    between atoms: C_18  and  C_19
REMARK                            x       y       z     vdW  Elec       q    Type
REMARK                         _______ _______ _______ _____ _____    ______ ____
ROOT
ATOM      1  C   UNL     1       2.880   4.614  19.149  0.00  0.00    +0.000 C 
ATOM      2  C   UNL     1       4.056   4.046  18.320  0.00  0.00    +0.000 C 
ATOM      3  C   UNL     1       4.710   5.197  17.483  0.00  0.00    +0.000 C 
ATOM      4  C   UNL     1       4.693   4.849  15.975  0.00  0.00    +0.000 C 
ATOM      5  C   UNL     1       5.759   3.812  15.598  0.00  0.00    +0.000 C 
ATOM      6  N   UNL     1       7.124   4.181  16.019  0.00  0.00    +0.000 NA
ATOM      7  C   UNL     1       7.138   4.413  17.472  0.00  0.00    +0.000 C 
ATOM      8  C   UNL     1       6.154   5.489  17.941  0.00  0.00    +0.000 C 
ATOM      9  C   UNL     1       3.790   6.365  17.770  0.00  0.00    +0.000 A 
ATOM     10  C   UNL     1       3.895   7.671  17.309  0.00  0.00    +0.000 A 
ATOM     11  C   UNL     1       2.950   8.622  17.711  0.00  0.00    +0.000 A 
ATOM     12  C   UNL     1       1.870   8.255  18.529  0.00  0.00    +0.000 A 
ATOM     13  C   UNL     1       0.893   9.267  19.054  0.00  0.00    +0.000 C 
ATOM     14  C   UNL     1       1.746   6.923  18.935  0.00  0.00    +0.000 A 
ATOM     15  C   UNL     1       2.742   6.008  18.614  0.00  0.00    +0.000 A 
ENDROOT
BRANCH   1  16
ATOM     16  O   UNL     1       3.252   4.589  20.533  0.00  0.00    +0.000 OA
BRANCH  16  18
ATOM     17  C   UNL     1       1.187   3.354  20.687  0.00  0.00    +0.000 C 
ATOM     18  C   UNL     1       2.185   4.232  21.410  0.00  0.00    +0.000 C 
ENDBRANCH  16  18
ENDBRANCH   1  16
BRANCH   6  19
ATOM     19  C   UNL     1       7.634   5.308  15.210  0.00  0.00    +0.000 C 
BRANCH  19  20
ATOM     20  C   UNL     1       7.574   5.086  13.688  0.00  0.00    +0.000 C 
BRANCH  20  21
ATOM     21  O   UNL     1       8.593   5.833  13.033  0.00  0.00    +0.000 OA
ATOM     22  H   UNL     1       8.165   6.672  12.768  0.00  0.00    +0.000 HD
ENDBRANCH  20  21
ENDBRANCH  19  20
ENDBRANCH   6  19
TORSDOF 5
ENDMDL
MODEL 9
REMARK VINA RESULT:      -5.9      2.641      5.815
REMARK  Name = 
REMARK  7 active torsions:
REMARK  status: ('A' for Active; 'I' for Inactive)
REMARK    1  A    between atoms: C_1  and  C_2
REMARK    2  A    between atoms: C_2  and  O_3
REMARK    3  A    between atoms: O_3  and  C_4
REMARK    4  A    between atoms: N_9  and  C_10
REMARK    5  A    between atoms: C_10  and  C_11
REMARK    6  A    between atoms: C_11  and  O_12
REMARK    7  A    between atoms: C_18  and  C_19
REMARK                            x       y       z     vdW  Elec       q    Type
REMARK                         _______ _______ _______ _____ _____    ______ ____
ROOT
ATOM      1  C   UNL     1       5.186   7.107  16.856  0.00  0.00    +0.000 C 
ATOM      2  C   UNL     1       4.216   6.661  17.976  0.00  0.00    +0.000 C 
ATOM      3  C   UNL     1       3.992   5.113  17.887  0.00  0.00    +0.000 C 
ATOM      4  C   UNL     1       2.487   4.790  17.729  0.00  0.00    +0.000 C 
ATOM      5  C   UNL     1       1.711   4.945  19.044  0.00  0.00    +0.000 C 
ATOM      6  N   UNL     1       2.281   4.174  20.166  0.00  0.00    +0.000 NA
ATOM      7  C   UNL     1       3.685   4.567  20.361  0.00  0.00    +0.000 C 
ATOM      8  C   UNL     1       4.563   4.381  19.119  0.00  0.00    +0.000 C 
ATOM      9  C   UNL     1       4.749   4.751  16.626  0.00  0.00    +0.000 A 
ATOM     10  C   UNL     1       4.919   3.493  16.061  0.00  0.00    +0.000 A 
ATOM     11  C   UNL     1       5.682   3.359  14.895  0.00  0.00    +0.000 A 
ATOM     12  C   UNL     1       6.228   4.489  14.264  0.00  0.00    +0.000 A 
ATOM     13  C   UNL     1       7.126   4.372  13.067  0.00  0.00    +0.000 C 
ATOM     14  C   UNL     1       5.996   5.753  14.814  0.00  0.00    +0.000 A 
ATOM     15  C   UNL     1       5.323   5.868  16.024  0.00  0.00    +0.000 A 
ENDROOT
BRANCH   1  16
ATOM     16  O   UNL     1       6.422   7.504  17.464  0.00  0.00    +0.000 OA
BRANCH  16  18
ATOM     17  C   UNL     1       7.827   6.173  18.901  0.00  0.00    +0.000 C 
ATOM     18  C   UNL     1       7.412   6.479  17.478  0.00  0.00    +0.000 C 
ENDBRANCH  16  18
ENDBRANCH   1  16
BRANCH   6  19
ATOM     19  C   UNL     1       2.069   2.725  19.966  0.00  0.00    +0.000 C 
BRANCH  19  20
ATOM     20  C   UNL     1       0.678   2.348  19.425  0.00  0.00    +0.000 C 
BRANCH  20  21
ATOM     21  O   UNL     1       0.796   1.627  18.203  0.00  0.00    +0.000 OA
ATOM     22  H   UNL     1       0.641   2.290  17.499  0.00  0.00    +0.000 HD
ENDBRANCH  20  21
ENDBRANCH  19  20
ENDBRANCH   6  19
TORSDOF 5
ENDMDL
