MODEL 1
REMARK VINA RESULT:      -7.0      0.000      0.000
REMARK  Name = 
REMARK  7 active torsions:
REMARK  status: ('A' for Active; 'I' for Inactive)
REMARK    1  A    between atoms: C_1  and  C_2
REMARK    2  A    between atoms: C_2  and  N_3
REMARK    3  A    between atoms: C_2  and  C_15
REMARK    4  A    between atoms: C_15  and  O_16
REMARK    5  A    between atoms: C_15  and  C_17
REMARK    6  A    between atoms: C_15  and  C_23
REMARK    7  A    between atoms: C_17  and  N_18
REMARK                            x       y       z     vdW  Elec       q    Type
REMARK                         _______ _______ _______ _____ _____    ______ ____
ROOT
ATOM      1  C   UNL     1      -0.862  11.317  19.683  0.00  0.00    +0.000 C 
ENDROOT
BRANCH   1   2
ATOM      2  C   UNL     1      -1.555  12.116  20.805  0.00  0.00    +0.000 A 
ATOM      3  C   UNL     1      -2.297  13.283  20.569  0.00  0.00    +0.000 A 
ATOM      4  C   UNL     1      -2.738  14.094  21.619  0.00  0.00    +0.000 A 
ATOM      5  C   UNL     1      -2.528  13.697  22.929  0.00  0.00    +0.000 A 
ATOM      6  F   UNL     1      -2.937  14.484  23.932  0.00  0.00    +0.000 F 
ATOM      7  C   UNL     1      -1.910  12.491  23.207  0.00  0.00    +0.000 A 
ATOM      8  C   UNL     1      -1.429  11.722  22.150  0.00  0.00    +0.000 A 
ATOM      9  F   UNL     1      -0.797  10.573  22.438  0.00  0.00    +0.000 F 
ENDBRANCH   1   2
BRANCH   1  11
ATOM     10  C   UNL     1       1.587  12.238  19.459  0.00  0.00    +0.000 C 
ATOM     11  C   UNL     1       0.697  11.051  19.875  0.00  0.00    +0.000 C 
BRANCH  11  12
ATOM     12  N   UNL     1       1.253   9.825  19.232  0.00  0.00    +0.000 N 
ATOM     13  C   UNL     1       1.825   9.846  17.979  0.00  0.00    +0.000 A 
ATOM     14  N   UNL     1       2.479   8.865  17.444  0.00  0.00    +0.000 NA
ATOM     15  C   UNL     1       2.655   7.700  18.196  0.00  0.00    +0.000 A 
ATOM     16  C   UNL     1       3.406   6.643  17.682  0.00  0.00    +0.000 A 
ATOM     17  C   UNL     1       3.598   5.485  18.435  0.00  0.00    +0.000 A 
ATOM     18  F   UNL     1       4.341   4.489  17.938  0.00  0.00    +0.000 F 
ATOM     19  C   UNL     1       3.040   5.344  19.702  0.00  0.00    +0.000 A 
ATOM     20  C   UNL     1       2.283   6.386  20.226  0.00  0.00    +0.000 A 
ATOM     21  C   UNL     1       2.108   7.555  19.473  0.00  0.00    +0.000 A 
ATOM     22  C   UNL     1       1.376   8.692  20.031  0.00  0.00    +0.000 A 
ATOM     23  O   UNL     1       0.911   8.587  21.168  0.00  0.00    +0.000 OA
ENDBRANCH  11  12
ENDBRANCH   1  11
BRANCH   1  24
ATOM     24  O   UNL     1      -1.490  10.005  19.659  0.00  0.00    +0.000 OA
ATOM     25  H   UNL     1      -1.051   9.457  18.981  0.00  0.00    +0.000 HD
ENDBRANCH   1  24
BRANCH   1  26
ATOM     26  C   UNL     1      -1.156  11.941  18.283  0.00  0.00    +0.000 C 
BRANCH  26  27
ATOM     27  N   UNL     1      -2.132  11.264  17.466  0.00  0.00    +0.000 N 
ATOM     28  C   UNL     1      -3.453  11.556  17.333  0.00  0.00    +0.000 A 
ATOM     29  N   UNL     1      -4.026  10.655  16.568  0.00  0.00    +0.000 NA
ATOM     30  C   UNL     1      -3.003   9.796  16.285  0.00  0.00    +0.000 A 
ATOM     31  N   UNL     1      -1.831  10.112  16.843  0.00  0.00    +0.000 NA
ENDBRANCH  26  27
ENDBRANCH   1  26
TORSDOF 6
ENDMDL
MODEL 2
REMARK VINA RESULT:      -7.0      4.308      9.048
REMARK  Name = 
REMARK  7 active torsions:
REMARK  status: ('A' for Active; 'I' for Inactive)
REMARK    1  A    between atoms: C_1  and  C_2
REMARK    2  A    between atoms: C_2  and  N_3
REMARK    3  A    between atoms: C_2  and  C_15
REMARK    4  A    between atoms: C_15  and  O_16
REMARK    5  A    between atoms: C_15  and  C_17
REMARK    6  A    between atoms: C_15  and  C_23
REMARK    7  A    between atoms: C_17  and  N_18
REMARK                            x       y       z     vdW  Elec       q    Type
REMARK                         _______ _______ _______ _____ _____    ______ ____
ROOT
ATOM      1  C   UNL     1       5.890   6.081  16.739  0.00  0.00    +0.000 C 
ENDROOT
BRANCH   1   2
ATOM      2  C   UNL     1       6.811   7.072  17.479  0.00  0.00    +0.000 A 
ATOM      3  C   UNL     1       6.905   8.430  17.140  0.00  0.00    +0.000 A 
ATOM      4  C   UNL     1       7.893   9.254  17.688  0.00  0.00    +0.000 A 
ATOM      5  C   UNL     1       8.742   8.754  18.663  0.00  0.00    +0.000 A 
ATOM      6  F   UNL     1       9.697   9.540  19.174  0.00  0.00    +0.000 F 
ATOM      7  C   UNL     1       8.601   7.455  19.116  0.00  0.00    +0.000 A 
ATOM      8  C   UNL     1       7.649   6.633  18.521  0.00  0.00    +0.000 A 
ATOM      9  F   UNL     1       7.552   5.363  18.945  0.00  0.00    +0.000 F 
ENDBRANCH   1   2
BRANCH   1  11
ATOM     10  C   UNL     1       3.664   4.688  16.710  0.00  0.00    +0.000 C 
ATOM     11  C   UNL     1       4.564   5.652  17.508  0.00  0.00    +0.000 C 
BRANCH  11  12
ATOM     12  N   UNL     1       3.698   6.754  18.020  0.00  0.00    +0.000 N 
ATOM     13  C   UNL     1       3.273   7.790  17.219  0.00  0.00    +0.000 A 
ATOM     14  N   UNL     1       2.385   8.672  17.552  0.00  0.00    +0.000 NA
ATOM     15  C   UNL     1       1.777   8.557  18.806  0.00  0.00    +0.000 A 
ATOM     16  C   UNL     1       0.772   9.449  19.179  0.00  0.00    +0.000 A 
ATOM     17  C   UNL     1       0.151   9.328  20.422  0.00  0.00    +0.000 A 
ATOM     18  F   UNL     1      -0.829  10.177  20.756  0.00  0.00    +0.000 F 
ATOM     19  C   UNL     1       0.522   8.335  21.324  0.00  0.00    +0.000 A 
ATOM     20  C   UNL     1       1.527   7.443  20.969  0.00  0.00    +0.000 A 
ATOM     21  C   UNL     1       2.136   7.557  19.711  0.00  0.00    +0.000 A 
ATOM     22  C   UNL     1       3.146   6.587  19.288  0.00  0.00    +0.000 A 
ATOM     23  O   UNL     1       3.452   5.683  20.067  0.00  0.00    +0.000 OA
ENDBRANCH  11  12
ENDBRANCH   1  11
BRANCH   1  24
ATOM     24  O   UNL     1       5.448   6.752  15.526  0.00  0.00    +0.000 OA
ATOM     25  H   UNL     1       4.687   6.265  15.156  0.00  0.00    +0.000 HD
ENDBRANCH   1  24
BRANCH   1  26
ATOM     26  C   UNL     1       6.685   4.829  16.251  0.00  0.00    +0.000 C 
BRANCH  26  27
ATOM     27  N   UNL     1       6.833   4.673  14.826  0.00  0.00    +0.000 N 
ATOM     28  C   UNL     1       6.212   3.773  14.018  0.00  0.00    +0.000 A 
ATOM     29  N   UNL     1       6.677   3.888  12.795  0.00  0.00    +0.000 NA
ATOM     30  C   UNL     1       7.624   4.863  12.917  0.00  0.00    +0.000 A 
ATOM     31  N   UNL     1       7.778   5.350  14.151  0.00  0.00    +0.000 NA
ENDBRANCH  26  27
ENDBRANCH   1  26
TORSDOF 6
ENDMDL
MODEL 3
REMARK VINA RESULT:      -7.0      4.056      9.100
REMARK  Name = 
REMARK  7 active torsions:
REMARK  status: ('A' for Active; 'I' for Inactive)
REMARK    1  A    between atoms: C_1  and  C_2
REMARK    2  A    between atoms: C_2  and  N_3
REMARK    3  A    between atoms: C_2  and  C_15
REMARK    4  A    between atoms: C_15  and  O_16
REMARK    5  A    between atoms: C_15  and  C_17
REMARK    6  A    between atoms: C_15  and  C_23
REMARK    7  A    between atoms: C_17  and  N_18
REMARK                            x       y       z     vdW  Elec       q    Type
REMARK                         _______ _______ _______ _____ _____    ______ ____
ROOT
ATOM      1  C   UNL     1       4.854   4.437  16.945  0.00  0.00    +0.000 C 
ENDROOT
BRANCH   1   2
ATOM      2  C   UNL     1       3.889   3.536  17.742  0.00  0.00    +0.000 A 
ATOM      3  C   UNL     1       2.615   3.177  17.275  0.00  0.00    +0.000 A 
ATOM      4  C   UNL     1       1.689   2.533  18.102  0.00  0.00    +0.000 A 
ATOM      5  C   UNL     1       2.060   2.148  19.380  0.00  0.00    +0.000 A 
ATOM      6  F   UNL     1       1.166   1.547  20.175  0.00  0.00    +0.000 F 
ATOM      7  C   UNL     1       3.347   2.371  19.835  0.00  0.00    +0.000 A 
ATOM      8  C   UNL     1       4.239   3.062  19.019  0.00  0.00    +0.000 A 
ATOM      9  F   UNL     1       5.472   3.304  19.491  0.00  0.00    +0.000 F 
ENDBRANCH   1   2
BRANCH   1  11
ATOM     10  C   UNL     1       6.254   6.159  18.350  0.00  0.00    +0.000 C 
ATOM     11  C   UNL     1       5.008   5.932  17.471  0.00  0.00    +0.000 C 
BRANCH  11  12
ATOM     12  N   UNL     1       3.839   6.516  18.191  0.00  0.00    +0.000 N 
ATOM     13  C   UNL     1       3.502   6.141  19.472  0.00  0.00    +0.000 A 
ATOM     14  N   UNL     1       2.617   6.731  20.211  0.00  0.00    +0.000 NA
ATOM     15  C   UNL     1       1.968   7.856  19.693  0.00  0.00    +0.000 A 
ATOM     16  C   UNL     1       1.052   8.557  20.478  0.00  0.00    +0.000 A 
ATOM     17  C   UNL     1       0.415   9.690  19.972  0.00  0.00    +0.000 A 
ATOM     18  F   UNL     1      -0.443  10.366  20.745  0.00  0.00    +0.000 F 
ATOM     19  C   UNL     1       0.658  10.140  18.678  0.00  0.00    +0.000 A 
ATOM     20  C   UNL     1       1.562   9.449  17.881  0.00  0.00    +0.000 A 
ATOM     21  C   UNL     1       2.215   8.321  18.400  0.00  0.00    +0.000 A 
ATOM     22  C   UNL     1       3.223   7.618  17.606  0.00  0.00    +0.000 A 
ATOM     23  O   UNL     1       3.469   8.035  16.473  0.00  0.00    +0.000 OA
ENDBRANCH  11  12
ENDBRANCH   1  11
BRANCH   1  24
ATOM     24  O   UNL     1       6.174   3.836  17.061  0.00  0.00    +0.000 OA
ATOM     25  H   UNL     1       6.697   4.345  17.711  0.00  0.00    +0.000 HD
ENDBRANCH   1  24
BRANCH   1  26
ATOM     26  C   UNL     1       4.521   4.411  15.420  0.00  0.00    +0.000 C 
BRANCH  26  27
ATOM     27  N   UNL     1       5.636   4.523  14.513  0.00  0.00    +0.000 N 
ATOM     28  C   UNL     1       5.918   3.739  13.439  0.00  0.00    +0.000 A 
ATOM     29  N   UNL     1       7.068   4.104  12.920  0.00  0.00    +0.000 NA
ATOM     30  C   UNL     1       7.475   5.107  13.750  0.00  0.00    +0.000 A 
ATOM     31  N   UNL     1       6.645   5.375  14.761  0.00  0.00    +0.000 NA
ENDBRANCH  26  27
ENDBRANCH   1  26
TORSDOF 6
ENDMDL
MODEL 4
REMARK VINA RESULT:      -7.0      5.040      8.205
REMARK  Name = 
REMARK  7 active torsions:
REMARK  status: ('A' for Active; 'I' for Inactive)
REMARK    1  A    between atoms: C_1  and  C_2
REMARK    2  A    between atoms: C_2  and  N_3
REMARK    3  A    between atoms: C_2  and  C_15
REMARK    4  A    between atoms: C_15  and  O_16
REMARK    5  A    between atoms: C_15  and  C_17
REMARK    6  A    between atoms: C_15  and  C_23
REMARK    7  A    between atoms: C_17  and  N_18
REMARK                            x       y       z     vdW  Elec       q    Type
REMARK                         _______ _______ _______ _____ _____    ______ ____
ROOT
ATOM      1  C   UNL     1       3.825   5.265  18.736  0.00  0.00    +0.000 C 
ENDROOT
BRANCH   1   2
ATOM      2  C   UNL     1       2.967   4.330  19.612  0.00  0.00    +0.000 A 
ATOM      3  C   UNL     1       1.622   4.586  19.916  0.00  0.00    +0.000 A 
ATOM      4  C   UNL     1       0.933   3.835  20.874  0.00  0.00    +0.000 A 
ATOM      5  C   UNL     1       1.552   2.749  21.471  0.00  0.00    +0.000 A 
ATOM      6  F   UNL     1       0.896   2.042  22.400  0.00  0.00    +0.000 F 
ATOM      7  C   UNL     1       2.836   2.386  21.107  0.00  0.00    +0.000 A 
ATOM      8  C   UNL     1       3.527   3.177  20.193  0.00  0.00    +0.000 A 
ATOM      9  F   UNL     1       4.785   2.833  19.880  0.00  0.00    +0.000 F 
ENDBRANCH   1   2
BRANCH   1  11
ATOM     10  C   UNL     1       6.382   5.295  19.333  0.00  0.00    +0.000 C 
ATOM     11  C   UNL     1       5.291   4.749  18.391  0.00  0.00    +0.000 C 
BRANCH  11  12
ATOM     12  N   UNL     1       5.764   4.953  16.991  0.00  0.00    +0.000 N 
ATOM     13  C   UNL     1       6.829   5.771  16.685  0.00  0.00    +0.000 A 
ATOM     14  N   UNL     1       7.395   5.852  15.524  0.00  0.00    +0.000 NA
ATOM     15  C   UNL     1       6.922   5.027  14.499  0.00  0.00    +0.000 A 
ATOM     16  C   UNL     1       7.543   5.038  13.250  0.00  0.00    +0.000 A 
ATOM     17  C   UNL     1       7.085   4.204  12.230  0.00  0.00    +0.000 A 
ATOM     18  F   UNL     1       7.707   4.208  11.045  0.00  0.00    +0.000 F 
ATOM     19  C   UNL     1       5.997   3.358  12.420  0.00  0.00    +0.000 A 
ATOM     20  C   UNL     1       5.362   3.341  13.656  0.00  0.00    +0.000 A 
ATOM     21  C   UNL     1       5.838   4.167  14.684  0.00  0.00    +0.000 A 
ATOM     22  C   UNL     1       5.232   4.115  16.015  0.00  0.00    +0.000 A 
ATOM     23  O   UNL     1       4.292   3.340  16.199  0.00  0.00    +0.000 OA
ENDBRANCH  11  12
ENDBRANCH   1  11
BRANCH   1  24
ATOM     24  O   UNL     1       3.135   5.386  17.460  0.00  0.00    +0.000 OA
ATOM     25  H   UNL     1       2.252   5.774  17.615  0.00  0.00    +0.000 HD
ENDBRANCH   1  24
BRANCH   1  26
ATOM     26  C   UNL     1       3.863   6.711  19.324  0.00  0.00    +0.000 C 
BRANCH  26  27
ATOM     27  N   UNL     1       2.926   7.657  18.772  0.00  0.00    +0.000 N 
ATOM     28  C   UNL     1       3.010   8.317  17.586  0.00  0.00    +0.000 A 
ATOM     29  N   UNL     1       2.007   9.158  17.482  0.00  0.00    +0.000 NA
ATOM     30  C   UNL     1       1.348   9.001  18.667  0.00  0.00    +0.000 A 
ATOM     31  N   UNL     1       1.896   8.115  19.503  0.00  0.00    +0.000 NA
ENDBRANCH  26  27
ENDBRANCH   1  26
TORSDOF 6
ENDMDL
MODEL 5
REMARK VINA RESULT:      -6.9      5.059      8.038
REMARK  Name = 
REMARK  7 active torsions:
REMARK  status: ('A' for Active; 'I' for Inactive)
REMARK    1  A    between atoms: C_1  and  C_2
REMARK    2  A    between atoms: C_2  and  N_3
REMARK    3  A    between atoms: C_2  and  C_15
REMARK    4  A    between atoms: C_15  and  O_16
REMARK    5  A    between atoms: C_15  and  C_17
REMARK    6  A    between atoms: C_15  and  C_23
REMARK    7  A    between atoms: C_17  and  N_18
REMARK                            x       y       z     vdW  Elec       q    Type
REMARK                         _______ _______ _______ _____ _____    ______ ____
ROOT
ATOM      1  C   UNL     1       3.704   5.450  18.623  0.00  0.00    +0.000 C 
ENDROOT
BRANCH   1   2
ATOM      2  C   UNL     1       2.781   4.656  19.570  0.00  0.00    +0.000 A 
ATOM      3  C   UNL     1       2.860   4.743  20.968  0.00  0.00    +0.000 A 
ATOM      4  C   UNL     1       2.156   3.864  21.796  0.00  0.00    +0.000 A 
ATOM      5  C   UNL     1       1.281   2.946  21.237  0.00  0.00    +0.000 A 
ATOM      6  F   UNL     1       0.620   2.095  22.031  0.00  0.00    +0.000 F 
ATOM      7  C   UNL     1       1.079   2.912  19.869  0.00  0.00    +0.000 A 
ATOM      8  C   UNL     1       1.829   3.757  19.056  0.00  0.00    +0.000 A 
ATOM      9  F   UNL     1       1.649   3.683  17.728  0.00  0.00    +0.000 F 
ENDBRANCH   1   2
BRANCH   1  11
ATOM     10  C   UNL     1       6.231   5.148  19.270  0.00  0.00    +0.000 C 
ATOM     11  C   UNL     1       5.106   4.775  18.285  0.00  0.00    +0.000 C 
BRANCH  11  12
ATOM     12  N   UNL     1       5.633   4.977  16.904  0.00  0.00    +0.000 N 
ATOM     13  C   UNL     1       6.735   5.761  16.644  0.00  0.00    +0.000 A 
ATOM     14  N   UNL     1       7.344   5.834  15.504  0.00  0.00    +0.000 NA
ATOM     15  C   UNL     1       6.878   5.036  14.454  0.00  0.00    +0.000 A 
ATOM     16  C   UNL     1       7.542   5.038  13.227  0.00  0.00    +0.000 A 
ATOM     17  C   UNL     1       7.092   4.230  12.183  0.00  0.00    +0.000 A 
ATOM     18  F   UNL     1       7.753   4.225  11.020  0.00  0.00    +0.000 F 
ATOM     19  C   UNL     1       5.969   3.421  12.326  0.00  0.00    +0.000 A 
ATOM     20  C   UNL     1       5.292   3.413  13.539  0.00  0.00    +0.000 A 
ATOM     21  C   UNL     1       5.760   4.212  14.593  0.00  0.00    +0.000 A 
ATOM     22  C   UNL     1       5.107   4.168  15.902  0.00  0.00    +0.000 A 
ATOM     23  O   UNL     1       4.135   3.424  16.045  0.00  0.00    +0.000 OA
ENDBRANCH  11  12
ENDBRANCH   1  11
BRANCH   1  24
ATOM     24  O   UNL     1       3.000   5.563  17.355  0.00  0.00    +0.000 OA
ATOM     25  H   UNL     1       2.857   4.667  16.993  0.00  0.00    +0.000 HD
ENDBRANCH   1  24
BRANCH   1  26
ATOM     26  C   UNL     1       3.895   6.918  19.121  0.00  0.00    +0.000 C 
BRANCH  26  27
ATOM     27  N   UNL     1       2.813   7.835  18.858  0.00  0.00    +0.000 N 
ATOM     28  C   UNL     1       1.806   8.196  19.695  0.00  0.00    +0.000 A 
ATOM     29  N   UNL     1       0.968   8.982  19.059  0.00  0.00    +0.000 NA
ATOM     30  C   UNL     1       1.497   9.042  17.802  0.00  0.00    +0.000 A 
ATOM     31  N   UNL     1       2.610   8.326  17.624  0.00  0.00    +0.000 NA
ENDBRANCH  26  27
ENDBRANCH   1  26
TORSDOF 6
ENDMDL
MODEL 6
REMARK VINA RESULT:      -6.9      1.201      1.482
REMARK  Name = 
REMARK  7 active torsions:
REMARK  status: ('A' for Active; 'I' for Inactive)
REMARK    1  A    between atoms: C_1  and  C_2
REMARK    2  A    between atoms: C_2  and  N_3
REMARK    3  A    between atoms: C_2  and  C_15
REMARK    4  A    between atoms: C_15  and  O_16
REMARK    5  A    between atoms: C_15  and  C_17
REMARK    6  A    between atoms: C_15  and  C_23
REMARK    7  A    between atoms: C_17  and  N_18
REMARK                            x       y       z     vdW  Elec       q    Type
REMARK                         _______ _______ _______ _____ _____    ______ ____
ROOT
ATOM      1  C   UNL     1      -0.405  11.454  19.767  0.00  0.00    +0.000 C 
ENDROOT
BRANCH   1   2
ATOM      2  C   UNL     1      -0.753  12.141  21.103  0.00  0.00    +0.000 A 
ATOM      3  C   UNL     1      -1.477  11.507  22.124  0.00  0.00    +0.000 A 
ATOM      4  C   UNL     1      -1.953  12.216  23.231  0.00  0.00    +0.000 A 
ATOM      5  C   UNL     1      -1.625  13.554  23.383  0.00  0.00    +0.000 A 
ATOM      6  F   UNL     1      -2.095  14.235  24.435  0.00  0.00    +0.000 F 
ATOM      7  C   UNL     1      -0.808  14.186  22.462  0.00  0.00    +0.000 A 
ATOM      8  C   UNL     1      -0.389  13.479  21.338  0.00  0.00    +0.000 A 
ATOM      9  F   UNL     1       0.370  14.118  20.434  0.00  0.00    +0.000 F 
ENDBRANCH   1   2
BRANCH   1  11
ATOM     10  C   UNL     1       1.849  12.107  18.588  0.00  0.00    +0.000 C 
ATOM     11  C   UNL     1       1.135  11.121  19.533  0.00  0.00    +0.000 C 
BRANCH  11  12
ATOM     12  N   UNL     1       1.461   9.741  19.071  0.00  0.00    +0.000 N 
ATOM     13  C   UNL     1       1.945   9.482  17.807  0.00  0.00    +0.000 A 
ATOM     14  N   UNL     1       2.411   8.342  17.408  0.00  0.00    +0.000 NA
ATOM     15  C   UNL     1       2.464   7.291  18.329  0.00  0.00    +0.000 A 
ATOM     16  C   UNL     1       3.015   6.065  17.958  0.00  0.00    +0.000 A 
ATOM     17  C   UNL     1       3.086   5.019  18.878  0.00  0.00    +0.000 A 
ATOM     18  F   UNL     1       3.640   3.856  18.515  0.00  0.00    +0.000 F 
ATOM     19  C   UNL     1       2.600   5.160  20.174  0.00  0.00    +0.000 A 
ATOM     20  C   UNL     1       2.041   6.374  20.557  0.00  0.00    +0.000 A 
ATOM     21  C   UNL     1       1.989   7.428  19.634  0.00  0.00    +0.000 A 
ATOM     22  C   UNL     1       1.470   8.737  20.035  0.00  0.00    +0.000 A 
ATOM     23  O   UNL     1       1.073   8.879  21.192  0.00  0.00    +0.000 OA
ENDBRANCH  11  12
ENDBRANCH   1  11
BRANCH   1  24
ATOM     24  O   UNL     1      -1.094  10.172  19.767  0.00  0.00    +0.000 OA
ATOM     25  H   UNL     1      -1.378   9.967  18.855  0.00  0.00    +0.000 HD
ENDBRANCH   1  24
BRANCH   1  26
ATOM     26  C   UNL     1      -0.998  12.241  18.556  0.00  0.00    +0.000 C 
BRANCH  26  27
ATOM     27  N   UNL     1      -2.218  11.725  17.985  0.00  0.00    +0.000 N 
ATOM     28  C   UNL     1      -2.404  11.220  16.738  0.00  0.00    +0.000 A 
ATOM     29  N   UNL     1      -3.675  10.937  16.565  0.00  0.00    +0.000 NA
ATOM     30  C   UNL     1      -4.240  11.329  17.743  0.00  0.00    +0.000 A 
ATOM     31  N   UNL     1      -3.390  11.850  18.631  0.00  0.00    +0.000 NA
ENDBRANCH  26  27
ENDBRANCH   1  26
TORSDOF 6
ENDMDL
MODEL 7
REMARK VINA RESULT:      -6.8      0.928      1.098
REMARK  Name = 
REMARK  7 active torsions:
REMARK  status: ('A' for Active; 'I' for Inactive)
REMARK    1  A    between atoms: C_1  and  C_2
REMARK    2  A    between atoms: C_2  and  N_3
REMARK    3  A    between atoms: C_2  and  C_15
REMARK    4  A    between atoms: C_15  and  O_16
REMARK    5  A    between atoms: C_15  and  C_17
REMARK    6  A    between atoms: C_15  and  C_23
REMARK    7  A    between atoms: C_17  and  N_18
REMARK                            x       y       z     vdW  Elec       q    Type
REMARK                         _______ _______ _______ _____ _____    ______ ____
ROOT
ATOM      1  C   UNL     1      -0.746  11.620  19.729  0.00  0.00    +0.000 C 
ENDROOT
BRANCH   1   2
ATOM      2  C   UNL     1      -1.256  12.424  20.942  0.00  0.00    +0.000 A 
ATOM      3  C   UNL     1      -0.401  12.997  21.896  0.00  0.00    +0.000 A 
ATOM      4  C   UNL     1      -0.894  13.540  23.087  0.00  0.00    +0.000 A 
ATOM      5  C   UNL     1      -2.262  13.608  23.296  0.00  0.00    +0.000 A 
ATOM      6  F   UNL     1      -2.731  14.114  24.444  0.00  0.00    +0.000 F 
ATOM      7  C   UNL     1      -3.144  13.169  22.325  0.00  0.00    +0.000 A 
ATOM      8  C   UNL     1      -2.636  12.581  21.170  0.00  0.00    +0.000 A 
ATOM      9  F   UNL     1      -3.505  12.124  20.256  0.00  0.00    +0.000 F 
ENDBRANCH   1   2
BRANCH   1  11
ATOM     10  C   UNL     1       1.631  12.396  18.927  0.00  0.00    +0.000 C 
ATOM     11  C   UNL     1       0.820  11.331  19.690  0.00  0.00    +0.000 C 
BRANCH  11  12
ATOM     12  N   UNL     1       1.244   9.994  19.182  0.00  0.00    +0.000 N 
ATOM     13  C   UNL     1       1.792   9.822  17.931  0.00  0.00    +0.000 A 
ATOM     14  N   UNL     1       2.339   8.730  17.502  0.00  0.00    +0.000 NA
ATOM     15  C   UNL     1       2.416   7.642  18.377  0.00  0.00    +0.000 A 
ATOM     16  C   UNL     1       3.052   6.467  17.977  0.00  0.00    +0.000 A 
ATOM     17  C   UNL     1       3.146   5.385  18.853  0.00  0.00    +0.000 A 
ATOM     18  F   UNL     1       3.780   4.273  18.463  0.00  0.00    +0.000 F 
ATOM     19  C   UNL     1       2.600   5.439  20.132  0.00  0.00    +0.000 A 
ATOM     20  C   UNL     1       1.957   6.600  20.543  0.00  0.00    +0.000 A 
ATOM     21  C   UNL     1       1.882   7.692  19.666  0.00  0.00    +0.000 A 
ATOM     22  C   UNL     1       1.272   8.949  20.101  0.00  0.00    +0.000 A 
ATOM     23  O   UNL     1       0.821   9.014  21.246  0.00  0.00    +0.000 OA
ENDBRANCH  11  12
ENDBRANCH   1  11
BRANCH   1  24
ATOM     24  O   UNL     1      -1.390  10.318  19.795  0.00  0.00    +0.000 OA
ATOM     25  H   UNL     1      -0.825   9.711  20.311  0.00  0.00    +0.000 HD
ENDBRANCH   1  24
BRANCH   1  26
ATOM     26  C   UNL     1      -1.232  12.254  18.388  0.00  0.00    +0.000 C 
BRANCH  26  27
ATOM     27  N   UNL     1      -2.056  11.425  17.543  0.00  0.00    +0.000 N 
ATOM     28  C   UNL     1      -3.389  11.543  17.307  0.00  0.00    +0.000 A 
ATOM     29  N   UNL     1      -3.790  10.546  16.553  0.00  0.00    +0.000 NA
ATOM     30  C   UNL     1      -2.652   9.812  16.383  0.00  0.00    +0.000 A 
ATOM     31  N   UNL     1      -1.571  10.295  17.001  0.00  0.00    +0.000 NA
ENDBRANCH  26  27
ENDBRANCH   1  26
TORSDOF 6
ENDMDL
MODEL 8
REMARK VINA RESULT:      -6.8      3.102      6.952
REMARK  Name = 
REMARK  7 active torsions:
REMARK  status: ('A' for Active; 'I' for Inactive)
REMARK    1  A    between atoms: C_1  and  C_2
REMARK    2  A    between atoms: C_2  and  N_3
REMARK    3  A    between atoms: C_2  and  C_15
REMARK    4  A    between atoms: C_15  and  O_16
REMARK    5  A    between atoms: C_15  and  C_17
REMARK    6  A    between atoms: C_15  and  C_23
REMARK    7  A    between atoms: C_17  and  N_18
REMARK                            x       y       z     vdW  Elec       q    Type
REMARK                         _______ _______ _______ _____ _____    ______ ____
ROOT
ATOM      1  C   UNL     1       0.427  10.661  19.279  0.00  0.00    +0.000 C 
ENDROOT
BRANCH   1   2
ATOM      2  C   UNL     1       1.315   9.410  19.119  0.00  0.00    +0.000 A 
ATOM      3  C   UNL     1       2.043   9.131  17.953  0.00  0.00    +0.000 A 
ATOM      4  C   UNL     1       2.670   7.896  17.761  0.00  0.00    +0.000 A 
ATOM      5  C   UNL     1       2.662   6.956  18.778  0.00  0.00    +0.000 A 
ATOM      6  F   UNL     1       3.249   5.768  18.586  0.00  0.00    +0.000 F 
ATOM      7  C   UNL     1       2.063   7.240  19.992  0.00  0.00    +0.000 A 
ATOM      8  C   UNL     1       1.396   8.452  20.147  0.00  0.00    +0.000 A 
ATOM      9  F   UNL     1       0.786   8.696  21.317  0.00  0.00    +0.000 F 
ENDBRANCH   1   2
BRANCH   1  11
ATOM     10  C   UNL     1      -0.172  11.820  21.558  0.00  0.00    +0.000 C 
ATOM     11  C   UNL     1       0.859  11.684  20.421  0.00  0.00    +0.000 C 
BRANCH  11  12
ATOM     12  N   UNL     1       1.231  13.061  19.984  0.00  0.00    +0.000 N 
ATOM     13  C   UNL     1       2.536  13.431  19.745  0.00  0.00    +0.000 A 
ATOM     14  N   UNL     1       2.905  14.546  19.200  0.00  0.00    +0.000 NA
ATOM     15  C   UNL     1       1.912  15.439  18.785  0.00  0.00    +0.000 A 
ATOM     16  C   UNL     1       2.264  16.623  18.137  0.00  0.00    +0.000 A 
ATOM     17  C   UNL     1       1.276  17.509  17.706  0.00  0.00    +0.000 A 
ATOM     18  F   UNL     1       1.628  18.630  17.065  0.00  0.00    +0.000 F 
ATOM     19  C   UNL     1      -0.074  17.250  17.923  0.00  0.00    +0.000 A 
ATOM     20  C   UNL     1      -0.440  16.078  18.573  0.00  0.00    +0.000 A 
ATOM     21  C   UNL     1       0.555  15.181  18.987  0.00  0.00    +0.000 A 
ATOM     22  C   UNL     1       0.191  13.908  19.611  0.00  0.00    +0.000 A 
ATOM     23  O   UNL     1      -1.005  13.656  19.770  0.00  0.00    +0.000 OA
ENDBRANCH  11  12
ENDBRANCH   1  11
BRANCH   1  24
ATOM     24  O   UNL     1       0.520  11.398  18.028  0.00  0.00    +0.000 OA
ATOM     25  H   UNL     1      -0.098  12.153  18.060  0.00  0.00    +0.000 HD
ENDBRANCH   1  24
BRANCH   1  26
ATOM     26  C   UNL     1      -1.078  10.271  19.417  0.00  0.00    +0.000 C 
BRANCH  26  27
ATOM     27  N   UNL     1      -1.918  10.523  18.273  0.00  0.00    +0.000 N 
ATOM     28  C   UNL     1      -3.019  11.317  18.207  0.00  0.00    +0.000 A 
ATOM     29  N   UNL     1      -3.561  11.216  17.015  0.00  0.00    +0.000 NA
ATOM     30  C   UNL     1      -2.762  10.303  16.390  0.00  0.00    +0.000 A 
ATOM     31  N   UNL     1      -1.762   9.825  17.134  0.00  0.00    +0.000 NA
ENDBRANCH  26  27
ENDBRANCH   1  26
TORSDOF 6
ENDMDL
MODEL 9
REMARK VINA RESULT:      -6.7      3.115      8.291
REMARK  Name = 
REMARK  7 active torsions:
REMARK  status: ('A' for Active; 'I' for Inactive)
REMARK    1  A    between atoms: C_1  and  C_2
REMARK    2  A    between atoms: C_2  and  N_3
REMARK    3  A    between atoms: C_2  and  C_15
REMARK    4  A    between atoms: C_15  and  O_16
REMARK    5  A    between atoms: C_15  and  C_17
REMARK    6  A    between atoms: C_15  and  C_23
REMARK    7  A    between atoms: C_17  and  N_18
REMARK                            x       y       z     vdW  Elec       q    Type
REMARK                         _______ _______ _______ _____ _____    ______ ____
ROOT
ATOM      1  C   UNL     1       3.686   5.364  18.365  0.00  0.00    +0.000 C 
ENDROOT
BRANCH   1   2
ATOM      2  C   UNL     1       2.798   4.631  19.391  0.00  0.00    +0.000 A 
ATOM      3  C   UNL     1       3.171   4.442  20.730  0.00  0.00    +0.000 A 
ATOM      4  C   UNL     1       2.444   3.601  21.579  0.00  0.00    +0.000 A 
ATOM      5  C   UNL     1       1.272   3.015  21.128  0.00  0.00    +0.000 A 
ATOM      6  F   UNL     1       0.587   2.198  21.937  0.00  0.00    +0.000 F 
ATOM      7  C   UNL     1       0.802   3.277  19.853  0.00  0.00    +0.000 A 
ATOM      8  C   UNL     1       1.566   4.071  19.003  0.00  0.00    +0.000 A 
ATOM      9  F   UNL     1       1.115   4.283  17.757  0.00  0.00    +0.000 F 
ENDBRANCH   1   2
BRANCH   1  11
ATOM     10  C   UNL     1       4.307   7.758  17.483  0.00  0.00    +0.000 C 
ATOM     11  C   UNL     1       3.175   6.796  17.893  0.00  0.00    +0.000 C 
BRANCH  11  12
ATOM     12  N   UNL     1       2.279   7.532  18.832  0.00  0.00    +0.000 N 
ATOM     13  C   UNL     1       2.190   7.213  20.169  0.00  0.00    +0.000 A 
ATOM     14  N   UNL     1       1.573   7.918  21.062  0.00  0.00    +0.000 NA
ATOM     15  C   UNL     1       0.974   9.116  20.661  0.00  0.00    +0.000 A 
ATOM     16  C   UNL     1       0.352   9.936  21.603  0.00  0.00    +0.000 A 
ATOM     17  C   UNL     1      -0.232  11.140  21.210  0.00  0.00    +0.000 A 
ATOM     18  F   UNL     1      -0.804  11.927  22.129  0.00  0.00    +0.000 F 
ATOM     19  C   UNL     1      -0.227  11.547  19.879  0.00  0.00    +0.000 A 
ATOM     20  C   UNL     1       0.382  10.738  18.928  0.00  0.00    +0.000 A 
ATOM     21  C   UNL     1       0.984   9.537  19.330  0.00  0.00    +0.000 A 
ATOM     22  C   UNL     1       1.693   8.703  18.359  0.00  0.00    +0.000 A 
ATOM     23  O   UNL     1       1.732   9.078  17.185  0.00  0.00    +0.000 OA
ENDBRANCH  11  12
ENDBRANCH   1  11
BRANCH   1  24
ATOM     24  O   UNL     1       4.968   5.592  19.014  0.00  0.00    +0.000 OA
ATOM     25  H   UNL     1       5.636   5.008  18.607  0.00  0.00    +0.000 HD
ENDBRANCH   1  24
BRANCH   1  26
ATOM     26  C   UNL     1       4.002   4.450  17.139  0.00  0.00    +0.000 C 
BRANCH  26  27
ATOM     27  N   UNL     1       5.232   4.716  16.435  0.00  0.00    +0.000 N 
ATOM     28  C   UNL     1       5.381   5.200  15.173  0.00  0.00    +0.000 A 
ATOM     29  N   UNL     1       6.656   5.219  14.859  0.00  0.00    +0.000 NA
ATOM     30  C   UNL     1       7.253   4.692  15.967  0.00  0.00    +0.000 A 
ATOM     31  N   UNL     1       6.416   4.338  16.946  0.00  0.00    +0.000 NA
ENDBRANCH  26  27
ENDBRANCH   1  26
TORSDOF 6
ENDMDL
