MODEL 1
REMARK VINA RESULT:      -8.7      0.000      0.000
REMARK  Name = 
REMARK  7 active torsions:
REMARK  status: ('A' for Active; 'I' for Inactive)
REMARK    1  A    between atoms: C_1  and  O_2
REMARK    2  A    between atoms: O_2  and  C_3
REMARK    3  A    between atoms: C_5  and  C_6
REMARK    4  A    between atoms: N_9  and  C_10
REMARK    5  A    between atoms: C_14  and  N_15
REMARK    6  A    between atoms: N_24  and  C_25
REMARK    7  A    between atoms: C_25  and  C_26
REMARK                            x       y       z     vdW  Elec       q    Type
REMARK                         _______ _______ _______ _____ _____    ______ ____
ROOT
ATOM      1  N   UNL     1       1.864   8.135  19.379  0.00  0.00    +0.000 N 
ATOM      2  C   UNL     1       2.022   6.768  19.631  0.00  0.00    +0.000 A 
ATOM      3  N   UNL     1       0.990   6.022  20.051  0.00  0.00    +0.000 NA
ATOM      4  C   UNL     1       1.266   4.762  20.418  0.00  0.00    +0.000 A 
ATOM      5  C   UNL     1       2.521   4.190  20.325  0.00  0.00    +0.000 A 
ATOM      6  C   UNL     1       2.808   2.889  20.748  0.00  0.00    +0.000 A 
ATOM      7  C   UNL     1       4.091   2.418  20.550  0.00  0.00    +0.000 A 
ATOM      8  N   UNL     1       5.061   3.132  19.942  0.00  0.00    +0.000 NA
ATOM      9  C   UNL     1       4.768   4.402  19.569  0.00  0.00    +0.000 A 
ATOM     10  N   UNL     1       5.737   5.166  18.907  0.00  0.00    +0.000 N 
ATOM     11  C   UNL     1       3.505   5.004  19.771  0.00  0.00    +0.000 A 
ATOM     12  N   UNL     1       3.257   6.288  19.437  0.00  0.00    +0.000 NA
ATOM     13  H   UNL     1       2.794   8.500  19.223  0.00  0.00    +0.000 HD
ATOM     14  H   UNL     1       5.862   6.060  19.371  0.00  0.00    +0.000 HD
ENDROOT
BRANCH   1  20
ATOM     15  C   UNL     1       0.157   9.955  19.521  0.00  0.00    +0.000 A 
ATOM     16  C   UNL     1      -0.522  10.861  20.340  0.00  0.00    +0.000 A 
ATOM     17  C   UNL     1      -0.414  10.812  21.736  0.00  0.00    +0.000 A 
ATOM     18  C   UNL     1       0.361   9.805  22.316  0.00  0.00    +0.000 A 
ATOM     19  C   UNL     1       1.078   8.921  21.506  0.00  0.00    +0.000 A 
ATOM     20  C   UNL     1       1.047   9.029  20.106  0.00  0.00    +0.000 A 
BRANCH  17  21
ATOM     21  C   UNL     1      -1.061  11.818  22.553  0.00  0.00    +0.000 A 
ATOM     22  C   UNL     1      -0.702  13.154  22.837  0.00  0.00    +0.000 A 
ATOM     23  N   UNL     1      -1.609  13.788  23.585  0.00  0.00    +0.000 NA
ATOM     24  N   UNL     1      -2.561  12.858  23.775  0.00  0.00    +0.000 N 
ATOM     25  C   UNL     1      -3.758  13.179  24.512  0.00  0.00    +0.000 C 
ATOM     26  C   UNL     1      -2.276  11.659  23.191  0.00  0.00    +0.000 A 
ENDBRANCH  17  21
BRANCH  15  28
ATOM     27  C   UNL     1      -1.321  10.037  17.647  0.00  0.00    +0.000 C 
ATOM     28  O   UNL     1       0.002   9.924  18.158  0.00  0.00    +0.000 OA
ENDBRANCH  15  28
ENDBRANCH   1  20
BRANCH  10  29
ATOM     29  C   UNL     1       6.925   4.539  18.367  0.00  0.00    +0.000 C 
BRANCH  29  30
ATOM     30  C   UNL     1       7.433   5.398  17.181  0.00  0.00    +0.000 C 
ATOM     31  C   UNL     1       7.339   4.646  15.843  0.00  0.00    +0.000 C 
ATOM     32  C   UNL     1       5.907   4.522  15.323  0.00  0.00    +0.000 C 
ATOM     33  C   UNL     1       5.212   5.878  15.236  0.00  0.00    +0.000 C 
ATOM     34  C   UNL     1       5.283   6.643  16.552  0.00  0.00    +0.000 C 
ATOM     35  C   UNL     1       6.717   6.761  17.059  0.00  0.00    +0.000 C 
ENDBRANCH  29  30
ENDBRANCH  10  29
TORSDOF 5
ENDMDL
MODEL 2
REMARK VINA RESULT:      -7.9      2.352     11.089
REMARK  Name = 
REMARK  7 active torsions:
REMARK  status: ('A' for Active; 'I' for Inactive)
REMARK    1  A    between atoms: C_1  and  O_2
REMARK    2  A    between atoms: O_2  and  C_3
REMARK    3  A    between atoms: C_5  and  C_6
REMARK    4  A    between atoms: N_9  and  C_10
REMARK    5  A    between atoms: C_14  and  N_15
REMARK    6  A    between atoms: N_24  and  C_25
REMARK    7  A    between atoms: C_25  and  C_26
REMARK                            x       y       z     vdW  Elec       q    Type
REMARK                         _______ _______ _______ _____ _____    ______ ____
ROOT
ATOM      1  N   UNL     1       0.206  10.616  19.202  0.00  0.00    +0.000 N 
ATOM      2  C   UNL     1       0.585  11.844  19.755  0.00  0.00    +0.000 A 
ATOM      3  N   UNL     1       1.830  12.315  19.594  0.00  0.00    +0.000 NA
ATOM      4  C   UNL     1       2.152  13.419  20.286  0.00  0.00    +0.000 A 
ATOM      5  C   UNL     1       1.264  14.111  21.087  0.00  0.00    +0.000 A 
ATOM      6  C   UNL     1       1.619  15.237  21.837  0.00  0.00    +0.000 A 
ATOM      7  C   UNL     1       0.622  15.870  22.554  0.00  0.00    +0.000 A 
ATOM      8  N   UNL     1      -0.670  15.481  22.538  0.00  0.00    +0.000 NA
ATOM      9  C   UNL     1      -0.984  14.369  21.829  0.00  0.00    +0.000 A 
ATOM     10  N   UNL     1      -2.318  13.951  21.762  0.00  0.00    +0.000 N 
ATOM     11  C   UNL     1      -0.036  13.613  21.102  0.00  0.00    +0.000 A 
ATOM     12  N   UNL     1      -0.368  12.480  20.448  0.00  0.00    +0.000 NA
ATOM     13  H   UNL     1      -0.711  10.412  19.577  0.00  0.00    +0.000 HD
ATOM     14  H   UNL     1      -2.397  12.973  22.024  0.00  0.00    +0.000 HD
ENDROOT
BRANCH   1  20
ATOM     15  C   UNL     1       1.193   8.512  20.121  0.00  0.00    +0.000 A 
ATOM     16  C   UNL     1       2.102   7.466  19.935  0.00  0.00    +0.000 A 
ATOM     17  C   UNL     1       2.772   7.286  18.718  0.00  0.00    +0.000 A 
ATOM     18  C   UNL     1       2.490   8.151  17.659  0.00  0.00    +0.000 A 
ATOM     19  C   UNL     1       1.615   9.224  17.847  0.00  0.00    +0.000 A 
ATOM     20  C   UNL     1       1.016   9.463  19.094  0.00  0.00    +0.000 A 
BRANCH  17  21
ATOM     21  C   UNL     1       3.772   6.246  18.584  0.00  0.00    +0.000 A 
ATOM     22  C   UNL     1       3.952   5.036  19.290  0.00  0.00    +0.000 A 
ATOM     23  N   UNL     1       4.961   4.302  18.813  0.00  0.00    +0.000 NA
ATOM     24  N   UNL     1       5.427   5.039  17.790  0.00  0.00    +0.000 N 
ATOM     25  C   UNL     1       6.511   4.553  16.974  0.00  0.00    +0.000 C 
ATOM     26  C   UNL     1       4.760   6.216  17.619  0.00  0.00    +0.000 A 
ENDBRANCH  17  21
BRANCH  15  28
ATOM     27  C   UNL     1       1.136   9.152  22.421  0.00  0.00    +0.000 C 
ATOM     28  O   UNL     1       0.458   8.662  21.270  0.00  0.00    +0.000 OA
ENDBRANCH  15  28
ENDBRANCH   1  20
BRANCH  10  29
ATOM     29  C   UNL     1      -3.387  14.828  22.187  0.00  0.00    +0.000 C 
BRANCH  29  30
ATOM     30  C   UNL     1      -3.787  14.445  23.635  0.00  0.00    +0.000 C 
ATOM     31  C   UNL     1      -4.634  15.538  24.307  0.00  0.00    +0.000 C 
ATOM     32  C   UNL     1      -6.066  15.600  23.776  0.00  0.00    +0.000 C 
ATOM     33  C   UNL     1      -6.764  14.245  23.856  0.00  0.00    +0.000 C 
ATOM     34  C   UNL     1      -5.950  13.142  23.191  0.00  0.00    +0.000 C 
ATOM     35  C   UNL     1      -4.523  13.091  23.729  0.00  0.00    +0.000 C 
ENDBRANCH  29  30
ENDBRANCH  10  29
TORSDOF 5
ENDMDL
MODEL 3
REMARK VINA RESULT:      -7.8      3.136      5.490
REMARK  Name = 
REMARK  7 active torsions:
REMARK  status: ('A' for Active; 'I' for Inactive)
REMARK    1  A    between atoms: C_1  and  O_2
REMARK    2  A    between atoms: O_2  and  C_3
REMARK    3  A    between atoms: C_5  and  C_6
REMARK    4  A    between atoms: N_9  and  C_10
REMARK    5  A    between atoms: C_14  and  N_15
REMARK    6  A    between atoms: N_24  and  C_25
REMARK    7  A    between atoms: C_25  and  C_26
REMARK                            x       y       z     vdW  Elec       q    Type
REMARK                         _______ _______ _______ _____ _____    ______ ____
ROOT
ATOM      1  N   UNL     1       0.089  11.132  22.422  0.00  0.00    +0.000 N 
ATOM      2  C   UNL     1       0.668  10.754  21.207  0.00  0.00    +0.000 A 
ATOM      3  N   UNL     1       0.854  11.649  20.226  0.00  0.00    +0.000 NA
ATOM      4  C   UNL     1       1.268  11.171  19.043  0.00  0.00    +0.000 A 
ATOM      5  C   UNL     1       1.567   9.841  18.812  0.00  0.00    +0.000 A 
ATOM      6  C   UNL     1       1.960   9.345  17.565  0.00  0.00    +0.000 A 
ATOM      7  C   UNL     1       2.283   8.005  17.481  0.00  0.00    +0.000 A 
ATOM      8  N   UNL     1       2.273   7.168  18.538  0.00  0.00    +0.000 NA
ATOM      9  C   UNL     1       1.859   7.665  19.730  0.00  0.00    +0.000 A 
ATOM     10  N   UNL     1       1.864   6.837  20.859  0.00  0.00    +0.000 N 
ATOM     11  C   UNL     1       1.455   9.006  19.920  0.00  0.00    +0.000 A 
ATOM     12  N   UNL     1       0.997   9.460  21.105  0.00  0.00    +0.000 NA
ATOM     13  H   UNL     1      -0.079  10.274  22.931  0.00  0.00    +0.000 HD
ATOM     14  H   UNL     1       0.957   6.852  21.315  0.00  0.00    +0.000 HD
ENDROOT
BRANCH   1  20
ATOM     15  C   UNL     1      -0.754  13.468  22.700  0.00  0.00    +0.000 A 
ATOM     16  C   UNL     1      -1.848  14.293  22.975  0.00  0.00    +0.000 A 
ATOM     17  C   UNL     1      -3.149  13.782  23.056  0.00  0.00    +0.000 A 
ATOM     18  C   UNL     1      -3.354  12.421  22.816  0.00  0.00    +0.000 A 
ATOM     19  C   UNL     1      -2.264  11.580  22.582  0.00  0.00    +0.000 A 
ATOM     20  C   UNL     1      -0.949  12.075  22.595  0.00  0.00    +0.000 A 
BRANCH  17  21
ATOM     21  C   UNL     1      -4.251  14.647  23.428  0.00  0.00    +0.000 A 
ATOM     22  C   UNL     1      -5.623  14.371  23.617  0.00  0.00    +0.000 A 
ATOM     23  N   UNL     1      -6.313  15.436  24.035  0.00  0.00    +0.000 NA
ATOM     24  N   UNL     1      -5.379  16.398  24.125  0.00  0.00    +0.000 N 
ATOM     25  C   UNL     1      -5.729  17.714  24.599  0.00  0.00    +0.000 C 
ATOM     26  C   UNL     1      -4.132  15.982  23.760  0.00  0.00    +0.000 A 
ENDBRANCH  17  21
BRANCH  15  28
ATOM     27  C   UNL     1       0.689  15.037  21.623  0.00  0.00    +0.000 C 
ATOM     28  O   UNL     1       0.519  13.954  22.529  0.00  0.00    +0.000 OA
ENDBRANCH  15  28
ENDBRANCH   1  20
BRANCH  10  29
ATOM     29  C   UNL     1       2.562   5.569  20.840  0.00  0.00    +0.000 C 
BRANCH  29  30
ATOM     30  C   UNL     1       1.525   4.437  21.047  0.00  0.00    +0.000 C 
ATOM     31  C   UNL     1       0.748   4.125  19.757  0.00  0.00    +0.000 C 
ATOM     32  C   UNL     1       1.579   3.367  18.723  0.00  0.00    +0.000 C 
ATOM     33  C   UNL     1       2.197   2.099  19.306  0.00  0.00    +0.000 C 
ATOM     34  C   UNL     1       2.981   2.379  20.582  0.00  0.00    +0.000 C 
ATOM     35  C   UNL     1       2.140   3.136  21.606  0.00  0.00    +0.000 C 
ENDBRANCH  29  30
ENDBRANCH  10  29
TORSDOF 5
ENDMDL
MODEL 4
REMARK VINA RESULT:      -7.8      2.477     11.025
REMARK  Name = 
REMARK  7 active torsions:
REMARK  status: ('A' for Active; 'I' for Inactive)
REMARK    1  A    between atoms: C_1  and  O_2
REMARK    2  A    between atoms: O_2  and  C_3
REMARK    3  A    between atoms: C_5  and  C_6
REMARK    4  A    between atoms: N_9  and  C_10
REMARK    5  A    between atoms: C_14  and  N_15
REMARK    6  A    between atoms: N_24  and  C_25
REMARK    7  A    between atoms: C_25  and  C_26
REMARK                            x       y       z     vdW  Elec       q    Type
REMARK                         _______ _______ _______ _____ _____    ______ ____
ROOT
ATOM      1  N   UNL     1       0.188  11.075  19.459  0.00  0.00    +0.000 N 
ATOM      2  C   UNL     1       0.718  12.255  19.990  0.00  0.00    +0.000 A 
ATOM      3  N   UNL     1       1.993  12.602  19.759  0.00  0.00    +0.000 NA
ATOM      4  C   UNL     1       2.462  13.663  20.433  0.00  0.00    +0.000 A 
ATOM      5  C   UNL     1       1.695  14.434  21.285  0.00  0.00    +0.000 A 
ATOM      6  C   UNL     1       2.203  15.513  22.015  0.00  0.00    +0.000 A 
ATOM      7  C   UNL     1       1.318  16.236  22.791  0.00  0.00    +0.000 A 
ATOM      8  N   UNL     1      -0.005  15.978  22.849  0.00  0.00    +0.000 NA
ATOM      9  C   UNL     1      -0.469  14.908  22.157  0.00  0.00    +0.000 A 
ATOM     10  N   UNL     1      -1.840  14.624  22.167  0.00  0.00    +0.000 N 
ATOM     11  C   UNL     1       0.355  14.067  21.375  0.00  0.00    +0.000 A 
ATOM     12  N   UNL     1      -0.125  12.977  20.739  0.00  0.00    +0.000 NA
ATOM     13  H   UNL     1      -0.721  10.960  19.886  0.00  0.00    +0.000 HD
ATOM     14  H   UNL     1      -2.000  13.657  22.432  0.00  0.00    +0.000 HD
ENDROOT
BRANCH   1  20
ATOM     15  C   UNL     1       1.003   8.872  20.311  0.00  0.00    +0.000 A 
ATOM     16  C   UNL     1       1.792   7.744  20.072  0.00  0.00    +0.000 A 
ATOM     17  C   UNL     1       2.379   7.511  18.821  0.00  0.00    +0.000 A 
ATOM     18  C   UNL     1       2.132   8.413  17.784  0.00  0.00    +0.000 A 
ATOM     19  C   UNL     1       1.380   9.566  18.023  0.00  0.00    +0.000 A 
ATOM     20  C   UNL     1       0.872   9.849  19.302  0.00  0.00    +0.000 A 
BRANCH  17  21
ATOM     21  C   UNL     1       3.261   6.378  18.629  0.00  0.00    +0.000 A 
ATOM     22  C   UNL     1       4.387   6.211  17.792  0.00  0.00    +0.000 A 
ATOM     23  N   UNL     1       4.986   5.029  17.958  0.00  0.00    +0.000 NA
ATOM     24  N   UNL     1       4.248   4.436  18.912  0.00  0.00    +0.000 N 
ATOM     25  C   UNL     1       4.610   3.133  19.412  0.00  0.00    +0.000 C 
ATOM     26  C   UNL     1       3.197   5.194  19.338  0.00  0.00    +0.000 A 
ENDBRANCH  17  21
BRANCH  15  28
ATOM     27  C   UNL     1       1.141   9.333  22.651  0.00  0.00    +0.000 C 
ATOM     28  O   UNL     1       0.346   9.081  21.498  0.00  0.00    +0.000 OA
ENDBRANCH  15  28
ENDBRANCH   1  20
BRANCH  10  29
ATOM     29  C   UNL     1      -2.790  15.600  22.656  0.00  0.00    +0.000 C 
BRANCH  29  30
ATOM     30  C   UNL     1      -3.339  15.107  24.018  0.00  0.00    +0.000 C 
ATOM     31  C   UNL     1      -4.485  15.995  24.533  0.00  0.00    +0.000 C 
ATOM     32  C   UNL     1      -5.793  15.790  23.770  0.00  0.00    +0.000 C 
ATOM     33  C   UNL     1      -6.213  14.323  23.742  0.00  0.00    +0.000 C 
ATOM     34  C   UNL     1      -5.099  13.419  23.229  0.00  0.00    +0.000 C 
ATOM     35  C   UNL     1      -3.798  13.633  23.998  0.00  0.00    +0.000 C 
ENDBRANCH  29  30
ENDBRANCH  10  29
TORSDOF 5
ENDMDL
MODEL 5
REMARK VINA RESULT:      -7.8      2.463     11.039
REMARK  Name = 
REMARK  7 active torsions:
REMARK  status: ('A' for Active; 'I' for Inactive)
REMARK    1  A    between atoms: C_1  and  O_2
REMARK    2  A    between atoms: O_2  and  C_3
REMARK    3  A    between atoms: C_5  and  C_6
REMARK    4  A    between atoms: N_9  and  C_10
REMARK    5  A    between atoms: C_14  and  N_15
REMARK    6  A    between atoms: N_24  and  C_25
REMARK    7  A    between atoms: C_25  and  C_26
REMARK                            x       y       z     vdW  Elec       q    Type
REMARK                         _______ _______ _______ _____ _____    ______ ____
ROOT
ATOM      1  N   UNL     1       0.130  10.724  19.469  0.00  0.00    +0.000 N 
ATOM      2  C   UNL     1       0.568  11.950  19.978  0.00  0.00    +0.000 A 
ATOM      3  N   UNL     1       1.786  12.424  19.677  0.00  0.00    +0.000 NA
ATOM      4  C   UNL     1       2.183  13.526  20.331  0.00  0.00    +0.000 A 
ATOM      5  C   UNL     1       1.392  14.215  21.231  0.00  0.00    +0.000 A 
ATOM      6  C   UNL     1       1.830  15.339  21.938  0.00  0.00    +0.000 A 
ATOM      7  C   UNL     1       0.922  15.968  22.768  0.00  0.00    +0.000 A 
ATOM      8  N   UNL     1      -0.363  15.577  22.900  0.00  0.00    +0.000 NA
ATOM      9  C   UNL     1      -0.755  14.467  22.228  0.00  0.00    +0.000 A 
ATOM     10  N   UNL     1      -2.087  14.046  22.313  0.00  0.00    +0.000 N 
ATOM     11  C   UNL     1       0.103  13.714  21.393  0.00  0.00    +0.000 A 
ATOM     12  N   UNL     1      -0.300  12.583  20.779  0.00  0.00    +0.000 NA
ATOM     13  H   UNL     1      -0.738  10.517  19.946  0.00  0.00    +0.000 HD
ATOM     14  H   UNL     1      -2.134  13.067  22.580  0.00  0.00    +0.000 HD
ENDROOT
BRANCH   1  20
ATOM     15  C   UNL     1       1.160   8.582  20.241  0.00  0.00    +0.000 A 
ATOM     16  C   UNL     1       2.048   7.541  19.956  0.00  0.00    +0.000 A 
ATOM     17  C   UNL     1       2.637   7.404  18.693  0.00  0.00    +0.000 A 
ATOM     18  C   UNL     1       2.291   8.311  17.687  0.00  0.00    +0.000 A 
ATOM     19  C   UNL     1       1.438   9.379  17.972  0.00  0.00    +0.000 A 
ATOM     20  C   UNL     1       0.923   9.573  19.265  0.00  0.00    +0.000 A 
BRANCH  17  21
ATOM     21  C   UNL     1       3.619   6.366  18.454  0.00  0.00    +0.000 A 
ATOM     22  C   UNL     1       4.001   5.253  19.235  0.00  0.00    +0.000 A 
ATOM     23  N   UNL     1       4.902   4.477  18.627  0.00  0.00    +0.000 NA
ATOM     24  N   UNL     1       5.095   5.088  17.446  0.00  0.00    +0.000 N 
ATOM     25  C   UNL     1       5.984   4.518  16.465  0.00  0.00    +0.000 C 
ATOM     26  C   UNL     1       4.362   6.229  17.297  0.00  0.00    +0.000 A 
ENDBRANCH  17  21
BRANCH  15  28
ATOM     27  C   UNL     1       1.228   9.235  22.537  0.00  0.00    +0.000 C 
ATOM     28  O   UNL     1       0.503   8.691  21.441  0.00  0.00    +0.000 OA
ENDBRANCH  15  28
ENDBRANCH   1  20
BRANCH  10  29
ATOM     29  C   UNL     1      -3.102  14.920  22.862  0.00  0.00    +0.000 C 
BRANCH  29  30
ATOM     30  C   UNL     1      -4.398  14.746  22.031  0.00  0.00    +0.000 C 
ATOM     31  C   UNL     1      -4.959  13.317  22.133  0.00  0.00    +0.000 C 
ATOM     32  C   UNL     1      -5.615  13.024  23.482  0.00  0.00    +0.000 C 
ATOM     33  C   UNL     1      -6.684  14.055  23.833  0.00  0.00    +0.000 C 
ATOM     34  C   UNL     1      -6.154  15.482  23.747  0.00  0.00    +0.000 C 
ATOM     35  C   UNL     1      -5.502  15.761  22.396  0.00  0.00    +0.000 C 
ENDBRANCH  29  30
ENDBRANCH  10  29
TORSDOF 5
ENDMDL
MODEL 6
REMARK VINA RESULT:      -7.8      2.531     10.892
REMARK  Name = 
REMARK  7 active torsions:
REMARK  status: ('A' for Active; 'I' for Inactive)
REMARK    1  A    between atoms: C_1  and  O_2
REMARK    2  A    between atoms: O_2  and  C_3
REMARK    3  A    between atoms: C_5  and  C_6
REMARK    4  A    between atoms: N_9  and  C_10
REMARK    5  A    between atoms: C_14  and  N_15
REMARK    6  A    between atoms: N_24  and  C_25
REMARK    7  A    between atoms: C_25  and  C_26
REMARK                            x       y       z     vdW  Elec       q    Type
REMARK                         _______ _______ _______ _____ _____    ______ ____
ROOT
ATOM      1  N   UNL     1       0.437  10.170  18.912  0.00  0.00    +0.000 N 
ATOM      2  C   UNL     1       0.789  11.500  19.159  0.00  0.00    +0.000 A 
ATOM      3  N   UNL     1       1.959  11.994  18.729  0.00  0.00    +0.000 NA
ATOM      4  C   UNL     1       2.284  13.227  19.144  0.00  0.00    +0.000 A 
ATOM      5  C   UNL     1       1.461  14.019  19.923  0.00  0.00    +0.000 A 
ATOM      6  C   UNL     1       1.825  15.287  20.384  0.00  0.00    +0.000 A 
ATOM      7  C   UNL     1       0.889  15.998  21.110  0.00  0.00    +0.000 A 
ATOM      8  N   UNL     1      -0.358  15.549  21.361  0.00  0.00    +0.000 NA
ATOM      9  C   UNL     1      -0.677  14.304  20.930  0.00  0.00    +0.000 A 
ATOM     10  N   UNL     1      -1.970  13.813  21.143  0.00  0.00    +0.000 N 
ATOM     11  C   UNL     1       0.219  13.468  20.225  0.00  0.00    +0.000 A 
ATOM     12  N   UNL     1      -0.108  12.212  19.854  0.00  0.00    +0.000 NA
ATOM     13  H   UNL     1      -0.401   9.997  19.451  0.00  0.00    +0.000 HD
ATOM     14  H   UNL     1      -1.935  12.904  21.594  0.00  0.00    +0.000 HD
ENDROOT
BRANCH   1  20
ATOM     15  C   UNL     1       1.501   8.183  19.992  0.00  0.00    +0.000 A 
ATOM     16  C   UNL     1       2.473   7.183  19.904  0.00  0.00    +0.000 A 
ATOM     17  C   UNL     1       3.201   6.971  18.726  0.00  0.00    +0.000 A 
ATOM     18  C   UNL     1       2.913   7.755  17.606  0.00  0.00    +0.000 A 
ATOM     19  C   UNL     1       1.974   8.785  17.696  0.00  0.00    +0.000 A 
ATOM     20  C   UNL     1       1.313   9.061  18.904  0.00  0.00    +0.000 A 
BRANCH  17  21
ATOM     21  C   UNL     1       4.261   5.984  18.692  0.00  0.00    +0.000 A 
ATOM     22  C   UNL     1       4.388   4.736  19.340  0.00  0.00    +0.000 A 
ATOM     23  N   UNL     1       5.497   4.079  18.989  0.00  0.00    +0.000 NA
ATOM     24  N   UNL     1       6.082   4.904  18.105  0.00  0.00    +0.000 N 
ATOM     25  C   UNL     1       7.307   4.521  17.449  0.00  0.00    +0.000 C 
ATOM     26  C   UNL     1       5.392   6.062  17.902  0.00  0.00    +0.000 A 
ENDBRANCH  17  21
BRANCH  15  28
ATOM     27  C   UNL     1       1.276   9.069  22.199  0.00  0.00    +0.000 C 
ATOM     28  O   UNL     1       0.713   8.358  21.103  0.00  0.00    +0.000 OA
ENDBRANCH  15  28
ENDBRANCH   1  20
BRANCH  10  29
ATOM     29  C   UNL     1      -3.038  14.701  21.549  0.00  0.00    +0.000 C 
BRANCH  29  30
ATOM     30  C   UNL     1      -3.751  14.079  22.776  0.00  0.00    +0.000 C 
ATOM     31  C   UNL     1      -2.754  13.648  23.865  0.00  0.00    +0.000 C 
ATOM     32  C   UNL     1      -2.156  14.825  24.632  0.00  0.00    +0.000 C 
ATOM     33  C   UNL     1      -3.234  15.736  25.213  0.00  0.00    +0.000 C 
ATOM     34  C   UNL     1      -4.234  16.186  24.154  0.00  0.00    +0.000 C 
ATOM     35  C   UNL     1      -4.824  15.001  23.395  0.00  0.00    +0.000 C 
ENDBRANCH  29  30
ENDBRANCH  10  29
TORSDOF 5
ENDMDL
MODEL 7
REMARK VINA RESULT:      -7.7      2.987     10.647
REMARK  Name = 
REMARK  7 active torsions:
REMARK  status: ('A' for Active; 'I' for Inactive)
REMARK    1  A    between atoms: C_1  and  O_2
REMARK    2  A    between atoms: O_2  and  C_3
REMARK    3  A    between atoms: C_5  and  C_6
REMARK    4  A    between atoms: N_9  and  C_10
REMARK    5  A    between atoms: C_14  and  N_15
REMARK    6  A    between atoms: N_24  and  C_25
REMARK    7  A    between atoms: C_25  and  C_26
REMARK                            x       y       z     vdW  Elec       q    Type
REMARK                         _______ _______ _______ _____ _____    ______ ____
ROOT
ATOM      1  N   UNL     1       0.591  10.396  19.135  0.00  0.00    +0.000 N 
ATOM      2  C   UNL     1       1.191  11.651  18.989  0.00  0.00    +0.000 A 
ATOM      3  N   UNL     1       2.275  11.810  18.215  0.00  0.00    +0.000 NA
ATOM      4  C   UNL     1       2.876  13.009  18.257  0.00  0.00    +0.000 A 
ATOM      5  C   UNL     1       2.406  14.081  18.992  0.00  0.00    +0.000 A 
ATOM      6  C   UNL     1       3.061  15.314  19.061  0.00  0.00    +0.000 A 
ATOM      7  C   UNL     1       2.457  16.321  19.788  0.00  0.00    +0.000 A 
ATOM      8  N   UNL     1       1.261  16.187  20.397  0.00  0.00    +0.000 NA
ATOM      9  C   UNL     1       0.659  14.973  20.341  0.00  0.00    +0.000 A 
ATOM     10  N   UNL     1      -0.597  14.800  20.934  0.00  0.00    +0.000 N 
ATOM     11  C   UNL     1       1.212  13.857  19.672  0.00  0.00    +0.000 A 
ATOM     12  N   UNL     1       0.617  12.646  19.678  0.00  0.00    +0.000 NA
ATOM     13  H   UNL     1      -0.099  10.500  19.866  0.00  0.00    +0.000 HD
ATOM     14  H   UNL     1      -0.586  14.003  21.564  0.00  0.00    +0.000 HD
ENDROOT
BRANCH   1  20
ATOM     15  C   UNL     1       1.276   8.306  20.322  0.00  0.00    +0.000 A 
ATOM     16  C   UNL     1       2.059   7.149  20.297  0.00  0.00    +0.000 A 
ATOM     17  C   UNL     1       2.755   6.760  19.146  0.00  0.00    +0.000 A 
ATOM     18  C   UNL     1       2.625   7.530  17.987  0.00  0.00    +0.000 A 
ATOM     19  C   UNL     1       1.880   8.711  18.013  0.00  0.00    +0.000 A 
ATOM     20  C   UNL     1       1.260   9.153  19.193  0.00  0.00    +0.000 A 
BRANCH  17  21
ATOM     21  C   UNL     1       3.627   5.603  19.177  0.00  0.00    +0.000 A 
ATOM     22  C   UNL     1       5.017   5.483  18.959  0.00  0.00    +0.000 A 
ATOM     23  N   UNL     1       5.468   4.241  19.154  0.00  0.00    +0.000 NA
ATOM     24  N   UNL     1       4.365   3.560  19.508  0.00  0.00    +0.000 N 
ATOM     25  C   UNL     1       4.448   2.163  19.855  0.00  0.00    +0.000 C 
ATOM     26  C   UNL     1       3.235   4.324  19.524  0.00  0.00    +0.000 A 
ENDBRANCH  17  21
BRANCH  15  28
ATOM     27  C   UNL     1       1.188   9.263  22.508  0.00  0.00    +0.000 C 
ATOM     28  O   UNL     1       0.516   8.666  21.406  0.00  0.00    +0.000 OA
ENDBRANCH  15  28
ENDBRANCH   1  20
BRANCH  10  29
ATOM     29  C   UNL     1      -1.381  15.945  21.346  0.00  0.00    +0.000 C 
BRANCH  29  30
ATOM     30  C   UNL     1      -1.242  16.106  22.881  0.00  0.00    +0.000 C 
ATOM     31  C   UNL     1      -2.342  17.006  23.468  0.00  0.00    +0.000 C 
ATOM     32  C   UNL     1      -3.709  16.328  23.520  0.00  0.00    +0.000 C 
ATOM     33  C   UNL     1      -3.655  14.990  24.251  0.00  0.00    +0.000 C 
ATOM     34  C   UNL     1      -2.578  14.072  23.685  0.00  0.00    +0.000 C 
ATOM     35  C   UNL     1      -1.217  14.761  23.639  0.00  0.00    +0.000 C 
ENDBRANCH  29  30
ENDBRANCH  10  29
TORSDOF 5
ENDMDL
MODEL 8
REMARK VINA RESULT:      -7.7      3.078     10.686
REMARK  Name = 
REMARK  7 active torsions:
REMARK  status: ('A' for Active; 'I' for Inactive)
REMARK    1  A    between atoms: C_1  and  O_2
REMARK    2  A    between atoms: O_2  and  C_3
REMARK    3  A    between atoms: C_5  and  C_6
REMARK    4  A    between atoms: N_9  and  C_10
REMARK    5  A    between atoms: C_14  and  N_15
REMARK    6  A    between atoms: N_24  and  C_25
REMARK    7  A    between atoms: C_25  and  C_26
REMARK                            x       y       z     vdW  Elec       q    Type
REMARK                         _______ _______ _______ _____ _____    ______ ____
ROOT
ATOM      1  N   UNL     1       0.578  10.445  18.846  0.00  0.00    +0.000 N 
ATOM      2  C   UNL     1       1.172  11.710  18.814  0.00  0.00    +0.000 A 
ATOM      3  N   UNL     1       2.351  11.902  18.204  0.00  0.00    +0.000 NA
ATOM      4  C   UNL     1       2.921  13.107  18.356  0.00  0.00    +0.000 A 
ATOM      5  C   UNL     1       2.334  14.155  19.041  0.00  0.00    +0.000 A 
ATOM      6  C   UNL     1       2.953  15.394  19.229  0.00  0.00    +0.000 A 
ATOM      7  C   UNL     1       2.236  16.376  19.885  0.00  0.00    +0.000 A 
ATOM      8  N   UNL     1       0.969  16.211  20.316  0.00  0.00    +0.000 NA
ATOM      9  C   UNL     1       0.401  14.991  20.150  0.00  0.00    +0.000 A 
ATOM     10  N   UNL     1      -0.923  14.788  20.556  0.00  0.00    +0.000 N 
ATOM     11  C   UNL     1       1.060  13.899  19.541  0.00  0.00    +0.000 A 
ATOM     12  N   UNL     1       0.490  12.680  19.437  0.00  0.00    +0.000 NA
ATOM     13  H   UNL     1      -0.210  10.521  19.475  0.00  0.00    +0.000 HD
ATOM     14  H   UNL     1      -0.988  13.977  21.163  0.00  0.00    +0.000 HD
ENDROOT
BRANCH   1  20
ATOM     15  C   UNL     1       1.281   8.430  20.147  0.00  0.00    +0.000 A 
ATOM     16  C   UNL     1       2.068   7.276  20.183  0.00  0.00    +0.000 A 
ATOM     17  C   UNL     1       2.755   6.822  19.050  0.00  0.00    +0.000 A 
ATOM     18  C   UNL     1       2.612   7.522  17.850  0.00  0.00    +0.000 A 
ATOM     19  C   UNL     1       1.862   8.700  17.813  0.00  0.00    +0.000 A 
ATOM     20  C   UNL     1       1.252   9.209  18.971  0.00  0.00    +0.000 A 
BRANCH  17  21
ATOM     21  C   UNL     1       3.632   5.672  19.141  0.00  0.00    +0.000 A 
ATOM     22  C   UNL     1       5.029   5.555  18.972  0.00  0.00    +0.000 A 
ATOM     23  N   UNL     1       5.480   4.321  19.215  0.00  0.00    +0.000 NA
ATOM     24  N   UNL     1       4.369   3.643  19.551  0.00  0.00    +0.000 N 
ATOM     25  C   UNL     1       4.448   2.256  19.938  0.00  0.00    +0.000 C 
ATOM     26  C   UNL     1       3.236   4.400  19.510  0.00  0.00    +0.000 A 
ENDBRANCH  17  21
BRANCH  15  28
ATOM     27  C   UNL     1       1.224   9.219  22.400  0.00  0.00    +0.000 C 
ATOM     28  O   UNL     1       0.529   8.850  21.216  0.00  0.00    +0.000 OA
ENDBRANCH  15  28
ENDBRANCH   1  20
BRANCH  10  29
ATOM     29  C   UNL     1      -1.775  15.913  20.877  0.00  0.00    +0.000 C 
BRANCH  29  30
ATOM     30  C   UNL     1      -3.206  15.381  21.144  0.00  0.00    +0.000 C 
ATOM     31  C   UNL     1      -3.197  14.112  22.013  0.00  0.00    +0.000 C 
ATOM     32  C   UNL     1      -2.874  14.391  23.480  0.00  0.00    +0.000 C 
ATOM     33  C   UNL     1      -3.797  15.451  24.075  0.00  0.00    +0.000 C 
ATOM     34  C   UNL     1      -3.821  16.724  23.238  0.00  0.00    +0.000 C 
ATOM     35  C   UNL     1      -4.144  16.432  21.776  0.00  0.00    +0.000 C 
ENDBRANCH  29  30
ENDBRANCH  10  29
TORSDOF 5
ENDMDL
MODEL 9
REMARK VINA RESULT:      -7.7      2.695     11.270
REMARK  Name = 
REMARK  7 active torsions:
REMARK  status: ('A' for Active; 'I' for Inactive)
REMARK    1  A    between atoms: C_1  and  O_2
REMARK    2  A    between atoms: O_2  and  C_3
REMARK    3  A    between atoms: C_5  and  C_6
REMARK    4  A    between atoms: N_9  and  C_10
REMARK    5  A    between atoms: C_14  and  N_15
REMARK    6  A    between atoms: N_24  and  C_25
REMARK    7  A    between atoms: C_25  and  C_26
REMARK                            x       y       z     vdW  Elec       q    Type
REMARK                         _______ _______ _______ _____ _____    ______ ____
ROOT
ATOM      1  N   UNL     1       0.264  11.011  19.454  0.00  0.00    +0.000 N 
ATOM      2  C   UNL     1       0.797  12.198  19.969  0.00  0.00    +0.000 A 
ATOM      3  N   UNL     1       2.072  12.539  19.731  0.00  0.00    +0.000 NA
ATOM      4  C   UNL     1       2.544  13.608  20.390  0.00  0.00    +0.000 A 
ATOM      5  C   UNL     1       1.778  14.393  21.231  0.00  0.00    +0.000 A 
ATOM      6  C   UNL     1       2.289  15.482  21.945  0.00  0.00    +0.000 A 
ATOM      7  C   UNL     1       1.405  16.219  22.710  0.00  0.00    +0.000 A 
ATOM      8  N   UNL     1       0.082  15.964  22.772  0.00  0.00    +0.000 NA
ATOM      9  C   UNL     1      -0.384  14.885  22.097  0.00  0.00    +0.000 A 
ATOM     10  N   UNL     1      -1.756  14.604  22.111  0.00  0.00    +0.000 N 
ATOM     11  C   UNL     1       0.438  14.031  21.326  0.00  0.00    +0.000 A 
ATOM     12  N   UNL     1      -0.044  12.933  20.707  0.00  0.00    +0.000 NA
ATOM     13  H   UNL     1      -0.645  10.904  19.883  0.00  0.00    +0.000 HD
ATOM     14  H   UNL     1      -1.918  13.641  22.390  0.00  0.00    +0.000 HD
ENDROOT
BRANCH   1  20
ATOM     15  C   UNL     1       1.217   8.893  20.377  0.00  0.00    +0.000 A 
ATOM     16  C   UNL     1       1.991   7.755  20.136  0.00  0.00    +0.000 A 
ATOM     17  C   UNL     1       2.424   7.424  18.846  0.00  0.00    +0.000 A 
ATOM     18  C   UNL     1       2.036   8.234  17.776  0.00  0.00    +0.000 A 
ATOM     19  C   UNL     1       1.299   9.397  18.011  0.00  0.00    +0.000 A 
ATOM     20  C   UNL     1       0.945   9.782  19.315  0.00  0.00    +0.000 A 
BRANCH  17  21
ATOM     21  C   UNL     1       3.297   6.285  18.640  0.00  0.00    +0.000 A 
ATOM     22  C   UNL     1       3.418   5.070  19.348  0.00  0.00    +0.000 A 
ATOM     23  N   UNL     1       4.299   4.232  18.794  0.00  0.00    +0.000 NA
ATOM     24  N   UNL     1       4.739   4.907  17.719  0.00  0.00    +0.000 N 
ATOM     25  C   UNL     1       5.688   4.306  16.816  0.00  0.00    +0.000 C 
ATOM     26  C   UNL     1       4.182   6.145  17.588  0.00  0.00    +0.000 A 
ENDBRANCH  17  21
BRANCH  15  28
ATOM     27  C   UNL     1      -0.550   8.626  21.961  0.00  0.00    +0.000 C 
ATOM     28  O   UNL     1       0.706   9.196  21.615  0.00  0.00    +0.000 OA
ENDBRANCH  15  28
ENDBRANCH   1  20
BRANCH  10  29
ATOM     29  C   UNL     1      -2.704  15.589  22.585  0.00  0.00    +0.000 C 
BRANCH  29  30
ATOM     30  C   UNL     1      -3.308  15.083  23.920  0.00  0.00    +0.000 C 
ATOM     31  C   UNL     1      -2.813  15.902  25.123  0.00  0.00    +0.000 C 
ATOM     32  C   UNL     1      -3.441  17.293  25.202  0.00  0.00    +0.000 C 
ATOM     33  C   UNL     1      -4.966  17.232  25.175  0.00  0.00    +0.000 C 
ATOM     34  C   UNL     1      -5.486  16.432  23.987  0.00  0.00    +0.000 C 
ATOM     35  C   UNL     1      -4.851  15.046  23.919  0.00  0.00    +0.000 C 
ENDBRANCH  29  30
ENDBRANCH  10  29
TORSDOF 5
ENDMDL
