MODEL 1
REMARK VINA RESULT:      -7.0      0.000      0.000
REMARK  Name = 
REMARK  6 active torsions:
REMARK  status: ('A' for Active; 'I' for Inactive)
REMARK    1  A    between atoms: C_1  and  C_2
REMARK    2  A    between atoms: C_2  and  O_3
REMARK    3  A    between atoms: O_3  and  C_4
REMARK    4  A    between atoms: C_10  and  C_12
REMARK    5  A    between atoms: C_15  and  C_16
REMARK    6  A    between atoms: C_16  and  N_17
REMARK                            x       y       z     vdW  Elec       q    Type
REMARK                         _______ _______ _______ _____ _____    ______ ____
ROOT
ATOM      1  C   UNL     1       0.544   9.913  19.441  0.00  0.00    +0.000 C 
ATOM      2  O   UNL     1       0.529  10.723  18.525  0.00  0.00    +0.000 OA
ATOM      3  N   UNL     1       1.483   8.900  19.547  0.00  0.00    +0.000 N 
ATOM      4  C   UNL     1       1.562   7.929  20.650  0.00  0.00    +0.000 C 
ATOM      5  C   UNL     1       1.845   6.489  20.143  0.00  0.00    +0.000 C 
ATOM      6  N   UNL     1       2.953   6.460  19.172  0.00  0.00    +0.000 N 
ATOM      7  C   UNL     1       4.070   5.641  19.399  0.00  0.00    +0.000 C 
ATOM      8  O   UNL     1       4.081   4.809  20.306  0.00  0.00    +0.000 OA
ATOM      9  C   UNL     1       2.728   7.392  18.049  0.00  0.00    +0.000 C 
ATOM     10  C   UNL     1       2.577   8.834  18.581  0.00  0.00    +0.000 C 
ENDROOT
BRANCH   7  11
ATOM     11  C   UNL     1       5.327   5.846  18.512  0.00  0.00    +0.000 C 
ATOM     12  C   UNL     1       5.845   4.497  18.060  0.00  0.00    +0.000 C 
ATOM     13  C   UNL     1       4.776   3.851  17.178  0.00  0.00    +0.000 C 
ATOM     14  C   UNL     1       4.904   4.447  15.782  0.00  0.00    +0.000 C 
ATOM     15  C   UNL     1       4.763   5.986  15.885  0.00  0.00    +0.000 C 
ATOM     16  C   UNL     1       5.202   6.698  17.207  0.00  0.00    +0.000 C 
BRANCH  14  17
ATOM     17  C   UNL     1       6.205   3.864  15.181  0.00  0.00    +0.000 C 
BRANCH  17  18
ATOM     18  N   UNL     1       6.810   4.597  14.109  0.00  0.00    +0.000 N 
ATOM     19  C   UNL     1       6.779   4.302  12.783  0.00  0.00    +0.000 A 
ATOM     20  N   UNL     1       7.706   5.010  12.184  0.00  0.00    +0.000 NA
ATOM     21  N   UNL     1       8.326   5.735  13.175  0.00  0.00    +0.000 NA
ATOM     22  N   UNL     1       7.792   5.474  14.360  0.00  0.00    +0.000 NA
ENDBRANCH  17  18
ENDBRANCH  14  17
ENDBRANCH   7  11
BRANCH   1  23
ATOM     23  O   UNL     1      -0.361   9.893  20.460  0.00  0.00    +0.000 OA
BRANCH  23  25
ATOM     24  C   UNL     1      -0.810  10.665  22.726  0.00  0.00    +0.000 C 
ATOM     25  C   UNL     1      -0.365  11.042  21.324  0.00  0.00    +0.000 C 
ENDBRANCH  23  25
ENDBRANCH   1  23
TORSDOF 5
ENDMDL
MODEL 2
REMARK VINA RESULT:      -6.8      4.076      5.266
REMARK  Name = 
REMARK  6 active torsions:
REMARK  status: ('A' for Active; 'I' for Inactive)
REMARK    1  A    between atoms: C_1  and  C_2
REMARK    2  A    between atoms: C_2  and  O_3
REMARK    3  A    between atoms: O_3  and  C_4
REMARK    4  A    between atoms: C_10  and  C_12
REMARK    5  A    between atoms: C_15  and  C_16
REMARK    6  A    between atoms: C_16  and  N_17
REMARK                            x       y       z     vdW  Elec       q    Type
REMARK                         _______ _______ _______ _____ _____    ______ ____
ROOT
ATOM      1  C   UNL     1      -0.991  11.107  20.218  0.00  0.00    +0.000 C 
ATOM      2  O   UNL     1      -1.316  11.162  21.396  0.00  0.00    +0.000 OA
ATOM      3  N   UNL     1      -0.169  10.120  19.700  0.00  0.00    +0.000 N 
ATOM      4  C   UNL     1       0.217   9.993  18.285  0.00  0.00    +0.000 C 
ATOM      5  C   UNL     1       1.719   9.643  18.117  0.00  0.00    +0.000 C 
ATOM      6  N   UNL     1       2.125   8.536  19.002  0.00  0.00    +0.000 N 
ATOM      7  C   UNL     1       2.713   7.381  18.465  0.00  0.00    +0.000 C 
ATOM      8  O   UNL     1       3.062   7.328  17.285  0.00  0.00    +0.000 OA
ATOM      9  C   UNL     1       1.790   8.807  20.415  0.00  0.00    +0.000 C 
ATOM     10  C   UNL     1       0.269   9.027  20.565  0.00  0.00    +0.000 C 
ENDROOT
BRANCH   7  11
ATOM     11  C   UNL     1       2.866   6.136  19.380  0.00  0.00    +0.000 C 
ATOM     12  C   UNL     1       1.654   5.245  19.217  0.00  0.00    +0.000 C 
ATOM     13  C   UNL     1       1.629   4.738  17.775  0.00  0.00    +0.000 C 
ATOM     14  C   UNL     1       2.594   3.564  17.679  0.00  0.00    +0.000 C 
ATOM     15  C   UNL     1       3.996   4.035  18.137  0.00  0.00    +0.000 C 
ATOM     16  C   UNL     1       4.099   5.197  19.180  0.00  0.00    +0.000 C 
BRANCH  14  17
ATOM     17  C   UNL     1       1.926   2.392  18.436  0.00  0.00    +0.000 C 
BRANCH  17  18
ATOM     18  N   UNL     1       2.216   2.273  19.834  0.00  0.00    +0.000 N 
ATOM     19  C   UNL     1       1.423   2.633  20.877  0.00  0.00    +0.000 A 
ATOM     20  N   UNL     1       2.163   2.672  21.959  0.00  0.00    +0.000 NA
ATOM     21  N   UNL     1       3.438   2.348  21.555  0.00  0.00    +0.000 NA
ATOM     22  N   UNL     1       3.480   2.118  20.251  0.00  0.00    +0.000 NA
ENDBRANCH  17  18
ENDBRANCH  14  17
ENDBRANCH   7  11
BRANCH   1  23
ATOM     23  O   UNL     1      -1.382  12.008  19.273  0.00  0.00    +0.000 OA
BRANCH  23  25
ATOM     24  C   UNL     1      -3.278  11.311  17.912  0.00  0.00    +0.000 C 
ATOM     25  C   UNL     1      -2.801  12.150  19.084  0.00  0.00    +0.000 C 
ENDBRANCH  23  25
ENDBRANCH   1  23
TORSDOF 5
ENDMDL
MODEL 3
REMARK VINA RESULT:      -6.7      3.738      4.913
REMARK  Name = 
REMARK  6 active torsions:
REMARK  status: ('A' for Active; 'I' for Inactive)
REMARK    1  A    between atoms: C_1  and  C_2
REMARK    2  A    between atoms: C_2  and  O_3
REMARK    3  A    between atoms: O_3  and  C_4
REMARK    4  A    between atoms: C_10  and  C_12
REMARK    5  A    between atoms: C_15  and  C_16
REMARK    6  A    between atoms: C_16  and  N_17
REMARK                            x       y       z     vdW  Elec       q    Type
REMARK                         _______ _______ _______ _____ _____    ______ ____
ROOT
ATOM      1  C   UNL     1      -0.961  10.756  22.223  0.00  0.00    +0.000 C 
ATOM      2  O   UNL     1      -0.903  10.657  23.441  0.00  0.00    +0.000 OA
ATOM      3  N   UNL     1      -0.287   9.911  21.356  0.00  0.00    +0.000 N 
ATOM      4  C   UNL     1      -0.358   9.970  19.888  0.00  0.00    +0.000 C 
ATOM      5  C   UNL     1       1.033   9.783  19.226  0.00  0.00    +0.000 C 
ATOM      6  N   UNL     1       1.758   8.632  19.796  0.00  0.00    +0.000 N 
ATOM      7  C   UNL     1       2.214   7.600  18.960  0.00  0.00    +0.000 C 
ATOM      8  O   UNL     1       2.177   7.705  17.734  0.00  0.00    +0.000 OA
ATOM      9  C   UNL     1       1.868   8.721  21.266  0.00  0.00    +0.000 C 
ATOM     10  C   UNL     1       0.461   8.779  21.898  0.00  0.00    +0.000 C 
ENDROOT
BRANCH   7  11
ATOM     11  C   UNL     1       2.715   6.287  19.617  0.00  0.00    +0.000 C 
ATOM     12  C   UNL     1       1.662   5.212  19.455  0.00  0.00    +0.000 C 
ATOM     13  C   UNL     1       1.499   4.931  17.961  0.00  0.00    +0.000 C 
ATOM     14  C   UNL     1       2.623   3.992  17.540  0.00  0.00    +0.000 C 
ATOM     15  C   UNL     1       3.979   4.652  17.894  0.00  0.00    +0.000 C 
ATOM     16  C   UNL     1       4.044   5.643  19.103  0.00  0.00    +0.000 C 
BRANCH  14  17
ATOM     17  C   UNL     1       2.289   2.614  18.158  0.00  0.00    +0.000 C 
BRANCH  17  18
ATOM     18  N   UNL     1       3.044   2.220  19.311  0.00  0.00    +0.000 N 
ATOM     19  C   UNL     1       2.770   2.494  20.613  0.00  0.00    +0.000 A 
ATOM     20  N   UNL     1       3.848   2.251  21.318  0.00  0.00    +0.000 NA
ATOM     21  N   UNL     1       4.803   1.839  20.417  0.00  0.00    +0.000 NA
ATOM     22  N   UNL     1       4.320   1.833  19.183  0.00  0.00    +0.000 NA
ENDBRANCH  17  18
ENDBRANCH  14  17
ENDBRANCH   7  11
BRANCH   1  23
ATOM     23  O   UNL     1      -1.679  11.711  21.566  0.00  0.00    +0.000 OA
BRANCH  23  25
ATOM     24  C   UNL     1      -2.041  14.083  21.987  0.00  0.00    +0.000 C 
ATOM     25  C   UNL     1      -2.376  12.659  22.394  0.00  0.00    +0.000 C 
ENDBRANCH  23  25
ENDBRANCH   1  23
TORSDOF 5
ENDMDL
MODEL 4
REMARK VINA RESULT:      -6.6      1.551      2.064
REMARK  Name = 
REMARK  6 active torsions:
REMARK  status: ('A' for Active; 'I' for Inactive)
REMARK    1  A    between atoms: C_1  and  C_2
REMARK    2  A    between atoms: C_2  and  O_3
REMARK    3  A    between atoms: O_3  and  C_4
REMARK    4  A    between atoms: C_10  and  C_12
REMARK    5  A    between atoms: C_15  and  C_16
REMARK    6  A    between atoms: C_16  and  N_17
REMARK                            x       y       z     vdW  Elec       q    Type
REMARK                         _______ _______ _______ _____ _____    ______ ____
ROOT
ATOM      1  C   UNL     1       0.556  11.556  19.607  0.00  0.00    +0.000 C 
ATOM      2  O   UNL     1       0.338  12.233  18.613  0.00  0.00    +0.000 OA
ATOM      3  N   UNL     1       1.211  10.336  19.571  0.00  0.00    +0.000 N 
ATOM      4  C   UNL     1       1.528   9.507  20.745  0.00  0.00    +0.000 C 
ATOM      5  C   UNL     1       1.256   8.001  20.489  0.00  0.00    +0.000 C 
ATOM      6  N   UNL     1       1.826   7.553  19.205  0.00  0.00    +0.000 N 
ATOM      7  C   UNL     1       2.730   6.480  19.170  0.00  0.00    +0.000 C 
ATOM      8  O   UNL     1       2.936   5.782  20.163  0.00  0.00    +0.000 OA
ATOM      9  C   UNL     1       1.363   8.384  18.075  0.00  0.00    +0.000 C 
ATOM     10  C   UNL     1       1.762   9.857  18.305  0.00  0.00    +0.000 C 
ENDROOT
BRANCH   7  11
ATOM     11  C   UNL     1       3.517   6.222  17.857  0.00  0.00    +0.000 C 
ATOM     12  C   UNL     1       4.979   6.546  18.079  0.00  0.00    +0.000 C 
ATOM     13  C   UNL     1       5.526   5.575  19.126  0.00  0.00    +0.000 C 
ATOM     14  C   UNL     1       5.850   4.265  18.419  0.00  0.00    +0.000 C 
ATOM     15  C   UNL     1       4.569   3.749  17.718  0.00  0.00    +0.000 C 
ATOM     16  C   UNL     1       3.502   4.787  17.235  0.00  0.00    +0.000 C 
BRANCH  14  17
ATOM     17  C   UNL     1       7.105   4.538  17.557  0.00  0.00    +0.000 C 
BRANCH  17  18
ATOM     18  N   UNL     1       6.900   4.717  16.150  0.00  0.00    +0.000 N 
ATOM     19  C   UNL     1       6.486   3.788  15.250  0.00  0.00    +0.000 A 
ATOM     20  N   UNL     1       6.739   4.243  14.046  0.00  0.00    +0.000 NA
ATOM     21  N   UNL     1       7.340   5.468  14.225  0.00  0.00    +0.000 NA
ATOM     22  N   UNL     1       7.455   5.757  15.513  0.00  0.00    +0.000 NA
ENDBRANCH  17  18
ENDBRANCH  14  17
ENDBRANCH   7  11
BRANCH   1  23
ATOM     23  O   UNL     1       0.175  11.904  20.869  0.00  0.00    +0.000 OA
BRANCH  23  25
ATOM     24  C   UNL     1      -0.812  13.547  22.373  0.00  0.00    +0.000 C 
ATOM     25  C   UNL     1      -0.782  12.974  20.967  0.00  0.00    +0.000 C 
ENDBRANCH  23  25
ENDBRANCH   1  23
TORSDOF 5
ENDMDL
MODEL 5
REMARK VINA RESULT:      -6.6      4.039      8.835
REMARK  Name = 
REMARK  6 active torsions:
REMARK  status: ('A' for Active; 'I' for Inactive)
REMARK    1  A    between atoms: C_1  and  C_2
REMARK    2  A    between atoms: C_2  and  O_3
REMARK    3  A    between atoms: O_3  and  C_4
REMARK    4  A    between atoms: C_10  and  C_12
REMARK    5  A    between atoms: C_15  and  C_16
REMARK    6  A    between atoms: C_16  and  N_17
REMARK                            x       y       z     vdW  Elec       q    Type
REMARK                         _______ _______ _______ _____ _____    ______ ____
ROOT
ATOM      1  C   UNL     1       2.533   3.703  18.132  0.00  0.00    +0.000 C 
ATOM      2  O   UNL     1       3.058   3.530  17.041  0.00  0.00    +0.000 OA
ATOM      3  N   UNL     1       2.150   4.948  18.605  0.00  0.00    +0.000 N 
ATOM      4  C   UNL     1       1.483   5.197  19.893  0.00  0.00    +0.000 C 
ATOM      5  C   UNL     1       2.061   6.441  20.620  0.00  0.00    +0.000 C 
ATOM      6  N   UNL     1       2.178   7.598  19.714  0.00  0.00    +0.000 N 
ATOM      7  C   UNL     1       1.551   8.812  20.034  0.00  0.00    +0.000 C 
ATOM      8  O   UNL     1       1.041   8.998  21.139  0.00  0.00    +0.000 OA
ATOM      9  C   UNL     1       2.956   7.274  18.501  0.00  0.00    +0.000 C 
ATOM     10  C   UNL     1       2.282   6.115  17.736  0.00  0.00    +0.000 C 
ENDROOT
BRANCH   7  11
ATOM     11  C   UNL     1       1.460   9.907  18.937  0.00  0.00    +0.000 C 
ATOM     12  C   UNL     1       0.142   9.771  18.204  0.00  0.00    +0.000 C 
ATOM     13  C   UNL     1      -0.984  10.042  19.202  0.00  0.00    +0.000 C 
ATOM     14  C   UNL     1      -1.133  11.553  19.334  0.00  0.00    +0.000 C 
ATOM     15  C   UNL     1       0.228  12.148  19.773  0.00  0.00    +0.000 C 
ATOM     16  C   UNL     1       1.544  11.410  19.360  0.00  0.00    +0.000 C 
BRANCH  14  17
ATOM     17  C   UNL     1      -1.760  12.044  18.009  0.00  0.00    +0.000 C 
BRANCH  17  18
ATOM     18  N   UNL     1      -3.072  11.564  17.693  0.00  0.00    +0.000 N 
ATOM     19  C   UNL     1      -3.533  11.148  16.486  0.00  0.00    +0.000 A 
ATOM     20  N   UNL     1      -4.843  11.105  16.539  0.00  0.00    +0.000 NA
ATOM     21  N   UNL     1      -5.182  11.526  17.804  0.00  0.00    +0.000 NA
ATOM     22  N   UNL     1      -4.101  11.824  18.512  0.00  0.00    +0.000 NA
ENDBRANCH  17  18
ENDBRANCH  14  17
ENDBRANCH   7  11
BRANCH   1  23
ATOM     23  O   UNL     1       2.273   2.705  19.023  0.00  0.00    +0.000 OA
BRANCH  23  25
ATOM     24  C   UNL     1       4.436   2.249  20.046  0.00  0.00    +0.000 C 
ATOM     25  C   UNL     1       3.305   1.716  19.184  0.00  0.00    +0.000 C 
ENDBRANCH  23  25
ENDBRANCH   1  23
TORSDOF 5
ENDMDL
MODEL 6
REMARK VINA RESULT:      -6.5      4.223      9.730
REMARK  Name = 
REMARK  6 active torsions:
REMARK  status: ('A' for Active; 'I' for Inactive)
REMARK    1  A    between atoms: C_1  and  C_2
REMARK    2  A    between atoms: C_2  and  O_3
REMARK    3  A    between atoms: O_3  and  C_4
REMARK    4  A    between atoms: C_10  and  C_12
REMARK    5  A    between atoms: C_15  and  C_16
REMARK    6  A    between atoms: C_16  and  N_17
REMARK                            x       y       z     vdW  Elec       q    Type
REMARK                         _______ _______ _______ _____ _____    ______ ____
ROOT
ATOM      1  C   UNL     1       3.502   5.485  18.239  0.00  0.00    +0.000 C 
ATOM      2  O   UNL     1       4.110   5.443  17.179  0.00  0.00    +0.000 OA
ATOM      3  N   UNL     1       2.627   6.504  18.577  0.00  0.00    +0.000 N 
ATOM      4  C   UNL     1       1.847   6.575  19.823  0.00  0.00    +0.000 C 
ATOM      5  C   UNL     1       1.837   8.004  20.427  0.00  0.00    +0.000 C 
ATOM      6  N   UNL     1       1.529   9.025  19.410  0.00  0.00    +0.000 N 
ATOM      7  C   UNL     1       0.452   9.905  19.595  0.00  0.00    +0.000 C 
ATOM      8  O   UNL     1      -0.149   9.966  20.668  0.00  0.00    +0.000 OA
ATOM      9  C   UNL     1       2.436   8.938  18.247  0.00  0.00    +0.000 C 
ATOM     10  C   UNL     1       2.326   7.543  17.595  0.00  0.00    +0.000 C 
ENDROOT
BRANCH   7  11
ATOM     11  C   UNL     1      -0.011  10.768  18.391  0.00  0.00    +0.000 C 
ATOM     12  C   UNL     1      -1.182  10.092  17.712  0.00  0.00    +0.000 C 
ATOM     13  C   UNL     1      -2.345  10.049  18.704  0.00  0.00    +0.000 C 
ATOM     14  C   UNL     1      -3.027  11.411  18.679  0.00  0.00    +0.000 C 
ATOM     15  C   UNL     1      -1.975  12.498  19.016  0.00  0.00    +0.000 C 
ATOM     16  C   UNL     1      -0.477  12.239  18.648  0.00  0.00    +0.000 C 
BRANCH  14  17
ATOM     17  C   UNL     1      -3.770  11.498  17.326  0.00  0.00    +0.000 C 
BRANCH  17  18
ATOM     18  N   UNL     1      -5.197  11.621  17.375  0.00  0.00    +0.000 N 
ATOM     19  C   UNL     1      -5.947  12.694  17.016  0.00  0.00    +0.000 A 
ATOM     20  N   UNL     1      -7.152  12.536  17.511  0.00  0.00    +0.000 NA
ATOM     21  N   UNL     1      -7.121  11.347  18.204  0.00  0.00    +0.000 NA
ATOM     22  N   UNL     1      -5.921  10.789  18.137  0.00  0.00    +0.000 NA
ENDBRANCH  17  18
ENDBRANCH  14  17
ENDBRANCH   7  11
BRANCH   1  23
ATOM     23  O   UNL     1       3.616   4.549  19.224  0.00  0.00    +0.000 OA
BRANCH  23  25
ATOM     24  C   UNL     1       4.336   2.353  19.995  0.00  0.00    +0.000 C 
ATOM     25  C   UNL     1       4.484   3.437  18.942  0.00  0.00    +0.000 C 
ENDBRANCH  23  25
ENDBRANCH   1  23
TORSDOF 5
ENDMDL
MODEL 7
REMARK VINA RESULT:      -6.5      1.905      3.232
REMARK  Name = 
REMARK  6 active torsions:
REMARK  status: ('A' for Active; 'I' for Inactive)
REMARK    1  A    between atoms: C_1  and  C_2
REMARK    2  A    between atoms: C_2  and  O_3
REMARK    3  A    between atoms: O_3  and  C_4
REMARK    4  A    between atoms: C_10  and  C_12
REMARK    5  A    between atoms: C_15  and  C_16
REMARK    6  A    between atoms: C_16  and  N_17
REMARK                            x       y       z     vdW  Elec       q    Type
REMARK                         _______ _______ _______ _____ _____    ______ ____
ROOT
ATOM      1  C   UNL     1      -0.634  10.422  22.359  0.00  0.00    +0.000 C 
ATOM      2  O   UNL     1      -0.753   9.868  23.443  0.00  0.00    +0.000 OA
ATOM      3  N   UNL     1      -0.060   9.818  21.253  0.00  0.00    +0.000 N 
ATOM      4  C   UNL     1       0.070  10.434  19.922  0.00  0.00    +0.000 C 
ATOM      5  C   UNL     1       1.457  10.159  19.283  0.00  0.00    +0.000 C 
ATOM      6  N   UNL     1       1.832   8.736  19.380  0.00  0.00    +0.000 N 
ATOM      7  C   UNL     1       2.149   8.009  18.223  0.00  0.00    +0.000 C 
ATOM      8  O   UNL     1       2.292   8.566  17.134  0.00  0.00    +0.000 OA
ATOM      9  C   UNL     1       1.772   8.243  20.771  0.00  0.00    +0.000 C 
ATOM     10  C   UNL     1       0.345   8.417  21.333  0.00  0.00    +0.000 C 
ENDROOT
BRANCH   7  11
ATOM     11  C   UNL     1       2.261   6.464  18.330  0.00  0.00    +0.000 C 
ATOM     12  C   UNL     1       3.076   5.940  17.167  0.00  0.00    +0.000 C 
ATOM     13  C   UNL     1       4.493   6.501  17.292  0.00  0.00    +0.000 C 
ATOM     14  C   UNL     1       5.246   5.640  18.299  0.00  0.00    +0.000 C 
ATOM     15  C   UNL     1       4.466   5.647  19.637  0.00  0.00    +0.000 C 
ATOM     16  C   UNL     1       2.914   5.840  19.606  0.00  0.00    +0.000 C 
BRANCH  14  17
ATOM     17  C   UNL     1       5.503   4.284  17.602  0.00  0.00    +0.000 C 
BRANCH  17  18
ATOM     18  N   UNL     1       6.247   4.313  16.378  0.00  0.00    +0.000 N 
ATOM     19  C   UNL     1       7.359   5.043  16.103  0.00  0.00    +0.000 A 
ATOM     20  N   UNL     1       7.537   5.045  14.804  0.00  0.00    +0.000 NA
ATOM     21  N   UNL     1       6.494   4.317  14.280  0.00  0.00    +0.000 NA
ATOM     22  N   UNL     1       5.692   3.878  15.238  0.00  0.00    +0.000 NA
ENDBRANCH  17  18
ENDBRANCH  14  17
ENDBRANCH   7  11
BRANCH   1  23
ATOM     23  O   UNL     1      -1.034  11.701  22.106  0.00  0.00    +0.000 OA
BRANCH  23  25
ATOM     24  C   UNL     1      -3.133  12.400  23.124  0.00  0.00    +0.000 C 
ATOM     25  C   UNL     1      -1.617  12.411  23.212  0.00  0.00    +0.000 C 
ENDBRANCH  23  25
ENDBRANCH   1  23
TORSDOF 5
ENDMDL
MODEL 8
REMARK VINA RESULT:      -6.4      1.807      3.210
REMARK  Name = 
REMARK  6 active torsions:
REMARK  status: ('A' for Active; 'I' for Inactive)
REMARK    1  A    between atoms: C_1  and  C_2
REMARK    2  A    between atoms: C_2  and  O_3
REMARK    3  A    between atoms: O_3  and  C_4
REMARK    4  A    between atoms: C_10  and  C_12
REMARK    5  A    between atoms: C_15  and  C_16
REMARK    6  A    between atoms: C_16  and  N_17
REMARK                            x       y       z     vdW  Elec       q    Type
REMARK                         _______ _______ _______ _____ _____    ______ ____
ROOT
ATOM      1  C   UNL     1      -0.963  10.459  22.308  0.00  0.00    +0.000 C 
ATOM      2  O   UNL     1      -1.077   9.892  23.386  0.00  0.00    +0.000 OA
ATOM      3  N   UNL     1      -0.322   9.900  21.215  0.00  0.00    +0.000 N 
ATOM      4  C   UNL     1      -0.195  10.530  19.892  0.00  0.00    +0.000 C 
ATOM      5  C   UNL     1       1.224  10.347  19.290  0.00  0.00    +0.000 C 
ATOM      6  N   UNL     1       1.685   8.950  19.391  0.00  0.00    +0.000 N 
ATOM      7  C   UNL     1       2.080   8.251  18.240  0.00  0.00    +0.000 C 
ATOM      8  O   UNL     1       2.217   8.823  17.158  0.00  0.00    +0.000 OA
ATOM      9  C   UNL     1       1.619   8.446  20.778  0.00  0.00    +0.000 C 
ATOM     10  C   UNL     1       0.168   8.525  21.300  0.00  0.00    +0.000 C 
ENDROOT
BRANCH   7  11
ATOM     11  C   UNL     1       2.285   6.716  18.344  0.00  0.00    +0.000 C 
ATOM     12  C   UNL     1       3.058   6.233  17.135  0.00  0.00    +0.000 C 
ATOM     13  C   UNL     1       4.446   6.873  17.173  0.00  0.00    +0.000 C 
ATOM     14  C   UNL     1       5.305   6.063  18.134  0.00  0.00    +0.000 C 
ATOM     15  C   UNL     1       4.608   6.032  19.517  0.00  0.00    +0.000 C 
ATOM     16  C   UNL     1       3.048   6.136  19.580  0.00  0.00    +0.000 C 
BRANCH  14  17
ATOM     17  C   UNL     1       5.597   4.719  17.426  0.00  0.00    +0.000 C 
BRANCH  17  18
ATOM     18  N   UNL     1       6.104   4.787  16.087  0.00  0.00    +0.000 N 
ATOM     19  C   UNL     1       5.835   3.943  15.057  0.00  0.00    +0.000 A 
ATOM     20  N   UNL     1       6.728   4.145  14.119  0.00  0.00    +0.000 NA
ATOM     21  N   UNL     1       7.570   5.121  14.603  0.00  0.00    +0.000 NA
ATOM     22  N   UNL     1       7.201   5.507  15.816  0.00  0.00    +0.000 NA
ENDBRANCH  17  18
ENDBRANCH  14  17
ENDBRANCH   7  11
BRANCH   1  23
ATOM     23  O   UNL     1      -1.436  11.712  22.049  0.00  0.00    +0.000 OA
BRANCH  23  25
ATOM     24  C   UNL     1      -0.104  13.744  22.228  0.00  0.00    +0.000 C 
ATOM     25  C   UNL     1      -1.000  12.749  22.945  0.00  0.00    +0.000 C 
ENDBRANCH  23  25
ENDBRANCH   1  23
TORSDOF 5
ENDMDL
MODEL 9
REMARK VINA RESULT:      -6.3      2.694      8.661
REMARK  Name = 
REMARK  6 active torsions:
REMARK  status: ('A' for Active; 'I' for Inactive)
REMARK    1  A    between atoms: C_1  and  C_2
REMARK    2  A    between atoms: C_2  and  O_3
REMARK    3  A    between atoms: O_3  and  C_4
REMARK    4  A    between atoms: C_10  and  C_12
REMARK    5  A    between atoms: C_15  and  C_16
REMARK    6  A    between atoms: C_16  and  N_17
REMARK                            x       y       z     vdW  Elec       q    Type
REMARK                         _______ _______ _______ _____ _____    ______ ____
ROOT
ATOM      1  C   UNL     1       6.650   4.482  15.251  0.00  0.00    +0.000 C 
ATOM      2  O   UNL     1       7.778   4.939  15.369  0.00  0.00    +0.000 OA
ATOM      3  N   UNL     1       5.575   4.897  16.020  0.00  0.00    +0.000 N 
ATOM      4  C   UNL     1       4.195   4.402  15.887  0.00  0.00    +0.000 C 
ATOM      5  C   UNL     1       3.529   4.146  17.265  0.00  0.00    +0.000 C 
ATOM      6  N   UNL     1       3.726   5.280  18.186  0.00  0.00    +0.000 N 
ATOM      7  C   UNL     1       2.620   5.915  18.771  0.00  0.00    +0.000 C 
ATOM      8  O   UNL     1       1.486   5.446  18.674  0.00  0.00    +0.000 OA
ATOM      9  C   UNL     1       5.153   5.630  18.334  0.00  0.00    +0.000 C 
ATOM     10  C   UNL     1       5.751   6.001  16.960  0.00  0.00    +0.000 C 
ENDROOT
BRANCH   7  11
ATOM     11  C   UNL     1       2.847   7.266  19.502  0.00  0.00    +0.000 C 
ATOM     12  C   UNL     1       2.994   8.370  18.478  0.00  0.00    +0.000 C 
ATOM     13  C   UNL     1       1.673   8.490  17.717  0.00  0.00    +0.000 C 
ATOM     14  C   UNL     1       0.718   9.313  18.572  0.00  0.00    +0.000 C 
ATOM     15  C   UNL     1       0.569   8.626  19.952  0.00  0.00    +0.000 C 
ATOM     16  C   UNL     1       1.760   7.775  20.505  0.00  0.00    +0.000 C 
BRANCH  14  17
ATOM     17  C   UNL     1       1.242  10.768  18.526  0.00  0.00    +0.000 C 
BRANCH  17  18
ATOM     18  N   UNL     1       0.756  11.665  19.532  0.00  0.00    +0.000 N 
ATOM     19  C   UNL     1       1.389  12.053  20.669  0.00  0.00    +0.000 A 
ATOM     20  N   UNL     1       0.503  12.602  21.465  0.00  0.00    +0.000 NA
ATOM     21  N   UNL     1      -0.699  12.524  20.799  0.00  0.00    +0.000 NA
ATOM     22  N   UNL     1      -0.553  11.937  19.621  0.00  0.00    +0.000 NA
ENDBRANCH  17  18
ENDBRANCH  14  17
ENDBRANCH   7  11
BRANCH   1  23
ATOM     23  O   UNL     1       6.309   3.503  14.365  0.00  0.00    +0.000 OA
BRANCH  23  25
ATOM     24  C   UNL     1       5.363   3.224  12.138  0.00  0.00    +0.000 C 
ATOM     25  C   UNL     1       6.479   3.824  12.973  0.00  0.00    +0.000 C 
ENDBRANCH  23  25
ENDBRANCH   1  23
TORSDOF 5
ENDMDL
