MODEL 1
REMARK VINA RESULT:      -8.4      0.000      0.000
REMARK  Name = 
REMARK  4 active torsions:
REMARK  status: ('A' for Active; 'I' for Inactive)
REMARK    1  A    between atoms: C_2  and  C_13
REMARK    2  A    between atoms: N_3  and  C_4
REMARK    3  A    between atoms: C_4  and  C_5
REMARK    4  A    between atoms: C_17  and  C_19
REMARK                            x       y       z     vdW  Elec       q    Type
REMARK                         _______ _______ _______ _____ _____    ______ ____
ROOT
ATOM      1  O   UNL     1       6.787   7.171  16.504  0.00  0.00    +0.000 OA
ATOM      2  C   UNL     1       7.441   7.093  17.540  0.00  0.00    +0.000 C 
ATOM      3  N   UNL     1       7.987   8.195  18.149  0.00  0.00    +0.000 N 
ATOM      4  H   UNL     1       8.438   8.108  19.050  0.00  0.00    +0.000 HD
ENDROOT
BRANCH   2   5
ATOM      5  C   UNL     1       7.680   5.771  18.269  0.00  0.00    +0.000 C 
ATOM      6  C   UNL     1       7.473   4.541  17.377  0.00  0.00    +0.000 C 
ATOM      7  C   UNL     1       6.001   4.336  17.018  0.00  0.00    +0.000 C 
ATOM      8  N   UNL     1       5.158   4.297  18.215  0.00  0.00    +0.000 N 
ATOM      9  C   UNL     1       4.200   3.274  18.322  0.00  0.00    +0.000 C 
ATOM     10  O   UNL     1       4.169   2.372  17.485  0.00  0.00    +0.000 OA
ATOM     11  C   UNL     1       5.316   5.432  19.126  0.00  0.00    +0.000 C 
ATOM     12  C   UNL     1       6.777   5.663  19.499  0.00  0.00    +0.000 C 
BRANCH   9  13
ATOM     13  C   UNL     1       3.268   3.279  19.456  0.00  0.00    +0.000 A 
ATOM     14  C   UNL     1       3.351   2.720  20.720  0.00  0.00    +0.000 A 
ATOM     15  C   UNL     1       2.157   2.891  21.483  0.00  0.00    +0.000 A 
ATOM     16  C   UNL     1       1.242   3.683  20.830  0.00  0.00    +0.000 A 
ATOM     17  S   UNL     1       1.803   4.171  19.292  0.00  0.00    +0.000 S 
ENDBRANCH   9  13
ENDBRANCH   2   5
BRANCH   3  18
ATOM     18  C   UNL     1       7.793   9.525  17.616  0.00  0.00    +0.000 C 
BRANCH  18  19
ATOM     19  C   UNL     1       8.702  10.515  18.294  0.00  0.00    +0.000 A 
ATOM     20  C   UNL     1       9.600  10.044  19.271  0.00  0.00    +0.000 A 
ATOM     21  C   UNL     1      10.473  10.920  19.920  0.00  0.00    +0.000 A 
ATOM     22  C   UNL     1      10.452  12.274  19.603  0.00  0.00    +0.000 A 
ATOM     23 CL   UNL     1      11.537  13.353  20.388  0.00  0.00    +0.000 Cl
ATOM     24  C   UNL     1       9.555  12.765  18.657  0.00  0.00    +0.000 A 
ATOM     25  C   UNL     1       8.677  11.889  18.014  0.00  0.00    +0.000 A 
ATOM     26 CL   UNL     1       7.563  12.566  16.881  0.00  0.00    +0.000 Cl
ENDBRANCH  18  19
ENDBRANCH   3  18
TORSDOF 4
ENDMDL
MODEL 2
REMARK VINA RESULT:      -7.3      4.898      7.049
REMARK  Name = 
REMARK  4 active torsions:
REMARK  status: ('A' for Active; 'I' for Inactive)
REMARK    1  A    between atoms: C_2  and  C_13
REMARK    2  A    between atoms: N_3  and  C_4
REMARK    3  A    between atoms: C_4  and  C_5
REMARK    4  A    between atoms: C_17  and  C_19
REMARK                            x       y       z     vdW  Elec       q    Type
REMARK                         _______ _______ _______ _____ _____    ______ ____
ROOT
ATOM      1  O   UNL     1       2.023   4.355  18.664  0.00  0.00    +0.000 OA
ATOM      2  C   UNL     1       3.015   4.674  19.313  0.00  0.00    +0.000 C 
ATOM      3  N   UNL     1       2.980   5.654  20.274  0.00  0.00    +0.000 N 
ATOM      4  H   UNL     1       3.789   5.826  20.855  0.00  0.00    +0.000 HD
ENDROOT
BRANCH   2   5
ATOM      5  C   UNL     1       4.371   3.991  19.141  0.00  0.00    +0.000 C 
ATOM      6  C   UNL     1       5.554   4.966  19.211  0.00  0.00    +0.000 C 
ATOM      7  C   UNL     1       5.609   5.886  17.991  0.00  0.00    +0.000 C 
ATOM      8  N   UNL     1       5.599   5.121  16.742  0.00  0.00    +0.000 N 
ATOM      9  C   UNL     1       6.529   5.462  15.744  0.00  0.00    +0.000 C 
ATOM     10  O   UNL     1       7.402   6.297  15.979  0.00  0.00    +0.000 OA
ATOM     11  C   UNL     1       4.507   4.154  16.612  0.00  0.00    +0.000 C 
ATOM     12  C   UNL     1       4.425   3.224  17.819  0.00  0.00    +0.000 C 
BRANCH   9  13
ATOM     13  C   UNL     1       6.464   4.787  14.443  0.00  0.00    +0.000 A 
ATOM     14  C   UNL     1       5.527   3.928  13.896  0.00  0.00    +0.000 A 
ATOM     15  C   UNL     1       5.913   3.424  12.617  0.00  0.00    +0.000 A 
ATOM     16  C   UNL     1       7.075   4.007  12.169  0.00  0.00    +0.000 A 
ATOM     17  S   UNL     1       7.714   5.113  13.302  0.00  0.00    +0.000 S 
ENDBRANCH   9  13
ENDBRANCH   2   5
BRANCH   3  18
ATOM     18  C   UNL     1       1.753   6.347  20.600  0.00  0.00    +0.000 C 
BRANCH  18  19
ATOM     19  C   UNL     1       1.718   7.709  19.959  0.00  0.00    +0.000 A 
ATOM     20  C   UNL     1       2.334   7.878  18.704  0.00  0.00    +0.000 A 
ATOM     21  C   UNL     1       2.318   9.117  18.062  0.00  0.00    +0.000 A 
ATOM     22  C   UNL     1       1.692  10.200  18.671  0.00  0.00    +0.000 A 
ATOM     23 CL   UNL     1       1.656  11.725  17.875  0.00  0.00    +0.000 Cl
ATOM     24  C   UNL     1       1.098  10.061  19.922  0.00  0.00    +0.000 A 
ATOM     25  C   UNL     1       1.122   8.823  20.567  0.00  0.00    +0.000 A 
ATOM     26 CL   UNL     1       0.402   8.725  22.135  0.00  0.00    +0.000 Cl
ENDBRANCH  18  19
ENDBRANCH   3  18
TORSDOF 4
ENDMDL
MODEL 3
REMARK VINA RESULT:      -7.0      1.830      2.610
REMARK  Name = 
REMARK  4 active torsions:
REMARK  status: ('A' for Active; 'I' for Inactive)
REMARK    1  A    between atoms: C_2  and  C_13
REMARK    2  A    between atoms: N_3  and  C_4
REMARK    3  A    between atoms: C_4  and  C_5
REMARK    4  A    between atoms: C_17  and  C_19
REMARK                            x       y       z     vdW  Elec       q    Type
REMARK                         _______ _______ _______ _____ _____    ______ ____
ROOT
ATOM      1  O   UNL     1       8.207   6.492  19.213  0.00  0.00    +0.000 OA
ATOM      2  C   UNL     1       7.804   7.053  18.197  0.00  0.00    +0.000 C 
ATOM      3  N   UNL     1       8.084   8.369  17.926  0.00  0.00    +0.000 N 
ATOM      4  H   UNL     1       7.819   8.772  17.037  0.00  0.00    +0.000 HD
ENDROOT
BRANCH   2   5
ATOM      5  C   UNL     1       6.986   6.335  17.125  0.00  0.00    +0.000 C 
ATOM      6  C   UNL     1       5.770   7.140  16.651  0.00  0.00    +0.000 C 
ATOM      7  C   UNL     1       4.691   7.233  17.730  0.00  0.00    +0.000 C 
ATOM      8  N   UNL     1       4.315   5.909  18.230  0.00  0.00    +0.000 N 
ATOM      9  C   UNL     1       2.948   5.607  18.355  0.00  0.00    +0.000 C 
ATOM     10  O   UNL     1       2.104   6.398  17.934  0.00  0.00    +0.000 OA
ATOM     11  C   UNL     1       5.429   5.074  18.682  0.00  0.00    +0.000 C 
ATOM     12  C   UNL     1       6.524   4.965  17.625  0.00  0.00    +0.000 C 
BRANCH   9  13
ATOM     13  C   UNL     1       2.547   4.330  18.958  0.00  0.00    +0.000 A 
ATOM     14  C   UNL     1       2.352   3.074  18.411  0.00  0.00    +0.000 A 
ATOM     15  C   UNL     1       1.864   2.125  19.359  0.00  0.00    +0.000 A 
ATOM     16  C   UNL     1       1.818   2.649  20.629  0.00  0.00    +0.000 A 
ATOM     17  S   UNL     1       2.312   4.284  20.664  0.00  0.00    +0.000 S 
ENDBRANCH   9  13
ENDBRANCH   2   5
BRANCH   3  18
ATOM     18  C   UNL     1       8.903   9.165  18.813  0.00  0.00    +0.000 C 
BRANCH  18  19
ATOM     19  C   UNL     1       8.735  10.633  18.527  0.00  0.00    +0.000 A 
ATOM     20  C   UNL     1       7.879  11.021  17.479  0.00  0.00    +0.000 A 
ATOM     21  C   UNL     1       7.680  12.371  17.183  0.00  0.00    +0.000 A 
ATOM     22  C   UNL     1       8.340  13.344  17.927  0.00  0.00    +0.000 A 
ATOM     23 CL   UNL     1       8.084  15.009  17.575  0.00  0.00    +0.000 Cl
ATOM     24  C   UNL     1       9.209  12.982  18.952  0.00  0.00    +0.000 A 
ATOM     25  C   UNL     1       9.413  11.631  19.243  0.00  0.00    +0.000 A 
ATOM     26 CL   UNL     1      10.534  11.246  20.500  0.00  0.00    +0.000 Cl
ENDBRANCH  18  19
ENDBRANCH   3  18
TORSDOF 4
ENDMDL
MODEL 4
REMARK VINA RESULT:      -7.0      7.441      9.452
REMARK  Name = 
REMARK  4 active torsions:
REMARK  status: ('A' for Active; 'I' for Inactive)
REMARK    1  A    between atoms: C_2  and  C_13
REMARK    2  A    between atoms: N_3  and  C_4
REMARK    3  A    between atoms: C_4  and  C_5
REMARK    4  A    between atoms: C_17  and  C_19
REMARK                            x       y       z     vdW  Elec       q    Type
REMARK                         _______ _______ _______ _____ _____    ______ ____
ROOT
ATOM      1  O   UNL     1       1.465   8.689  20.233  0.00  0.00    +0.000 OA
ATOM      2  C   UNL     1       1.587   8.839  19.021  0.00  0.00    +0.000 C 
ATOM      3  N   UNL     1       2.249   7.932  18.231  0.00  0.00    +0.000 N 
ATOM      4  H   UNL     1       2.249   8.038  17.225  0.00  0.00    +0.000 HD
ENDROOT
BRANCH   2   5
ATOM      5  C   UNL     1       0.988  10.028  18.270  0.00  0.00    +0.000 C 
ATOM      6  C   UNL     1       1.634  11.368  18.643  0.00  0.00    +0.000 C 
ATOM      7  C   UNL     1       1.277  11.799  20.065  0.00  0.00    +0.000 C 
ATOM      8  N   UNL     1      -0.172  11.808  20.276  0.00  0.00    +0.000 N 
ATOM      9  C   UNL     1      -0.747  12.926  20.905  0.00  0.00    +0.000 C 
ATOM     10  O   UNL     1      -0.055  13.914  21.152  0.00  0.00    +0.000 OA
ATOM     11  C   UNL     1      -0.861  10.566  19.923  0.00  0.00    +0.000 C 
ATOM     12  C   UNL     1      -0.521  10.109  18.507  0.00  0.00    +0.000 C 
BRANCH   9  13
ATOM     13  C   UNL     1      -2.178  12.910  21.229  0.00  0.00    +0.000 A 
ATOM     14  C   UNL     1      -3.301  13.145  20.454  0.00  0.00    +0.000 A 
ATOM     15  C   UNL     1      -4.513  13.118  21.208  0.00  0.00    +0.000 A 
ATOM     16  C   UNL     1      -4.294  12.742  22.512  0.00  0.00    +0.000 A 
ATOM     17  S   UNL     1      -2.638  12.472  22.830  0.00  0.00    +0.000 S 
ENDBRANCH   9  13
ENDBRANCH   2   5
BRANCH   3  18
ATOM     18  C   UNL     1       2.815   6.722  18.784  0.00  0.00    +0.000 C 
BRANCH  18  19
ATOM     19  C   UNL     1       3.665   6.011  17.766  0.00  0.00    +0.000 A 
ATOM     20  C   UNL     1       4.552   6.772  16.980  0.00  0.00    +0.000 A 
ATOM     21  C   UNL     1       5.372   6.159  16.031  0.00  0.00    +0.000 A 
ATOM     22  C   UNL     1       5.308   4.780  15.853  0.00  0.00    +0.000 A 
ATOM     23 CL   UNL     1       6.328   4.019  14.696  0.00  0.00    +0.000 Cl
ATOM     24  C   UNL     1       4.421   4.012  16.602  0.00  0.00    +0.000 A 
ATOM     25  C   UNL     1       3.596   4.627  17.546  0.00  0.00    +0.000 A 
ATOM     26 CL   UNL     1       2.489   3.624  18.415  0.00  0.00    +0.000 Cl
ENDBRANCH  18  19
ENDBRANCH   3  18
TORSDOF 4
ENDMDL
MODEL 5
REMARK VINA RESULT:      -6.9      5.521      7.735
REMARK  Name = 
REMARK  4 active torsions:
REMARK  status: ('A' for Active; 'I' for Inactive)
REMARK    1  A    between atoms: C_2  and  C_13
REMARK    2  A    between atoms: N_3  and  C_4
REMARK    3  A    between atoms: C_4  and  C_5
REMARK    4  A    between atoms: C_17  and  C_19
REMARK                            x       y       z     vdW  Elec       q    Type
REMARK                         _______ _______ _______ _____ _____    ______ ____
ROOT
ATOM      1  O   UNL     1       2.041   7.829  20.729  0.00  0.00    +0.000 OA
ATOM      2  C   UNL     1       1.974   7.362  19.595  0.00  0.00    +0.000 C 
ATOM      3  N   UNL     1       1.877   8.156  18.479  0.00  0.00    +0.000 N 
ATOM      4  H   UNL     1       1.919   7.743  17.557  0.00  0.00    +0.000 HD
ENDROOT
BRANCH   2   5
ATOM      5  C   UNL     1       2.026   5.861  19.315  0.00  0.00    +0.000 C 
ATOM      6  C   UNL     1       3.086   5.126  20.146  0.00  0.00    +0.000 C 
ATOM      7  C   UNL     1       4.506   5.486  19.709  0.00  0.00    +0.000 C 
ATOM      8  N   UNL     1       4.693   5.280  18.271  0.00  0.00    +0.000 N 
ATOM      9  C   UNL     1       5.846   4.601  17.839  0.00  0.00    +0.000 C 
ATOM     10  O   UNL     1       6.603   4.091  18.666  0.00  0.00    +0.000 OA
ATOM     11  C   UNL     1       3.705   5.937  17.413  0.00  0.00    +0.000 C 
ATOM     12  C   UNL     1       2.276   5.599  17.829  0.00  0.00    +0.000 C 
BRANCH   9  13
ATOM     13  C   UNL     1       6.113   4.482  16.401  0.00  0.00    +0.000 A 
ATOM     14  C   UNL     1       5.590   3.641  15.434  0.00  0.00    +0.000 A 
ATOM     15  C   UNL     1       6.211   3.805  14.160  0.00  0.00    +0.000 A 
ATOM     16  C   UNL     1       7.104   4.850  14.158  0.00  0.00    +0.000 A 
ATOM     17  S   UNL     1       7.223   5.592  15.692  0.00  0.00    +0.000 S 
ENDBRANCH   9  13
ENDBRANCH   2   5
BRANCH   3  18
ATOM     18  C   UNL     1       1.882   9.598  18.576  0.00  0.00    +0.000 C 
BRANCH  18  19
ATOM     19  C   UNL     1       0.478  10.141  18.593  0.00  0.00    +0.000 A 
ATOM     20  C   UNL     1      -0.435   9.676  17.628  0.00  0.00    +0.000 A 
ATOM     21  C   UNL     1      -1.752  10.139  17.609  0.00  0.00    +0.000 A 
ATOM     22  C   UNL     1      -2.166  11.075  18.551  0.00  0.00    +0.000 A 
ATOM     23 CL   UNL     1      -3.793  11.636  18.541  0.00  0.00    +0.000 Cl
ATOM     24  C   UNL     1      -1.273  11.567  19.499  0.00  0.00    +0.000 A 
ATOM     25  C   UNL     1       0.046  11.109  19.512  0.00  0.00    +0.000 A 
ATOM     26 CL   UNL     1       1.115  11.786  20.688  0.00  0.00    +0.000 Cl
ENDBRANCH  18  19
ENDBRANCH   3  18
TORSDOF 4
ENDMDL
MODEL 6
REMARK VINA RESULT:      -6.8      6.413      7.492
REMARK  Name = 
REMARK  4 active torsions:
REMARK  status: ('A' for Active; 'I' for Inactive)
REMARK    1  A    between atoms: C_2  and  C_13
REMARK    2  A    between atoms: N_3  and  C_4
REMARK    3  A    between atoms: C_4  and  C_5
REMARK    4  A    between atoms: C_17  and  C_19
REMARK                            x       y       z     vdW  Elec       q    Type
REMARK                         _______ _______ _______ _____ _____    ______ ____
ROOT
ATOM      1  O   UNL     1       2.391  11.664  18.151  0.00  0.00    +0.000 OA
ATOM      2  C   UNL     1       1.492  11.387  18.940  0.00  0.00    +0.000 C 
ATOM      3  N   UNL     1       1.263  12.118  20.079  0.00  0.00    +0.000 N 
ATOM      4  H   UNL     1       0.456  11.920  20.656  0.00  0.00    +0.000 HD
ENDROOT
BRANCH   2   5
ATOM      5  C   UNL     1       0.522  10.228  18.714  0.00  0.00    +0.000 C 
ATOM      6  C   UNL     1       0.152   9.487  20.005  0.00  0.00    +0.000 C 
ATOM      7  C   UNL     1       1.330   8.687  20.562  0.00  0.00    +0.000 C 
ATOM      8  N   UNL     1       1.895   7.788  19.553  0.00  0.00    +0.000 N 
ATOM      9  C   UNL     1       2.161   6.458  19.920  0.00  0.00    +0.000 C 
ATOM     10  O   UNL     1       1.807   6.043  21.024  0.00  0.00    +0.000 OA
ATOM     11  C   UNL     1       2.254   8.424  18.284  0.00  0.00    +0.000 C 
ATOM     12  C   UNL     1       1.097   9.232  17.705  0.00  0.00    +0.000 C 
BRANCH   9  13
ATOM     13  C   UNL     1       2.830   5.569  18.962  0.00  0.00    +0.000 A 
ATOM     14  C   UNL     1       2.348   4.844  17.886  0.00  0.00    +0.000 A 
ATOM     15  C   UNL     1       3.345   4.026  17.276  0.00  0.00    +0.000 A 
ATOM     16  C   UNL     1       4.587   4.241  17.823  0.00  0.00    +0.000 A 
ATOM     17  S   UNL     1       4.537   5.384  19.092  0.00  0.00    +0.000 S 
ENDBRANCH   9  13
ENDBRANCH   2   5
BRANCH   3  18
ATOM     18  C   UNL     1       2.055  13.284  20.399  0.00  0.00    +0.000 C 
BRANCH  18  19
ATOM     19  C   UNL     1       1.515  14.507  19.706  0.00  0.00    +0.000 A 
ATOM     20  C   UNL     1       0.149  14.815  19.852  0.00  0.00    +0.000 A 
ATOM     21  C   UNL     1      -0.397  15.945  19.240  0.00  0.00    +0.000 A 
ATOM     22  C   UNL     1       0.416  16.773  18.471  0.00  0.00    +0.000 A 
ATOM     23 CL   UNL     1      -0.250  18.175  17.729  0.00  0.00    +0.000 Cl
ATOM     24  C   UNL     1       1.764  16.474  18.294  0.00  0.00    +0.000 A 
ATOM     25  C   UNL     1       2.307  15.339  18.901  0.00  0.00    +0.000 A 
ATOM     26 CL   UNL     1       3.977  15.001  18.610  0.00  0.00    +0.000 Cl
ENDBRANCH  18  19
ENDBRANCH   3  18
TORSDOF 4
ENDMDL
MODEL 7
REMARK VINA RESULT:      -6.7      5.161      7.113
REMARK  Name = 
REMARK  4 active torsions:
REMARK  status: ('A' for Active; 'I' for Inactive)
REMARK    1  A    between atoms: C_2  and  C_13
REMARK    2  A    between atoms: N_3  and  C_4
REMARK    3  A    between atoms: C_4  and  C_5
REMARK    4  A    between atoms: C_17  and  C_19
REMARK                            x       y       z     vdW  Elec       q    Type
REMARK                         _______ _______ _______ _____ _____    ______ ____
ROOT
ATOM      1  O   UNL     1       0.605   3.499  19.543  0.00  0.00    +0.000 OA
ATOM      2  C   UNL     1       1.805   3.588  19.790  0.00  0.00    +0.000 C 
ATOM      3  N   UNL     1       2.335   4.645  20.487  0.00  0.00    +0.000 N 
ATOM      4  H   UNL     1       3.310   4.639  20.755  0.00  0.00    +0.000 HD
ENDROOT
BRANCH   2   5
ATOM      5  C   UNL     1       2.815   2.518  19.376  0.00  0.00    +0.000 C 
ATOM      6  C   UNL     1       4.197   2.712  20.013  0.00  0.00    +0.000 C 
ATOM      7  C   UNL     1       4.921   3.934  19.448  0.00  0.00    +0.000 C 
ATOM      8  N   UNL     1       4.989   3.889  17.985  0.00  0.00    +0.000 N 
ATOM      9  C   UNL     1       6.221   4.168  17.367  0.00  0.00    +0.000 C 
ATOM     10  O   UNL     1       7.231   4.321  18.054  0.00  0.00    +0.000 OA
ATOM     11  C   UNL     1       3.708   3.686  17.308  0.00  0.00    +0.000 C 
ATOM     12  C   UNL     1       2.960   2.473  17.854  0.00  0.00    +0.000 C 
BRANCH   9  13
ATOM     13  C   UNL     1       6.288   4.239  15.903  0.00  0.00    +0.000 A 
ATOM     14  C   UNL     1       5.663   3.499  14.914  0.00  0.00    +0.000 A 
ATOM     15  C   UNL     1       6.096   3.849  13.600  0.00  0.00    +0.000 A 
ATOM     16  C   UNL     1       6.946   4.929  13.613  0.00  0.00    +0.000 A 
ATOM     17  S   UNL     1       7.253   5.481  15.200  0.00  0.00    +0.000 S 
ENDBRANCH   9  13
ENDBRANCH   2   5
BRANCH   3  18
ATOM     18  C   UNL     1       1.498   5.704  21.003  0.00  0.00    +0.000 C 
BRANCH  18  19
ATOM     19  C   UNL     1       1.654   6.959  20.186  0.00  0.00    +0.000 A 
ATOM     20  C   UNL     1       2.445   6.911  19.023  0.00  0.00    +0.000 A 
ATOM     21  C   UNL     1       2.610   8.044  18.224  0.00  0.00    +0.000 A 
ATOM     22  C   UNL     1       1.992   9.237  18.585  0.00  0.00    +0.000 A 
ATOM     23 CL   UNL     1       2.179  10.631  17.594  0.00  0.00    +0.000 Cl
ATOM     24  C   UNL     1       1.225   9.313  19.744  0.00  0.00    +0.000 A 
ATOM     25  C   UNL     1       1.066   8.181  20.546  0.00  0.00    +0.000 A 
ATOM     26 CL   UNL     1       0.135   8.351  21.992  0.00  0.00    +0.000 Cl
ENDBRANCH  18  19
ENDBRANCH   3  18
TORSDOF 4
ENDMDL
MODEL 8
REMARK VINA RESULT:      -6.7      7.705      9.674
REMARK  Name = 
REMARK  4 active torsions:
REMARK  status: ('A' for Active; 'I' for Inactive)
REMARK    1  A    between atoms: C_2  and  C_13
REMARK    2  A    between atoms: N_3  and  C_4
REMARK    3  A    between atoms: C_4  and  C_5
REMARK    4  A    between atoms: C_17  and  C_19
REMARK                            x       y       z     vdW  Elec       q    Type
REMARK                         _______ _______ _______ _____ _____    ______ ____
ROOT
ATOM      1  O   UNL     1       1.067   8.883  20.617  0.00  0.00    +0.000 OA
ATOM      2  C   UNL     1       1.438   9.107  19.468  0.00  0.00    +0.000 C 
ATOM      3  N   UNL     1       2.076   8.161  18.705  0.00  0.00    +0.000 N 
ATOM      4  H   UNL     1       2.282   8.346  17.733  0.00  0.00    +0.000 HD
ENDROOT
BRANCH   2   5
ATOM      5  C   UNL     1       1.195  10.442  18.766  0.00  0.00    +0.000 C 
ATOM      6  C   UNL     1       0.974  11.607  19.739  0.00  0.00    +0.000 C 
ATOM      7  C   UNL     1      -0.362  11.493  20.472  0.00  0.00    +0.000 C 
ATOM      8  N   UNL     1      -1.478  11.339  19.535  0.00  0.00    +0.000 N 
ATOM      9  C   UNL     1      -2.623  12.130  19.727  0.00  0.00    +0.000 C 
ATOM     10  O   UNL     1      -2.623  13.012  20.586  0.00  0.00    +0.000 OA
ATOM     11  C   UNL     1      -1.328  10.256  18.561  0.00  0.00    +0.000 C 
ATOM     12  C   UNL     1       0.001  10.342  17.815  0.00  0.00    +0.000 C 
BRANCH   9  13
ATOM     13  C   UNL     1      -3.796  11.914  18.871  0.00  0.00    +0.000 A 
ATOM     14  C   UNL     1      -3.911  11.568  17.536  0.00  0.00    +0.000 A 
ATOM     15  C   UNL     1      -5.263  11.558  17.079  0.00  0.00    +0.000 A 
ATOM     16  C   UNL     1      -6.151  11.775  18.105  0.00  0.00    +0.000 A 
ATOM     17  S   UNL     1      -5.355  12.036  19.594  0.00  0.00    +0.000 S 
ENDBRANCH   9  13
ENDBRANCH   2   5
BRANCH   3  18
ATOM     18  C   UNL     1       2.320   6.827  19.206  0.00  0.00    +0.000 C 
BRANCH  18  19
ATOM     19  C   UNL     1       3.176   6.041  18.249  0.00  0.00    +0.000 A 
ATOM     20  C   UNL     1       4.212   6.709  17.569  0.00  0.00    +0.000 A 
ATOM     21  C   UNL     1       5.042   6.022  16.681  0.00  0.00    +0.000 A 
ATOM     22  C   UNL     1       4.841   4.663  16.461  0.00  0.00    +0.000 A 
ATOM     23 CL   UNL     1       5.872   3.810  15.380  0.00  0.00    +0.000 Cl
ATOM     24  C   UNL     1       3.807   3.988  17.105  0.00  0.00    +0.000 A 
ATOM     25  C   UNL     1       2.973   4.678  17.987  0.00  0.00    +0.000 A 
ATOM     26 CL   UNL     1       1.685   3.793  18.724  0.00  0.00    +0.000 Cl
ENDBRANCH  18  19
ENDBRANCH   3  18
TORSDOF 4
ENDMDL
MODEL 9
REMARK VINA RESULT:      -6.7      4.176      5.738
REMARK  Name = 
REMARK  4 active torsions:
REMARK  status: ('A' for Active; 'I' for Inactive)
REMARK    1  A    between atoms: C_2  and  C_13
REMARK    2  A    between atoms: N_3  and  C_4
REMARK    3  A    between atoms: C_4  and  C_5
REMARK    4  A    between atoms: C_17  and  C_19
REMARK                            x       y       z     vdW  Elec       q    Type
REMARK                         _______ _______ _______ _____ _____    ______ ____
ROOT
ATOM      1  O   UNL     1       4.563   4.946  20.112  0.00  0.00    +0.000 OA
ATOM      2  C   UNL     1       3.960   4.869  19.045  0.00  0.00    +0.000 C 
ATOM      3  N   UNL     1       4.604   4.659  17.851  0.00  0.00    +0.000 N 
ATOM      4  H   UNL     1       4.071   4.506  17.006  0.00  0.00    +0.000 HD
ENDROOT
BRANCH   2   5
ATOM      5  C   UNL     1       2.438   4.965  18.946  0.00  0.00    +0.000 C 
ATOM      6  C   UNL     1       1.962   5.914  17.839  0.00  0.00    +0.000 C 
ATOM      7  C   UNL     1       2.257   7.376  18.172  0.00  0.00    +0.000 C 
ATOM      8  N   UNL     1       1.720   7.746  19.484  0.00  0.00    +0.000 N 
ATOM      9  C   UNL     1       1.000   8.948  19.594  0.00  0.00    +0.000 C 
ATOM     10  O   UNL     1       0.729   9.596  18.583  0.00  0.00    +0.000 OA
ATOM     11  C   UNL     1       2.117   6.873  20.589  0.00  0.00    +0.000 C 
ATOM     12  C   UNL     1       1.837   5.404  20.283  0.00  0.00    +0.000 C 
BRANCH   9  13
ATOM     13  C   UNL     1       0.550   9.397  20.917  0.00  0.00    +0.000 A 
ATOM     14  C   UNL     1       0.745   8.873  22.183  0.00  0.00    +0.000 A 
ATOM     15  C   UNL     1       0.038   9.588  23.196  0.00  0.00    +0.000 A 
ATOM     16  C   UNL     1      -0.577  10.710  22.694  0.00  0.00    +0.000 A 
ATOM     17  S   UNL     1      -0.342  10.868  21.010  0.00  0.00    +0.000 S 
ENDBRANCH   9  13
ENDBRANCH   2   5
BRANCH   3  18
ATOM     18  C   UNL     1       6.038   4.482  17.789  0.00  0.00    +0.000 C 
BRANCH  18  19
ATOM     19  C   UNL     1       6.748   5.805  17.887  0.00  0.00    +0.000 A 
ATOM     20  C   UNL     1       7.738   5.966  18.876  0.00  0.00    +0.000 A 
ATOM     21  C   UNL     1       8.434   7.170  19.000  0.00  0.00    +0.000 A 
ATOM     22  C   UNL     1       8.144   8.225  18.141  0.00  0.00    +0.000 A 
ATOM     23 CL   UNL     1       9.011   9.704  18.280  0.00  0.00    +0.000 Cl
ATOM     24  C   UNL     1       7.152   8.096  17.172  0.00  0.00    +0.000 A 
ATOM     25  C   UNL     1       6.451   6.894  17.054  0.00  0.00    +0.000 A 
ATOM     26 CL   UNL     1       5.206   6.810  15.859  0.00  0.00    +0.000 Cl
ENDBRANCH  18  19
ENDBRANCH   3  18
TORSDOF 4
ENDMDL
