MODEL 1
REMARK VINA RESULT:      -8.9      0.000      0.000
REMARK  Name = 
REMARK  7 active torsions:
REMARK  status: ('A' for Active; 'I' for Inactive)
REMARK    1  A    between atoms: C_2  and  C_3
REMARK    2  A    between atoms: C_3  and  S_4
REMARK    3  A    between atoms: S_4  and  C_5
REMARK    4  A    between atoms: N_13  and  C_14
REMARK    5  A    between atoms: C_14  and  C_15
REMARK    6  A    between atoms: N_17  and  C_18
REMARK    7  A    between atoms: N_26  and  C_27
REMARK                            x       y       z     vdW  Elec       q    Type
REMARK                         _______ _______ _______ _____ _____    ______ ____
ROOT
ATOM      1  C   UNL     1       6.895   5.624  16.018  0.00  0.00    +0.000 A 
ATOM      2  N   UNL     1       7.767   5.339  15.082  0.00  0.00    +0.000 NA
ATOM      3  C   UNL     1       7.039   4.692  14.111  0.00  0.00    +0.000 A 
ATOM      4  C   UNL     1       7.473   4.102  12.909  0.00  0.00    +0.000 A 
ATOM      5  C   UNL     1       6.528   3.492  12.078  0.00  0.00    +0.000 A 
ATOM      6  C   UNL     1       5.175   3.475  12.419  0.00  0.00    +0.000 A 
ATOM      7  C   UNL     1       4.721   4.058  13.609  0.00  0.00    +0.000 A 
ATOM      8  C   UNL     1       5.684   4.654  14.435  0.00  0.00    +0.000 A 
ATOM      9  N   UNL     1       5.614   5.312  15.644  0.00  0.00    +0.000 N 
ENDROOT
BRANCH   1  10
ATOM     10  S   UNL     1       7.288   6.234  17.589  0.00  0.00    +0.000 S 
BRANCH  10  11
ATOM     11  C   UNL     1       7.232   8.020  17.301  0.00  0.00    +0.000 C 
BRANCH  11  13
ATOM     12  O   UNL     1       8.842   8.111  19.065  0.00  0.00    +0.000 OA
ATOM     13  C   UNL     1       8.294   8.707  18.141  0.00  0.00    +0.000 C 
ATOM     14  N   UNL     1       8.508  10.030  17.790  0.00  0.00    +0.000 N 
ATOM     15  H   UNL     1       7.814  10.457  17.181  0.00  0.00    +0.000 HD
BRANCH  14  16
ATOM     16  C   UNL     1       9.455  10.897  18.378  0.00  0.00    +0.000 A 
ATOM     17  C   UNL     1      10.297  11.732  17.634  0.00  0.00    +0.000 A 
ATOM     18  C   UNL     1      11.266  12.514  18.270  0.00  0.00    +0.000 A 
ATOM     19  C   UNL     1      11.380  12.472  19.653  0.00  0.00    +0.000 A 
ATOM     20  F   UNL     1      12.330  13.193  20.261  0.00  0.00    +0.000 F 
ATOM     21  C   UNL     1      10.523  11.684  20.412  0.00  0.00    +0.000 A 
ATOM     22  C   UNL     1       9.551  10.907  19.776  0.00  0.00    +0.000 A 
ENDBRANCH  14  16
ENDBRANCH  11  13
ENDBRANCH  10  11
ENDBRANCH   1  10
BRANCH   9  23
ATOM     23  C   UNL     1       4.392   5.729  16.301  0.00  0.00    +0.000 C 
BRANCH  23  24
ATOM     24  C   UNL     1       3.804   4.702  17.236  0.00  0.00    +0.000 C 
ATOM     25  O   UNL     1       3.503   3.591  16.794  0.00  0.00    +0.000 OA
ATOM     26  N   UNL     1       3.504   5.125  18.522  0.00  0.00    +0.000 N 
ATOM     27  H   UNL     1       3.348   6.123  18.655  0.00  0.00    +0.000 HD
BRANCH  26  28
ATOM     28  C   UNL     1       2.818   4.278  19.422  0.00  0.00    +0.000 A 
ATOM     29  C   UNL     1       1.442   4.399  19.638  0.00  0.00    +0.000 A 
ATOM     30  C   UNL     1       0.827   3.650  20.640  0.00  0.00    +0.000 A 
ATOM     31  C   UNL     1       1.591   2.789  21.421  0.00  0.00    +0.000 A 
ATOM     32  F   UNL     1       1.009   2.125  22.426  0.00  0.00    +0.000 F 
ATOM     33  C   UNL     1       2.949   2.617  21.184  0.00  0.00    +0.000 A 
ATOM     34  C   UNL     1       3.549   3.344  20.162  0.00  0.00    +0.000 A 
ATOM     35  F   UNL     1       4.867   3.213  19.952  0.00  0.00    +0.000 F 
ENDBRANCH  26  28
ENDBRANCH  23  24
ENDBRANCH   9  23
TORSDOF 7
ENDMDL
MODEL 2
REMARK VINA RESULT:      -8.7      4.251      7.119
REMARK  Name = 
REMARK  7 active torsions:
REMARK  status: ('A' for Active; 'I' for Inactive)
REMARK    1  A    between atoms: C_2  and  C_3
REMARK    2  A    between atoms: C_3  and  S_4
REMARK    3  A    between atoms: S_4  and  C_5
REMARK    4  A    between atoms: N_13  and  C_14
REMARK    5  A    between atoms: C_14  and  C_15
REMARK    6  A    between atoms: N_17  and  C_18
REMARK    7  A    between atoms: N_26  and  C_27
REMARK                            x       y       z     vdW  Elec       q    Type
REMARK                         _______ _______ _______ _____ _____    ______ ____
ROOT
ATOM      1  C   UNL     1       5.346   4.839  18.895  0.00  0.00    +0.000 A 
ATOM      2  N   UNL     1       5.229   3.544  19.064  0.00  0.00    +0.000 NA
ATOM      3  C   UNL     1       3.901   3.279  18.830  0.00  0.00    +0.000 A 
ATOM      4  C   UNL     1       3.197   2.065  18.935  0.00  0.00    +0.000 A 
ATOM      5  C   UNL     1       1.829   2.051  18.642  0.00  0.00    +0.000 A 
ATOM      6  C   UNL     1       1.169   3.212  18.239  0.00  0.00    +0.000 A 
ATOM      7  C   UNL     1       1.850   4.431  18.126  0.00  0.00    +0.000 A 
ATOM      8  C   UNL     1       3.218   4.427  18.434  0.00  0.00    +0.000 A 
ATOM      9  N   UNL     1       4.188   5.406  18.432  0.00  0.00    +0.000 N 
ENDROOT
BRANCH   1  10
ATOM     10  S   UNL     1       6.752   5.770  19.288  0.00  0.00    +0.000 S 
BRANCH  10  11
ATOM     11  C   UNL     1       7.149   6.510  17.685  0.00  0.00    +0.000 C 
BRANCH  11  13
ATOM     12  O   UNL     1       7.921   4.411  16.841  0.00  0.00    +0.000 OA
ATOM     13  C   UNL     1       7.254   5.421  16.631  0.00  0.00    +0.000 C 
ATOM     14  N   UNL     1       6.591   5.726  15.453  0.00  0.00    +0.000 N 
ATOM     15  H   UNL     1       6.298   6.692  15.332  0.00  0.00    +0.000 HD
BRANCH  14  16
ATOM     16  C   UNL     1       6.495   4.888  14.321  0.00  0.00    +0.000 A 
ATOM     17  C   UNL     1       7.437   4.886  13.284  0.00  0.00    +0.000 A 
ATOM     18  C   UNL     1       7.247   4.087  12.153  0.00  0.00    +0.000 A 
ATOM     19  C   UNL     1       6.123   3.278  12.067  0.00  0.00    +0.000 A 
ATOM     20  F   UNL     1       5.923   2.538  10.969  0.00  0.00    +0.000 F 
ATOM     21  C   UNL     1       5.200   3.231  13.105  0.00  0.00    +0.000 A 
ATOM     22  C   UNL     1       5.393   4.027  14.239  0.00  0.00    +0.000 A 
ENDBRANCH  14  16
ENDBRANCH  11  13
ENDBRANCH  10  11
ENDBRANCH   1  10
BRANCH   9  23
ATOM     23  C   UNL     1       4.032   6.740  17.886  0.00  0.00    +0.000 C 
BRANCH  23  24
ATOM     24  C   UNL     1       2.790   7.461  18.344  0.00  0.00    +0.000 C 
ATOM     25  O   UNL     1       2.053   7.980  17.503  0.00  0.00    +0.000 OA
ATOM     26  N   UNL     1       2.627   7.618  19.712  0.00  0.00    +0.000 N 
ATOM     27  H   UNL     1       3.468   7.582  20.285  0.00  0.00    +0.000 HD
BRANCH  26  28
ATOM     28  C   UNL     1       1.572   8.404  20.230  0.00  0.00    +0.000 A 
ATOM     29  C   UNL     1       1.478   9.772  19.958  0.00  0.00    +0.000 A 
ATOM     30  C   UNL     1       0.515  10.545  20.606  0.00  0.00    +0.000 A 
ATOM     31  C   UNL     1      -0.344   9.946  21.521  0.00  0.00    +0.000 A 
ATOM     32  F   UNL     1      -1.221  10.704  22.191  0.00  0.00    +0.000 F 
ATOM     33  C   UNL     1      -0.299   8.578  21.762  0.00  0.00    +0.000 A 
ATOM     34  C   UNL     1       0.644   7.809  21.089  0.00  0.00    +0.000 A 
ATOM     35  F   UNL     1       0.720   6.495  21.344  0.00  0.00    +0.000 F 
ENDBRANCH  26  28
ENDBRANCH  23  24
ENDBRANCH   9  23
TORSDOF 7
ENDMDL
MODEL 3
REMARK VINA RESULT:      -8.6      4.729      8.032
REMARK  Name = 
REMARK  7 active torsions:
REMARK  status: ('A' for Active; 'I' for Inactive)
REMARK    1  A    between atoms: C_2  and  C_3
REMARK    2  A    between atoms: C_3  and  S_4
REMARK    3  A    between atoms: S_4  and  C_5
REMARK    4  A    between atoms: N_13  and  C_14
REMARK    5  A    between atoms: C_14  and  C_15
REMARK    6  A    between atoms: N_17  and  C_18
REMARK    7  A    between atoms: N_26  and  C_27
REMARK                            x       y       z     vdW  Elec       q    Type
REMARK                         _______ _______ _______ _____ _____    ______ ____
ROOT
ATOM      1  C   UNL     1       4.454   5.883  18.376  0.00  0.00    +0.000 A 
ATOM      2  N   UNL     1       4.900   4.770  18.905  0.00  0.00    +0.000 NA
ATOM      3  C   UNL     1       3.803   4.207  19.513  0.00  0.00    +0.000 A 
ATOM      4  C   UNL     1       3.711   3.039  20.292  0.00  0.00    +0.000 A 
ATOM      5  C   UNL     1       2.465   2.670  20.810  0.00  0.00    +0.000 A 
ATOM      6  C   UNL     1       1.326   3.435  20.554  0.00  0.00    +0.000 A 
ATOM      7  C   UNL     1       1.395   4.600  19.780  0.00  0.00    +0.000 A 
ATOM      8  C   UNL     1       2.653   4.959  19.279  0.00  0.00    +0.000 A 
ATOM      9  N   UNL     1       3.095   6.005  18.496  0.00  0.00    +0.000 N 
ENDROOT
BRANCH   1  10
ATOM     10  S   UNL     1       5.446   7.121  17.682  0.00  0.00    +0.000 S 
BRANCH  10  11
ATOM     11  C   UNL     1       7.089   6.374  17.810  0.00  0.00    +0.000 C 
BRANCH  11  13
ATOM     12  O   UNL     1       7.997   4.370  16.877  0.00  0.00    +0.000 OA
ATOM     13  C   UNL     1       7.269   5.345  16.708  0.00  0.00    +0.000 C 
ATOM     14  N   UNL     1       6.596   5.661  15.539  0.00  0.00    +0.000 N 
ATOM     15  H   UNL     1       6.243   6.612  15.460  0.00  0.00    +0.000 HD
BRANCH  14  16
ATOM     16  C   UNL     1       6.560   4.873  14.368  0.00  0.00    +0.000 A 
ATOM     17  C   UNL     1       7.533   4.946  13.363  0.00  0.00    +0.000 A 
ATOM     18  C   UNL     1       7.402   4.193  12.192  0.00  0.00    +0.000 A 
ATOM     19  C   UNL     1       6.307   3.355  12.035  0.00  0.00    +0.000 A 
ATOM     20  F   UNL     1       6.163   2.659  10.900  0.00  0.00    +0.000 F 
ATOM     21  C   UNL     1       5.355   3.234  13.041  0.00  0.00    +0.000 A 
ATOM     22  C   UNL     1       5.489   3.983  14.214  0.00  0.00    +0.000 A 
ENDBRANCH  14  16
ENDBRANCH  11  13
ENDBRANCH  10  11
ENDBRANCH   1  10
BRANCH   9  23
ATOM     23  C   UNL     1       2.243   6.952  17.806  0.00  0.00    +0.000 C 
BRANCH  23  24
ATOM     24  C   UNL     1       1.905   8.186  18.605  0.00  0.00    +0.000 C 
ATOM     25  O   UNL     1       2.058   8.168  19.828  0.00  0.00    +0.000 OA
ATOM     26  N   UNL     1       1.302   9.229  17.919  0.00  0.00    +0.000 N 
ATOM     27  H   UNL     1       0.804   8.993  17.062  0.00  0.00    +0.000 HD
BRANCH  26  28
ATOM     28  C   UNL     1       0.817  10.364  18.609  0.00  0.00    +0.000 A 
ATOM     29  C   UNL     1      -0.431  10.361  19.238  0.00  0.00    +0.000 A 
ATOM     30  C   UNL     1      -0.941  11.541  19.778  0.00  0.00    +0.000 A 
ATOM     31  C   UNL     1      -0.202  12.715  19.681  0.00  0.00    +0.000 A 
ATOM     32  F   UNL     1      -0.725  13.859  20.139  0.00  0.00    +0.000 F 
ATOM     33  C   UNL     1       1.064  12.724  19.108  0.00  0.00    +0.000 A 
ATOM     34  C   UNL     1       1.578  11.536  18.600  0.00  0.00    +0.000 A 
ATOM     35  F   UNL     1       2.782  11.544  18.009  0.00  0.00    +0.000 F 
ENDBRANCH  26  28
ENDBRANCH  23  24
ENDBRANCH   9  23
TORSDOF 7
ENDMDL
MODEL 4
REMARK VINA RESULT:      -8.5      4.641      8.124
REMARK  Name = 
REMARK  7 active torsions:
REMARK  status: ('A' for Active; 'I' for Inactive)
REMARK    1  A    between atoms: C_2  and  C_3
REMARK    2  A    between atoms: C_3  and  S_4
REMARK    3  A    between atoms: S_4  and  C_5
REMARK    4  A    between atoms: N_13  and  C_14
REMARK    5  A    between atoms: C_14  and  C_15
REMARK    6  A    between atoms: N_17  and  C_18
REMARK    7  A    between atoms: N_26  and  C_27
REMARK                            x       y       z     vdW  Elec       q    Type
REMARK                         _______ _______ _______ _____ _____    ______ ____
ROOT
ATOM      1  C   UNL     1       4.149   5.719  18.401  0.00  0.00    +0.000 A 
ATOM      2  N   UNL     1       4.631   4.619  18.927  0.00  0.00    +0.000 NA
ATOM      3  C   UNL     1       3.590   4.093  19.654  0.00  0.00    +0.000 A 
ATOM      4  C   UNL     1       3.559   2.954  20.480  0.00  0.00    +0.000 A 
ATOM      5  C   UNL     1       2.363   2.622  21.126  0.00  0.00    +0.000 A 
ATOM      6  C   UNL     1       1.213   3.392  20.949  0.00  0.00    +0.000 A 
ATOM      7  C   UNL     1       1.221   4.528  20.130  0.00  0.00    +0.000 A 
ATOM      8  C   UNL     1       2.431   4.852  19.501  0.00  0.00    +0.000 A 
ATOM      9  N   UNL     1       2.808   5.863  18.643  0.00  0.00    +0.000 N 
ENDROOT
BRANCH   1  10
ATOM     10  S   UNL     1       5.084   6.918  17.574  0.00  0.00    +0.000 S 
BRANCH  10  11
ATOM     11  C   UNL     1       6.762   6.281  17.804  0.00  0.00    +0.000 C 
BRANCH  11  13
ATOM     12  O   UNL     1       7.930   4.436  16.833  0.00  0.00    +0.000 OA
ATOM     13  C   UNL     1       7.112   5.337  16.667  0.00  0.00    +0.000 C 
ATOM     14  N   UNL     1       6.473   5.644  15.476  0.00  0.00    +0.000 N 
ATOM     15  H   UNL     1       6.025   6.556  15.422  0.00  0.00    +0.000 HD
BRANCH  14  16
ATOM     16  C   UNL     1       6.586   4.921  14.269  0.00  0.00    +0.000 A 
ATOM     17  C   UNL     1       5.782   3.818  13.957  0.00  0.00    +0.000 A 
ATOM     18  C   UNL     1       5.991   3.096  12.777  0.00  0.00    +0.000 A 
ATOM     19  C   UNL     1       6.995   3.489  11.904  0.00  0.00    +0.000 A 
ATOM     20  F   UNL     1       7.219   2.779  10.791  0.00  0.00    +0.000 F 
ATOM     21  C   UNL     1       7.774   4.608  12.174  0.00  0.00    +0.000 A 
ATOM     22  C   UNL     1       7.561   5.332  13.350  0.00  0.00    +0.000 A 
ENDBRANCH  14  16
ENDBRANCH  11  13
ENDBRANCH  10  11
ENDBRANCH   1  10
BRANCH   9  23
ATOM     23  C   UNL     1       1.905   6.797  18.001  0.00  0.00    +0.000 C 
BRANCH  23  24
ATOM     24  C   UNL     1       1.876   8.169  18.627  0.00  0.00    +0.000 C 
ATOM     25  O   UNL     1       2.024   8.273  19.846  0.00  0.00    +0.000 OA
ATOM     26  N   UNL     1       1.540   9.228  17.798  0.00  0.00    +0.000 N 
ATOM     27  H   UNL     1       0.998   9.008  16.964  0.00  0.00    +0.000 HD
BRANCH  26  28
ATOM     28  C   UNL     1       1.344  10.525  18.325  0.00  0.00    +0.000 A 
ATOM     29  C   UNL     1       2.330  11.511  18.229  0.00  0.00    +0.000 A 
ATOM     30  C   UNL     1       2.165  12.727  18.890  0.00  0.00    +0.000 A 
ATOM     31  C   UNL     1       1.017  12.947  19.645  0.00  0.00    +0.000 A 
ATOM     32  F   UNL     1       0.894  14.089  20.333  0.00  0.00    +0.000 F 
ATOM     33  C   UNL     1       0.003  12.000  19.706  0.00  0.00    +0.000 A 
ATOM     34  C   UNL     1       0.162  10.802  19.018  0.00  0.00    +0.000 A 
ATOM     35  F   UNL     1      -0.794   9.865  19.104  0.00  0.00    +0.000 F 
ENDBRANCH  26  28
ENDBRANCH  23  24
ENDBRANCH   9  23
TORSDOF 7
ENDMDL
MODEL 5
REMARK VINA RESULT:      -8.5      4.750      7.900
REMARK  Name = 
REMARK  7 active torsions:
REMARK  status: ('A' for Active; 'I' for Inactive)
REMARK    1  A    between atoms: C_2  and  C_3
REMARK    2  A    between atoms: C_3  and  S_4
REMARK    3  A    between atoms: S_4  and  C_5
REMARK    4  A    between atoms: N_13  and  C_14
REMARK    5  A    between atoms: C_14  and  C_15
REMARK    6  A    between atoms: N_17  and  C_18
REMARK    7  A    between atoms: N_26  and  C_27
REMARK                            x       y       z     vdW  Elec       q    Type
REMARK                         _______ _______ _______ _____ _____    ______ ____
ROOT
ATOM      1  C   UNL     1       3.743   5.772  18.079  0.00  0.00    +0.000 A 
ATOM      2  N   UNL     1       3.506   4.689  17.380  0.00  0.00    +0.000 NA
ATOM      3  C   UNL     1       2.573   3.996  18.114  0.00  0.00    +0.000 A 
ATOM      4  C   UNL     1       2.006   2.730  17.876  0.00  0.00    +0.000 A 
ATOM      5  C   UNL     1       1.066   2.231  18.785  0.00  0.00    +0.000 A 
ATOM      6  C   UNL     1       0.682   2.974  19.902  0.00  0.00    +0.000 A 
ATOM      7  C   UNL     1       1.233   4.236  20.157  0.00  0.00    +0.000 A 
ATOM      8  C   UNL     1       2.181   4.714  19.242  0.00  0.00    +0.000 A 
ATOM      9  N   UNL     1       2.912   5.880  19.162  0.00  0.00    +0.000 N 
ENDROOT
BRANCH   1  10
ATOM     10  S   UNL     1       5.009   6.907  17.754  0.00  0.00    +0.000 S 
BRANCH  10  11
ATOM     11  C   UNL     1       6.476   5.933  18.171  0.00  0.00    +0.000 C 
BRANCH  11  13
ATOM     12  O   UNL     1       7.901   4.398  17.020  0.00  0.00    +0.000 OA
ATOM     13  C   UNL     1       6.954   5.177  16.944  0.00  0.00    +0.000 C 
ATOM     14  N   UNL     1       6.267   5.508  15.787  0.00  0.00    +0.000 N 
ATOM     15  H   UNL     1       5.685   6.342  15.825  0.00  0.00    +0.000 HD
BRANCH  14  16
ATOM     16  C   UNL     1       6.477   4.940  14.511  0.00  0.00    +0.000 A 
ATOM     17  C   UNL     1       5.670   3.928  13.978  0.00  0.00    +0.000 A 
ATOM     18  C   UNL     1       5.974   3.354  12.740  0.00  0.00    +0.000 A 
ATOM     19  C   UNL     1       7.076   3.806  12.028  0.00  0.00    +0.000 A 
ATOM     20  F   UNL     1       7.389   3.235  10.859  0.00  0.00    +0.000 F 
ATOM     21  C   UNL     1       7.864   4.841  12.520  0.00  0.00    +0.000 A 
ATOM     22  C   UNL     1       7.556   5.418  13.756  0.00  0.00    +0.000 A 
ENDBRANCH  14  16
ENDBRANCH  11  13
ENDBRANCH  10  11
ENDBRANCH   1  10
BRANCH   9  23
ATOM     23  C   UNL     1       2.708   7.055  19.987  0.00  0.00    +0.000 C 
BRANCH  23  24
ATOM     24  C   UNL     1       1.901   8.146  19.329  0.00  0.00    +0.000 C 
ATOM     25  O   UNL     1       2.070   8.377  18.130  0.00  0.00    +0.000 OA
ATOM     26  N   UNL     1       1.111   8.927  20.160  0.00  0.00    +0.000 N 
ATOM     27  H   UNL     1       1.379   8.975  21.141  0.00  0.00    +0.000 HD
BRANCH  26  28
ATOM     28  C   UNL     1       0.435  10.062  19.657  0.00  0.00    +0.000 A 
ATOM     29  C   UNL     1      -0.603   9.946  18.728  0.00  0.00    +0.000 A 
ATOM     30  C   UNL     1      -1.144  11.089  18.142  0.00  0.00    +0.000 A 
ATOM     31  C   UNL     1      -0.640  12.340  18.486  0.00  0.00    +0.000 A 
ATOM     32  F   UNL     1      -1.115  13.429  17.869  0.00  0.00    +0.000 F 
ATOM     33  C   UNL     1       0.353  12.477  19.447  0.00  0.00    +0.000 A 
ATOM     34  C   UNL     1       0.865  11.333  20.050  0.00  0.00    +0.000 A 
ATOM     35  F   UNL     1       1.852  11.453  20.950  0.00  0.00    +0.000 F 
ENDBRANCH  26  28
ENDBRANCH  23  24
ENDBRANCH   9  23
TORSDOF 7
ENDMDL
MODEL 6
REMARK VINA RESULT:      -8.4      1.180      1.242
REMARK  Name = 
REMARK  7 active torsions:
REMARK  status: ('A' for Active; 'I' for Inactive)
REMARK    1  A    between atoms: C_2  and  C_3
REMARK    2  A    between atoms: C_3  and  S_4
REMARK    3  A    between atoms: S_4  and  C_5
REMARK    4  A    between atoms: N_13  and  C_14
REMARK    5  A    between atoms: C_14  and  C_15
REMARK    6  A    between atoms: N_17  and  C_18
REMARK    7  A    between atoms: N_26  and  C_27
REMARK                            x       y       z     vdW  Elec       q    Type
REMARK                         _______ _______ _______ _____ _____    ______ ____
ROOT
ATOM      1  C   UNL     1       6.352   5.673  16.174  0.00  0.00    +0.000 A 
ATOM      2  N   UNL     1       7.424   5.799  15.431  0.00  0.00    +0.000 NA
ATOM      3  C   UNL     1       7.152   5.069  14.298  0.00  0.00    +0.000 A 
ATOM      4  C   UNL     1       7.974   4.798  13.188  0.00  0.00    +0.000 A 
ATOM      5  C   UNL     1       7.464   4.017  12.146  0.00  0.00    +0.000 A 
ATOM      6  C   UNL     1       6.160   3.521  12.192  0.00  0.00    +0.000 A 
ATOM      7  C   UNL     1       5.325   3.780  13.286  0.00  0.00    +0.000 A 
ATOM      8  C   UNL     1       5.857   4.556  14.325  0.00  0.00    +0.000 A 
ATOM      9  N   UNL     1       5.347   5.008  15.523  0.00  0.00    +0.000 N 
ENDROOT
BRANCH   1  10
ATOM     10  S   UNL     1       6.218   6.189  17.821  0.00  0.00    +0.000 S 
BRANCH  10  11
ATOM     11  C   UNL     1       7.919   6.693  18.176  0.00  0.00    +0.000 C 
BRANCH  11  13
ATOM     12  O   UNL     1       7.402   8.824  17.226  0.00  0.00    +0.000 OA
ATOM     13  C   UNL     1       8.037   8.203  18.075  0.00  0.00    +0.000 C 
ATOM     14  N   UNL     1       8.943   8.749  18.969  0.00  0.00    +0.000 N 
ATOM     15  H   UNL     1       9.573   8.099  19.434  0.00  0.00    +0.000 HD
BRANCH  14  16
ATOM     16  C   UNL     1       9.230  10.123  19.119  0.00  0.00    +0.000 A 
ATOM     17  C   UNL     1       9.485  10.977  18.038  0.00  0.00    +0.000 A 
ATOM     18  C   UNL     1       9.836  12.313  18.255  0.00  0.00    +0.000 A 
ATOM     19  C   UNL     1       9.916  12.798  19.553  0.00  0.00    +0.000 A 
ATOM     20  F   UNL     1      10.285  14.067  19.763  0.00  0.00    +0.000 F 
ATOM     21  C   UNL     1       9.621  11.979  20.637  0.00  0.00    +0.000 A 
ATOM     22  C   UNL     1       9.265  10.644  20.419  0.00  0.00    +0.000 A 
ENDBRANCH  14  16
ENDBRANCH  11  13
ENDBRANCH  10  11
ENDBRANCH   1  10
BRANCH   9  23
ATOM     23  C   UNL     1       3.957   4.924  15.926  0.00  0.00    +0.000 C 
BRANCH  23  24
ATOM     24  C   UNL     1       3.727   4.195  17.225  0.00  0.00    +0.000 C 
ATOM     25  O   UNL     1       4.400   3.193  17.477  0.00  0.00    +0.000 OA
ATOM     26  N   UNL     1       2.659   4.621  18.001  0.00  0.00    +0.000 N 
ATOM     27  H   UNL     1       1.907   5.114  17.522  0.00  0.00    +0.000 HD
BRANCH  26  28
ATOM     28  C   UNL     1       2.277   3.907  19.160  0.00  0.00    +0.000 A 
ATOM     29  C   UNL     1       1.358   2.855  19.103  0.00  0.00    +0.000 A 
ATOM     30  C   UNL     1       0.891   2.275  20.281  0.00  0.00    +0.000 A 
ATOM     31  C   UNL     1       1.342   2.753  21.507  0.00  0.00    +0.000 A 
ATOM     32  F   UNL     1       0.838   2.239  22.636  0.00  0.00    +0.000 F 
ATOM     33  C   UNL     1       2.295   3.760  21.581  0.00  0.00    +0.000 A 
ATOM     34  C   UNL     1       2.779   4.313  20.400  0.00  0.00    +0.000 A 
ATOM     35  F   UNL     1       3.671   5.313  20.462  0.00  0.00    +0.000 F 
ENDBRANCH  26  28
ENDBRANCH  23  24
ENDBRANCH   9  23
TORSDOF 7
ENDMDL
MODEL 7
REMARK VINA RESULT:      -8.3      0.979      1.418
REMARK  Name = 
REMARK  7 active torsions:
REMARK  status: ('A' for Active; 'I' for Inactive)
REMARK    1  A    between atoms: C_2  and  C_3
REMARK    2  A    between atoms: C_3  and  S_4
REMARK    3  A    between atoms: S_4  and  C_5
REMARK    4  A    between atoms: N_13  and  C_14
REMARK    5  A    between atoms: C_14  and  C_15
REMARK    6  A    between atoms: N_17  and  C_18
REMARK    7  A    between atoms: N_26  and  C_27
REMARK                            x       y       z     vdW  Elec       q    Type
REMARK                         _______ _______ _______ _____ _____    ______ ____
ROOT
ATOM      1  C   UNL     1       6.962   5.736  15.988  0.00  0.00    +0.000 A 
ATOM      2  N   UNL     1       7.808   5.455  15.027  0.00  0.00    +0.000 NA
ATOM      3  C   UNL     1       7.062   4.779  14.091  0.00  0.00    +0.000 A 
ATOM      4  C   UNL     1       7.468   4.180  12.884  0.00  0.00    +0.000 A 
ATOM      5  C   UNL     1       6.508   3.540  12.093  0.00  0.00    +0.000 A 
ATOM      6  C   UNL     1       5.168   3.501  12.479  0.00  0.00    +0.000 A 
ATOM      7  C   UNL     1       4.742   4.092  13.675  0.00  0.00    +0.000 A 
ATOM      8  C   UNL     1       5.720   4.720  14.460  0.00  0.00    +0.000 A 
ATOM      9  N   UNL     1       5.677   5.394  15.662  0.00  0.00    +0.000 N 
ENDROOT
BRANCH   1  10
ATOM     10  S   UNL     1       7.395   6.378  17.537  0.00  0.00    +0.000 S 
BRANCH  10  11
ATOM     11  C   UNL     1       7.233   8.156  17.243  0.00  0.00    +0.000 C 
BRANCH  11  13
ATOM     12  O   UNL     1       8.806   8.338  19.033  0.00  0.00    +0.000 OA
ATOM     13  C   UNL     1       8.216   8.911  18.120  0.00  0.00    +0.000 C 
ATOM     14  N   UNL     1       8.309  10.259  17.815  0.00  0.00    +0.000 N 
ATOM     15  H   UNL     1       7.586  10.639  17.209  0.00  0.00    +0.000 HD
BRANCH  14  16
ATOM     16  C   UNL     1       9.163  11.190  18.443  0.00  0.00    +0.000 A 
ATOM     17  C   UNL     1      10.128  10.829  19.392  0.00  0.00    +0.000 A 
ATOM     18  C   UNL     1      10.894  11.807  20.035  0.00  0.00    +0.000 A 
ATOM     19  C   UNL     1      10.705  13.144  19.716  0.00  0.00    +0.000 A 
ATOM     20  F   UNL     1      11.413  14.083  20.354  0.00  0.00    +0.000 F 
ATOM     21  C   UNL     1       9.784  13.519  18.744  0.00  0.00    +0.000 A 
ATOM     22  C   UNL     1       9.022  12.541  18.098  0.00  0.00    +0.000 A 
ENDBRANCH  14  16
ENDBRANCH  11  13
ENDBRANCH  10  11
ENDBRANCH   1  10
BRANCH   9  23
ATOM     23  C   UNL     1       4.468   5.796  16.354  0.00  0.00    +0.000 C 
BRANCH  23  24
ATOM     24  C   UNL     1       3.971   4.801  17.372  0.00  0.00    +0.000 C 
ATOM     25  O   UNL     1       3.408   3.776  16.983  0.00  0.00    +0.000 OA
ATOM     26  N   UNL     1       4.055   5.175  18.705  0.00  0.00    +0.000 N 
ATOM     27  H   UNL     1       4.090   6.174  18.903  0.00  0.00    +0.000 HD
BRANCH  26  28
ATOM     28  C   UNL     1       3.483   4.373  19.719  0.00  0.00    +0.000 A 
ATOM     29  C   UNL     1       4.039   3.144  20.083  0.00  0.00    +0.000 A 
ATOM     30  C   UNL     1       3.366   2.313  20.976  0.00  0.00    +0.000 A 
ATOM     31  C   UNL     1       2.140   2.714  21.497  0.00  0.00    +0.000 A 
ATOM     32  F   UNL     1       1.465   1.883  22.300  0.00  0.00    +0.000 F 
ATOM     33  C   UNL     1       1.599   3.956  21.188  0.00  0.00    +0.000 A 
ATOM     34  C   UNL     1       2.292   4.792  20.319  0.00  0.00    +0.000 A 
ATOM     35  F   UNL     1       1.758   5.976  19.985  0.00  0.00    +0.000 F 
ENDBRANCH  26  28
ENDBRANCH  23  24
ENDBRANCH   9  23
TORSDOF 7
ENDMDL
MODEL 8
REMARK VINA RESULT:      -8.3      6.969     10.947
REMARK  Name = 
REMARK  7 active torsions:
REMARK  status: ('A' for Active; 'I' for Inactive)
REMARK    1  A    between atoms: C_2  and  C_3
REMARK    2  A    between atoms: C_3  and  S_4
REMARK    3  A    between atoms: S_4  and  C_5
REMARK    4  A    between atoms: N_13  and  C_14
REMARK    5  A    between atoms: C_14  and  C_15
REMARK    6  A    between atoms: N_17  and  C_18
REMARK    7  A    between atoms: N_26  and  C_27
REMARK                            x       y       z     vdW  Elec       q    Type
REMARK                         _______ _______ _______ _____ _____    ______ ____
ROOT
ATOM      1  C   UNL     1      -0.384  10.207  18.793  0.00  0.00    +0.000 A 
ATOM      2  N   UNL     1      -0.738   9.738  17.621  0.00  0.00    +0.000 NA
ATOM      3  C   UNL     1      -1.978  10.284  17.386  0.00  0.00    +0.000 A 
ATOM      4  C   UNL     1      -2.860  10.073  16.310  0.00  0.00    +0.000 A 
ATOM      5  C   UNL     1      -4.083  10.753  16.298  0.00  0.00    +0.000 A 
ATOM      6  C   UNL     1      -4.425  11.635  17.324  0.00  0.00    +0.000 A 
ATOM      7  C   UNL     1      -3.561  11.860  18.403  0.00  0.00    +0.000 A 
ATOM      8  C   UNL     1      -2.345  11.162  18.403  0.00  0.00    +0.000 A 
ATOM      9  N   UNL     1      -1.273  11.134  19.269  0.00  0.00    +0.000 N 
ENDROOT
BRANCH   1  10
ATOM     10  S   UNL     1       0.987   9.672  19.703  0.00  0.00    +0.000 S 
BRANCH  10  11
ATOM     11  C   UNL     1       1.947   8.815  18.431  0.00  0.00    +0.000 C 
BRANCH  11  13
ATOM     12  O   UNL     1       2.196   7.095  20.072  0.00  0.00    +0.000 OA
ATOM     13  C   UNL     1       2.239   7.395  18.881  0.00  0.00    +0.000 C 
ATOM     14  N   UNL     1       2.598   6.548  17.845  0.00  0.00    +0.000 N 
ATOM     15  H   UNL     1       2.833   6.988  16.958  0.00  0.00    +0.000 HD
BRANCH  14  16
ATOM     16  C   UNL     1       2.892   5.172  17.966  0.00  0.00    +0.000 A 
ATOM     17  C   UNL     1       4.188   4.677  18.154  0.00  0.00    +0.000 A 
ATOM     18  C   UNL     1       4.424   3.299  18.193  0.00  0.00    +0.000 A 
ATOM     19  C   UNL     1       3.360   2.419  18.061  0.00  0.00    +0.000 A 
ATOM     20  F   UNL     1       3.589   1.100  18.064  0.00  0.00    +0.000 F 
ATOM     21  C   UNL     1       2.060   2.891  17.920  0.00  0.00    +0.000 A 
ATOM     22  C   UNL     1       1.824   4.268  17.886  0.00  0.00    +0.000 A 
ENDBRANCH  14  16
ENDBRANCH  11  13
ENDBRANCH  10  11
ENDBRANCH   1  10
BRANCH   9  23
ATOM     23  C   UNL     1      -1.070  12.040  20.381  0.00  0.00    +0.000 C 
BRANCH  23  24
ATOM     24  C   UNL     1       0.201  12.848  20.304  0.00  0.00    +0.000 C 
ATOM     25  O   UNL     1       0.880  12.995  21.322  0.00  0.00    +0.000 OA
ATOM     26  N   UNL     1       0.455  13.502  19.108  0.00  0.00    +0.000 N 
ATOM     27  H   UNL     1      -0.347  13.705  18.513  0.00  0.00    +0.000 HD
BRANCH  26  28
ATOM     28  C   UNL     1       1.542  14.398  18.989  0.00  0.00    +0.000 A 
ATOM     29  C   UNL     1       1.405  15.758  19.282  0.00  0.00    +0.000 A 
ATOM     30  C   UNL     1       2.453  16.636  19.010  0.00  0.00    +0.000 A 
ATOM     31  C   UNL     1       3.628  16.150  18.444  0.00  0.00    +0.000 A 
ATOM     32  F   UNL     1       4.604  17.007  18.122  0.00  0.00    +0.000 F 
ATOM     33  C   UNL     1       3.800  14.793  18.198  0.00  0.00    +0.000 A 
ATOM     34  C   UNL     1       2.761  13.920  18.501  0.00  0.00    +0.000 A 
ATOM     35  F   UNL     1       2.904  12.614  18.231  0.00  0.00    +0.000 F 
ENDBRANCH  26  28
ENDBRANCH  23  24
ENDBRANCH   9  23
TORSDOF 7
ENDMDL
MODEL 9
REMARK VINA RESULT:      -8.2      4.751      7.899
REMARK  Name = 
REMARK  7 active torsions:
REMARK  status: ('A' for Active; 'I' for Inactive)
REMARK    1  A    between atoms: C_2  and  C_3
REMARK    2  A    between atoms: C_3  and  S_4
REMARK    3  A    between atoms: S_4  and  C_5
REMARK    4  A    between atoms: N_13  and  C_14
REMARK    5  A    between atoms: C_14  and  C_15
REMARK    6  A    between atoms: N_17  and  C_18
REMARK    7  A    between atoms: N_26  and  C_27
REMARK                            x       y       z     vdW  Elec       q    Type
REMARK                         _______ _______ _______ _____ _____    ______ ____
ROOT
ATOM      1  C   UNL     1       3.280   5.854  18.063  0.00  0.00    +0.000 A 
ATOM      2  N   UNL     1       2.812   4.811  17.422  0.00  0.00    +0.000 NA
ATOM      3  C   UNL     1       2.123   4.096  18.373  0.00  0.00    +0.000 A 
ATOM      4  C   UNL     1       1.473   2.853  18.262  0.00  0.00    +0.000 A 
ATOM      5  C   UNL     1       0.835   2.323  19.390  0.00  0.00    +0.000 A 
ATOM      6  C   UNL     1       0.829   3.014  20.602  0.00  0.00    +0.000 A 
ATOM      7  C   UNL     1       1.469   4.252  20.733  0.00  0.00    +0.000 A 
ATOM      8  C   UNL     1       2.111   4.762  19.596  0.00  0.00    +0.000 A 
ATOM      9  N   UNL     1       2.818   5.920  19.351  0.00  0.00    +0.000 N 
ENDROOT
BRANCH   1  10
ATOM     10  S   UNL     1       4.423   6.984  17.421  0.00  0.00    +0.000 S 
BRANCH  10  11
ATOM     11  C   UNL     1       5.989   6.248  17.950  0.00  0.00    +0.000 C 
BRANCH  11  13
ATOM     12  O   UNL     1       7.543   4.692  17.014  0.00  0.00    +0.000 OA
ATOM     13  C   UNL     1       6.575   5.424  16.818  0.00  0.00    +0.000 C 
ATOM     14  N   UNL     1       5.954   5.638  15.598  0.00  0.00    +0.000 N 
ATOM     15  H   UNL     1       5.341   6.447  15.535  0.00  0.00    +0.000 HD
BRANCH  14  16
ATOM     16  C   UNL     1       6.270   4.986  14.386  0.00  0.00    +0.000 A 
ATOM     17  C   UNL     1       5.488   3.962  13.838  0.00  0.00    +0.000 A 
ATOM     18  C   UNL     1       5.893   3.304  12.672  0.00  0.00    +0.000 A 
ATOM     19  C   UNL     1       7.073   3.684  12.047  0.00  0.00    +0.000 A 
ATOM     20  F   UNL     1       7.479   3.033  10.950  0.00  0.00    +0.000 F 
ATOM     21  C   UNL     1       7.839   4.729  12.550  0.00  0.00    +0.000 A 
ATOM     22  C   UNL     1       7.431   5.390  13.712  0.00  0.00    +0.000 A 
ENDBRANCH  14  16
ENDBRANCH  11  13
ENDBRANCH  10  11
ENDBRANCH   1  10
BRANCH   9  23
ATOM     23  C   UNL     1       2.907   7.054  20.249  0.00  0.00    +0.000 C 
BRANCH  23  24
ATOM     24  C   UNL     1       1.693   7.949  20.245  0.00  0.00    +0.000 C 
ATOM     25  O   UNL     1       0.688   7.598  20.866  0.00  0.00    +0.000 OA
ATOM     26  N   UNL     1       1.738   9.060  19.416  0.00  0.00    +0.000 N 
ATOM     27  H   UNL     1       2.377   9.019  18.624  0.00  0.00    +0.000 HD
BRANCH  26  28
ATOM     28  C   UNL     1       0.597   9.874  19.235  0.00  0.00    +0.000 A 
ATOM     29  C   UNL     1       0.158  10.752  20.231  0.00  0.00    +0.000 A 
ATOM     30  C   UNL     1      -1.053  11.425  20.079  0.00  0.00    +0.000 A 
ATOM     31  C   UNL     1      -1.818  11.214  18.936  0.00  0.00    +0.000 A 
ATOM     32  F   UNL     1      -3.011  11.810  18.827  0.00  0.00    +0.000 F 
ATOM     33  C   UNL     1      -1.371  10.388  17.914  0.00  0.00    +0.000 A 
ATOM     34  C   UNL     1      -0.147   9.743  18.059  0.00  0.00    +0.000 A 
ATOM     35  F   UNL     1       0.275   8.913  17.093  0.00  0.00    +0.000 F 
ENDBRANCH  26  28
ENDBRANCH  23  24
ENDBRANCH   9  23
TORSDOF 7
ENDMDL
