MODEL 1
REMARK VINA RESULT:      -8.2      0.000      0.000
REMARK  Name = 
REMARK  2 active torsions:
REMARK  status: ('A' for Active; 'I' for Inactive)
REMARK    1  A    between atoms: N_5  and  C_6
REMARK    2  A    between atoms: C_6  and  C_7
REMARK                            x       y       z     vdW  Elec       q    Type
REMARK                         _______ _______ _______ _____ _____    ______ ____
ROOT
ATOM      1  N   UNL     1       8.049   7.609  18.311  0.00  0.00    +0.000 N 
ATOM      2  C   UNL     1       7.471   6.554  17.634  0.00  0.00    +0.000 A 
ATOM      3  N   UNL     1       6.798   5.669  18.388  0.00  0.00    +0.000 NA
ATOM      4  C   UNL     1       6.206   4.588  17.811  0.00  0.00    +0.000 A 
ATOM      5  N   UNL     1       5.556   3.634  18.599  0.00  0.00    +0.000 N 
ATOM      6  C   UNL     1       6.320   4.460  16.415  0.00  0.00    +0.000 A 
ATOM      7  N   UNL     1       5.865   3.519  15.512  0.00  0.00    +0.000 NA
ATOM      8  C   UNL     1       6.299   3.939  14.341  0.00  0.00    +0.000 A 
ATOM      9  N   UNL     1       6.993   5.113  14.443  0.00  0.00    +0.000 N 
ATOM     10  C   UNL     1       7.018   5.459  15.762  0.00  0.00    +0.000 A 
ATOM     11  N   UNL     1       7.604   6.535  16.299  0.00  0.00    +0.000 NA
ATOM     12  H   UNL     1       7.590   7.729  19.204  0.00  0.00    +0.000 HD
ATOM     13  H   UNL     1       8.124   8.415  17.709  0.00  0.00    +0.000 HD
ATOM     14  H   UNL     1       4.989   3.015  18.024  0.00  0.00    +0.000 HD
ATOM     15  H   UNL     1       7.425   5.634  13.696  0.00  0.00    +0.000 HD
ENDROOT
BRANCH   5  16
ATOM     16  C   UNL     1       4.887   4.150  19.787  0.00  0.00    +0.000 C 
BRANCH  16  17
ATOM     17  C   UNL     1       3.431   3.731  19.838  0.00  0.00    +0.000 A 
ATOM     18  C   UNL     1       2.985   2.814  20.811  0.00  0.00    +0.000 A 
ATOM     19  C   UNL     1       1.635   2.477  20.925  0.00  0.00    +0.000 A 
ATOM     20  C   UNL     1       0.697   3.064  20.082  0.00  0.00    +0.000 A 
ATOM     21  C   UNL     1       1.110   3.993  19.130  0.00  0.00    +0.000 A 
ATOM     22  C   UNL     1       2.465   4.331  19.012  0.00  0.00    +0.000 A 
ATOM     23 CL   UNL     1       2.878   5.534  17.841  0.00  0.00    +0.000 Cl
ENDBRANCH  16  17
ENDBRANCH   5  16
TORSDOF 2
ENDMDL
MODEL 2
REMARK VINA RESULT:      -7.9      1.267      1.390
REMARK  Name = 
REMARK  2 active torsions:
REMARK  status: ('A' for Active; 'I' for Inactive)
REMARK    1  A    between atoms: N_5  and  C_6
REMARK    2  A    between atoms: C_6  and  C_7
REMARK                            x       y       z     vdW  Elec       q    Type
REMARK                         _______ _______ _______ _____ _____    ______ ____
ROOT
ATOM      1  N   UNL     1       8.231   7.161  18.844  0.00  0.00    +0.000 N 
ATOM      2  C   UNL     1       7.532   6.298  18.023  0.00  0.00    +0.000 A 
ATOM      3  N   UNL     1       6.821   5.342  18.643  0.00  0.00    +0.000 NA
ATOM      4  C   UNL     1       6.111   4.437  17.917  0.00  0.00    +0.000 A 
ATOM      5  N   UNL     1       5.418   3.405  18.557  0.00  0.00    +0.000 N 
ATOM      6  C   UNL     1       6.149   4.563  16.516  0.00  0.00    +0.000 A 
ATOM      7  N   UNL     1       5.572   3.844  15.487  0.00  0.00    +0.000 NA
ATOM      8  C   UNL     1       5.986   4.440  14.387  0.00  0.00    +0.000 A 
ATOM      9  N   UNL     1       6.784   5.518  14.658  0.00  0.00    +0.000 N 
ATOM     10  C   UNL     1       6.900   5.610  16.015  0.00  0.00    +0.000 A 
ATOM     11  N   UNL     1       7.601   6.518  16.702  0.00  0.00    +0.000 NA
ATOM     12  H   UNL     1       7.826   7.147  19.770  0.00  0.00    +0.000 HD
ATOM     13  H   UNL     1       8.348   8.056  18.395  0.00  0.00    +0.000 HD
ATOM     14  H   UNL     1       4.773   2.950  17.914  0.00  0.00    +0.000 HD
ATOM     15  H   UNL     1       7.224   6.134  13.993  0.00  0.00    +0.000 HD
ENDROOT
BRANCH   5  16
ATOM     16  C   UNL     1       4.852   3.740  19.858  0.00  0.00    +0.000 C 
BRANCH  16  17
ATOM     17  C   UNL     1       3.354   3.512  19.894  0.00  0.00    +0.000 A 
ATOM     18  C   UNL     1       2.496   4.484  20.445  0.00  0.00    +0.000 A 
ATOM     19  C   UNL     1       1.109   4.328  20.415  0.00  0.00    +0.000 A 
ATOM     20  C   UNL     1       0.546   3.206  19.816  0.00  0.00    +0.000 A 
ATOM     21  C   UNL     1       1.373   2.243  19.241  0.00  0.00    +0.000 A 
ATOM     22  C   UNL     1       2.765   2.397  19.271  0.00  0.00    +0.000 A 
ATOM     23 CL   UNL     1       3.711   1.181  18.484  0.00  0.00    +0.000 Cl
ENDBRANCH  16  17
ENDBRANCH   5  16
TORSDOF 2
ENDMDL
MODEL 3
REMARK VINA RESULT:      -7.9      1.255      1.683
REMARK  Name = 
REMARK  2 active torsions:
REMARK  status: ('A' for Active; 'I' for Inactive)
REMARK    1  A    between atoms: N_5  and  C_6
REMARK    2  A    between atoms: C_6  and  C_7
REMARK                            x       y       z     vdW  Elec       q    Type
REMARK                         _______ _______ _______ _____ _____    ______ ____
ROOT
ATOM      1  N   UNL     1       7.958   7.569  18.457  0.00  0.00    +0.000 N 
ATOM      2  C   UNL     1       7.463   6.540  17.680  0.00  0.00    +0.000 A 
ATOM      3  N   UNL     1       6.749   5.605  18.328  0.00  0.00    +0.000 NA
ATOM      4  C   UNL     1       6.232   4.546  17.649  0.00  0.00    +0.000 A 
ATOM      5  N   UNL     1       5.540   3.540  18.329  0.00  0.00    +0.000 N 
ATOM      6  C   UNL     1       6.466   4.493  16.262  0.00  0.00    +0.000 A 
ATOM      7  N   UNL     1       6.109   3.593  15.277  0.00  0.00    +0.000 NA
ATOM      8  C   UNL     1       6.631   4.082  14.170  0.00  0.00    +0.000 A 
ATOM      9  N   UNL     1       7.287   5.261  14.391  0.00  0.00    +0.000 N 
ATOM     10  C   UNL     1       7.193   5.538  15.723  0.00  0.00    +0.000 A 
ATOM     11  N   UNL     1       7.708   6.595  16.363  0.00  0.00    +0.000 NA
ATOM     12  H   UNL     1       7.423   7.633  19.312  0.00  0.00    +0.000 HD
ATOM     13  H   UNL     1       8.065   8.406  17.905  0.00  0.00    +0.000 HD
ATOM     14  H   UNL     1       5.037   2.942  17.677  0.00  0.00    +0.000 HD
ATOM     15  H   UNL     1       7.768   5.828  13.711  0.00  0.00    +0.000 HD
ENDROOT
BRANCH   5  16
ATOM     16  C   UNL     1       4.762   3.980  19.481  0.00  0.00    +0.000 C 
BRANCH  16  17
ATOM     17  C   UNL     1       3.273   3.805  19.252  0.00  0.00    +0.000 A 
ATOM     18  C   UNL     1       2.679   4.238  18.050  0.00  0.00    +0.000 A 
ATOM     19  C   UNL     1       1.327   4.013  17.787  0.00  0.00    +0.000 A 
ATOM     20  C   UNL     1       0.540   3.334  18.713  0.00  0.00    +0.000 A 
ATOM     21  C   UNL     1       1.112   2.874  19.897  0.00  0.00    +0.000 A 
ATOM     22  C   UNL     1       2.468   3.099  20.163  0.00  0.00    +0.000 A 
ATOM     23 CL   UNL     1       3.104   2.444  21.632  0.00  0.00    +0.000 Cl
ENDBRANCH  16  17
ENDBRANCH   5  16
TORSDOF 2
ENDMDL
MODEL 4
REMARK VINA RESULT:      -7.8      1.576      1.875
REMARK  Name = 
REMARK  2 active torsions:
REMARK  status: ('A' for Active; 'I' for Inactive)
REMARK    1  A    between atoms: N_5  and  C_6
REMARK    2  A    between atoms: C_6  and  C_7
REMARK                            x       y       z     vdW  Elec       q    Type
REMARK                         _______ _______ _______ _____ _____    ______ ____
ROOT
ATOM      1  N   UNL     1       7.343   5.259  19.500  0.00  0.00    +0.000 N 
ATOM      2  C   UNL     1       6.824   5.060  18.236  0.00  0.00    +0.000 A 
ATOM      3  N   UNL     1       5.492   4.902  18.165  0.00  0.00    +0.000 NA
ATOM      4  C   UNL     1       4.892   4.687  16.963  0.00  0.00    +0.000 A 
ATOM      5  N   UNL     1       3.514   4.463  16.892  0.00  0.00    +0.000 N 
ATOM      6  C   UNL     1       5.719   4.655  15.826  0.00  0.00    +0.000 A 
ATOM      7  N   UNL     1       5.469   4.462  14.480  0.00  0.00    +0.000 NA
ATOM      8  C   UNL     1       6.653   4.532  13.906  0.00  0.00    +0.000 A 
ATOM      9  N   UNL     1       7.649   4.780  14.811  0.00  0.00    +0.000 N 
ATOM     10  C   UNL     1       7.069   4.860  16.044  0.00  0.00    +0.000 A 
ATOM     11  N   UNL     1       7.687   5.081  17.209  0.00  0.00    +0.000 NA
ATOM     12  H   UNL     1       6.613   5.592  20.116  0.00  0.00    +0.000 HD
ATOM     13  H   UNL     1       8.196   5.794  19.450  0.00  0.00    +0.000 HD
ATOM     14  H   UNL     1       3.185   4.534  15.932  0.00  0.00    +0.000 HD
ATOM     15  H   UNL     1       8.634   4.876  14.624  0.00  0.00    +0.000 HD
ENDROOT
BRANCH   5  16
ATOM     16  C   UNL     1       2.708   5.185  17.870  0.00  0.00    +0.000 C 
BRANCH  16  17
ATOM     17  C   UNL     1       2.181   4.263  18.952  0.00  0.00    +0.000 A 
ATOM     18  C   UNL     1       2.180   2.866  18.763  0.00  0.00    +0.000 A 
ATOM     19  C   UNL     1       1.774   1.998  19.778  0.00  0.00    +0.000 A 
ATOM     20  C   UNL     1       1.376   2.504  21.011  0.00  0.00    +0.000 A 
ATOM     21  C   UNL     1       1.394   3.879  21.230  0.00  0.00    +0.000 A 
ATOM     22  C   UNL     1       1.800   4.753  20.213  0.00  0.00    +0.000 A 
ATOM     23 CL   UNL     1       1.842   6.440  20.593  0.00  0.00    +0.000 Cl
ENDBRANCH  16  17
ENDBRANCH   5  16
TORSDOF 2
ENDMDL
MODEL 5
REMARK VINA RESULT:      -7.8      1.567      3.137
REMARK  Name = 
REMARK  2 active torsions:
REMARK  status: ('A' for Active; 'I' for Inactive)
REMARK    1  A    between atoms: N_5  and  C_6
REMARK    2  A    between atoms: C_6  and  C_7
REMARK                            x       y       z     vdW  Elec       q    Type
REMARK                         _______ _______ _______ _____ _____    ______ ____
ROOT
ATOM      1  N   UNL     1       6.313   3.338  13.804  0.00  0.00    +0.000 N 
ATOM      2  C   UNL     1       6.221   4.225  14.859  0.00  0.00    +0.000 A 
ATOM      3  N   UNL     1       5.117   4.125  15.617  0.00  0.00    +0.000 NA
ATOM      4  C   UNL     1       4.931   4.965  16.671  0.00  0.00    +0.000 A 
ATOM      5  N   UNL     1       3.756   4.903  17.425  0.00  0.00    +0.000 N 
ATOM      6  C   UNL     1       5.942   5.910  16.927  0.00  0.00    +0.000 A 
ATOM      7  N   UNL     1       6.092   6.898  17.881  0.00  0.00    +0.000 NA
ATOM      8  C   UNL     1       7.248   7.464  17.599  0.00  0.00    +0.000 A 
ATOM      9  N   UNL     1       7.859   6.875  16.526  0.00  0.00    +0.000 N 
ATOM     10  C   UNL     1       7.036   5.881  16.083  0.00  0.00    +0.000 A 
ATOM     11  N   UNL     1       7.250   5.064  15.045  0.00  0.00    +0.000 NA
ATOM     12  H   UNL     1       5.710   2.545  13.976  0.00  0.00    +0.000 HD
ATOM     13  H   UNL     1       7.279   3.154  13.582  0.00  0.00    +0.000 HD
ATOM     14  H   UNL     1       3.854   5.430  18.290  0.00  0.00    +0.000 HD
ATOM     15  H   UNL     1       8.745   7.124  16.115  0.00  0.00    +0.000 HD
ENDROOT
BRANCH   5  16
ATOM     16  C   UNL     1       3.177   3.575  17.579  0.00  0.00    +0.000 C 
BRANCH  16  17
ATOM     17  C   UNL     1       2.548   3.392  18.946  0.00  0.00    +0.000 A 
ATOM     18  C   UNL     1       1.192   3.712  19.157  0.00  0.00    +0.000 A 
ATOM     19  C   UNL     1       0.574   3.475  20.386  0.00  0.00    +0.000 A 
ATOM     20  C   UNL     1       1.291   2.895  21.427  0.00  0.00    +0.000 A 
ATOM     21  C   UNL     1       2.626   2.545  21.234  0.00  0.00    +0.000 A 
ATOM     22  C   UNL     1       3.249   2.784  20.002  0.00  0.00    +0.000 A 
ATOM     23 CL   UNL     1       4.891   2.267  19.835  0.00  0.00    +0.000 Cl
ENDBRANCH  16  17
ENDBRANCH   5  16
TORSDOF 2
ENDMDL
MODEL 6
REMARK VINA RESULT:      -7.8      1.786      3.153
REMARK  Name = 
REMARK  2 active torsions:
REMARK  status: ('A' for Active; 'I' for Inactive)
REMARK    1  A    between atoms: N_5  and  C_6
REMARK    2  A    between atoms: C_6  and  C_7
REMARK                            x       y       z     vdW  Elec       q    Type
REMARK                         _______ _______ _______ _____ _____    ______ ____
ROOT
ATOM      1  N   UNL     1       5.685   4.361  14.375  0.00  0.00    +0.000 N 
ATOM      2  C   UNL     1       5.873   4.676  15.706  0.00  0.00    +0.000 A 
ATOM      3  N   UNL     1       4.815   5.208  16.339  0.00  0.00    +0.000 NA
ATOM      4  C   UNL     1       4.909   5.564  17.649  0.00  0.00    +0.000 A 
ATOM      5  N   UNL     1       3.828   6.172  18.295  0.00  0.00    +0.000 N 
ATOM      6  C   UNL     1       6.139   5.335  18.292  0.00  0.00    +0.000 A 
ATOM      7  N   UNL     1       6.590   5.565  19.578  0.00  0.00    +0.000 NA
ATOM      8  C   UNL     1       7.840   5.148  19.574  0.00  0.00    +0.000 A 
ATOM      9  N   UNL     1       8.208   4.643  18.358  0.00  0.00    +0.000 N 
ATOM     10  C   UNL     1       7.133   4.756  17.526  0.00  0.00    +0.000 A 
ATOM     11  N   UNL     1       7.069   4.389  16.241  0.00  0.00    +0.000 NA
ATOM     12  H   UNL     1       4.697   4.264  14.187  0.00  0.00    +0.000 HD
ATOM     13  H   UNL     1       6.292   3.603  14.103  0.00  0.00    +0.000 HD
ATOM     14  H   UNL     1       3.968   6.181  19.303  0.00  0.00    +0.000 HD
ATOM     15  H   UNL     1       9.106   4.264  18.100  0.00  0.00    +0.000 HD
ENDROOT
BRANCH   5  16
ATOM     16  C   UNL     1       2.508   5.731  17.863  0.00  0.00    +0.000 C 
BRANCH  16  17
ATOM     17  C   UNL     1       2.008   4.562  18.689  0.00  0.00    +0.000 A 
ATOM     18  C   UNL     1       2.066   3.250  18.178  0.00  0.00    +0.000 A 
ATOM     19  C   UNL     1       1.687   2.152  18.953  0.00  0.00    +0.000 A 
ATOM     20  C   UNL     1       1.259   2.339  20.263  0.00  0.00    +0.000 A 
ATOM     21  C   UNL     1       1.218   3.624  20.799  0.00  0.00    +0.000 A 
ATOM     22  C   UNL     1       1.597   4.727  20.023  0.00  0.00    +0.000 A 
ATOM     23 CL   UNL     1       1.568   6.278  20.788  0.00  0.00    +0.000 Cl
ENDBRANCH  16  17
ENDBRANCH   5  16
TORSDOF 2
ENDMDL
MODEL 7
REMARK VINA RESULT:      -7.7      1.175      2.753
REMARK  Name = 
REMARK  2 active torsions:
REMARK  status: ('A' for Active; 'I' for Inactive)
REMARK    1  A    between atoms: N_5  and  C_6
REMARK    2  A    between atoms: C_6  and  C_7
REMARK                            x       y       z     vdW  Elec       q    Type
REMARK                         _______ _______ _______ _____ _____    ______ ____
ROOT
ATOM      1  N   UNL     1       6.317   3.440  13.841  0.00  0.00    +0.000 N 
ATOM      2  C   UNL     1       6.356   4.260  14.952  0.00  0.00    +0.000 A 
ATOM      3  N   UNL     1       5.449   4.000  15.907  0.00  0.00    +0.000 NA
ATOM      4  C   UNL     1       5.401   4.764  17.032  0.00  0.00    +0.000 A 
ATOM      5  N   UNL     1       4.420   4.534  18.001  0.00  0.00    +0.000 N 
ATOM      6  C   UNL     1       6.342   5.804  17.145  0.00  0.00    +0.000 A 
ATOM      7  N   UNL     1       6.585   6.757  18.115  0.00  0.00    +0.000 NA
ATOM      8  C   UNL     1       7.594   7.463  17.647  0.00  0.00    +0.000 A 
ATOM      9  N   UNL     1       8.026   6.999  16.435  0.00  0.00    +0.000 N 
ATOM     10  C   UNL     1       7.235   5.939  16.098  0.00  0.00    +0.000 A 
ATOM     11  N   UNL     1       7.311   5.201  14.985  0.00  0.00    +0.000 NA
ATOM     12  H   UNL     1       5.846   2.576  14.076  0.00  0.00    +0.000 HD
ATOM     13  H   UNL     1       7.230   3.377  13.418  0.00  0.00    +0.000 HD
ATOM     14  H   UNL     1       4.641   5.027  18.863  0.00  0.00    +0.000 HD
ATOM     15  H   UNL     1       8.778   7.365  15.873  0.00  0.00    +0.000 HD
ENDROOT
BRANCH   5  16
ATOM     16  C   UNL     1       4.023   3.142  18.176  0.00  0.00    +0.000 C 
BRANCH  16  17
ATOM     17  C   UNL     1       3.014   2.983  19.296  0.00  0.00    +0.000 A 
ATOM     18  C   UNL     1       3.419   2.515  20.562  0.00  0.00    +0.000 A 
ATOM     19  C   UNL     1       2.522   2.438  21.629  0.00  0.00    +0.000 A 
ATOM     20  C   UNL     1       1.202   2.845  21.460  0.00  0.00    +0.000 A 
ATOM     21  C   UNL     1       0.785   3.336  20.225  0.00  0.00    +0.000 A 
ATOM     22  C   UNL     1       1.683   3.413  19.153  0.00  0.00    +0.000 A 
ATOM     23 CL   UNL     1       1.091   4.087  17.674  0.00  0.00    +0.000 Cl
ENDBRANCH  16  17
ENDBRANCH   5  16
TORSDOF 2
ENDMDL
MODEL 8
REMARK VINA RESULT:      -7.5      1.733      3.100
REMARK  Name = 
REMARK  2 active torsions:
REMARK  status: ('A' for Active; 'I' for Inactive)
REMARK    1  A    between atoms: N_5  and  C_6
REMARK    2  A    between atoms: C_6  and  C_7
REMARK                            x       y       z     vdW  Elec       q    Type
REMARK                         _______ _______ _______ _____ _____    ______ ____
ROOT
ATOM      1  N   UNL     1       6.158   4.124  14.520  0.00  0.00    +0.000 N 
ATOM      2  C   UNL     1       6.303   4.512  15.837  0.00  0.00    +0.000 A 
ATOM      3  N   UNL     1       5.214   5.043  16.417  0.00  0.00    +0.000 NA
ATOM      4  C   UNL     1       5.265   5.468  17.709  0.00  0.00    +0.000 A 
ATOM      5  N   UNL     1       4.151   6.075  18.297  0.00  0.00    +0.000 N 
ATOM      6  C   UNL     1       6.485   5.309  18.391  0.00  0.00    +0.000 A 
ATOM      7  N   UNL     1       6.897   5.619  19.673  0.00  0.00    +0.000 NA
ATOM      8  C   UNL     1       8.159   5.240  19.720  0.00  0.00    +0.000 A 
ATOM      9  N   UNL     1       8.572   4.685  18.540  0.00  0.00    +0.000 N 
ATOM     10  C   UNL     1       7.514   4.722  17.679  0.00  0.00    +0.000 A 
ATOM     11  N   UNL     1       7.493   4.289  16.413  0.00  0.00    +0.000 NA
ATOM     12  H   UNL     1       5.177   3.987  14.314  0.00  0.00    +0.000 HD
ATOM     13  H   UNL     1       6.793   3.372  14.302  0.00  0.00    +0.000 HD
ATOM     14  H   UNL     1       4.266   6.139  19.306  0.00  0.00    +0.000 HD
ATOM     15  H   UNL     1       9.486   4.321  18.324  0.00  0.00    +0.000 HD
ENDROOT
BRANCH   5  16
ATOM     16  C   UNL     1       2.856   5.572  17.857  0.00  0.00    +0.000 C 
BRANCH  16  17
ATOM     17  C   UNL     1       2.309   4.524  18.807  0.00  0.00    +0.000 A 
ATOM     18  C   UNL     1       1.777   4.900  20.057  0.00  0.00    +0.000 A 
ATOM     19  C   UNL     1       1.196   3.961  20.910  0.00  0.00    +0.000 A 
ATOM     20  C   UNL     1       1.116   2.626  20.526  0.00  0.00    +0.000 A 
ATOM     21  C   UNL     1       1.611   2.235  19.284  0.00  0.00    +0.000 A 
ATOM     22  C   UNL     1       2.196   3.175  18.427  0.00  0.00    +0.000 A 
ATOM     23 CL   UNL     1       2.732   2.610  16.883  0.00  0.00    +0.000 Cl
ENDBRANCH  16  17
ENDBRANCH   5  16
TORSDOF 2
ENDMDL
MODEL 9
REMARK VINA RESULT:      -7.5      1.599      1.919
REMARK  Name = 
REMARK  2 active torsions:
REMARK  status: ('A' for Active; 'I' for Inactive)
REMARK    1  A    between atoms: N_5  and  C_6
REMARK    2  A    between atoms: C_6  and  C_7
REMARK                            x       y       z     vdW  Elec       q    Type
REMARK                         _______ _______ _______ _____ _____    ______ ____
ROOT
ATOM      1  N   UNL     1       7.390   5.303  19.730  0.00  0.00    +0.000 N 
ATOM      2  C   UNL     1       6.871   5.146  18.460  0.00  0.00    +0.000 A 
ATOM      3  N   UNL     1       5.542   4.963  18.386  0.00  0.00    +0.000 NA
ATOM      4  C   UNL     1       4.941   4.785  17.179  0.00  0.00    +0.000 A 
ATOM      5  N   UNL     1       3.568   4.535  17.103  0.00  0.00    +0.000 N 
ATOM      6  C   UNL     1       5.764   4.820  16.039  0.00  0.00    +0.000 A 
ATOM      7  N   UNL     1       5.513   4.678  14.687  0.00  0.00    +0.000 NA
ATOM      8  C   UNL     1       6.693   4.798  14.112  0.00  0.00    +0.000 A 
ATOM      9  N   UNL     1       7.686   5.029  15.024  0.00  0.00    +0.000 N 
ATOM     10  C   UNL     1       7.110   5.044  16.260  0.00  0.00    +0.000 A 
ATOM     11  N   UNL     1       7.729   5.229  17.432  0.00  0.00    +0.000 NA
ATOM     12  H   UNL     1       6.656   5.594  20.361  0.00  0.00    +0.000 HD
ATOM     13  H   UNL     1       8.232   5.858  19.700  0.00  0.00    +0.000 HD
ATOM     14  H   UNL     1       3.234   4.639  16.148  0.00  0.00    +0.000 HD
ATOM     15  H   UNL     1       8.669   5.154  14.837  0.00  0.00    +0.000 HD
ENDROOT
BRANCH   5  16
ATOM     16  C   UNL     1       2.752   5.197  18.113  0.00  0.00    +0.000 C 
BRANCH  16  17
ATOM     17  C   UNL     1       2.475   4.288  19.295  0.00  0.00    +0.000 A 
ATOM     18  C   UNL     1       2.329   4.825  20.590  0.00  0.00    +0.000 A 
ATOM     19  C   UNL     1       1.994   4.015  21.677  0.00  0.00    +0.000 A 
ATOM     20  C   UNL     1       1.779   2.653  21.491  0.00  0.00    +0.000 A 
ATOM     21  C   UNL     1       1.891   2.105  20.216  0.00  0.00    +0.000 A 
ATOM     22  C   UNL     1       2.229   2.915  19.124  0.00  0.00    +0.000 A 
ATOM     23 CL   UNL     1       2.291   2.158  17.570  0.00  0.00    +0.000 Cl
ENDBRANCH  16  17
ENDBRANCH   5  16
TORSDOF 2
ENDMDL
