MODEL 1
REMARK VINA RESULT:      -7.2      0.000      0.000
REMARK  Name = 
REMARK  6 active torsions:
REMARK  status: ('A' for Active; 'I' for Inactive)
REMARK    1  A    between atoms: C_1  and  C_2
REMARK    2  A    between atoms: C_2  and  C_3
REMARK    3  A    between atoms: C_4  and  C_5
REMARK    4  A    between atoms: N_10  and  N_11
REMARK    5  A    between atoms: C_12  and  C_14
REMARK    6  A    between atoms: C_16  and  C_17
REMARK                            x       y       z     vdW  Elec       q    Type
REMARK                         _______ _______ _______ _____ _____    ______ ____
ROOT
ATOM      1  N   UNL     1       5.474   6.251  17.229  0.00  0.00    +0.000 N 
ATOM      2  C   UNL     1       4.130   6.313  17.571  0.00  0.00    +0.000 C 
ATOM      3  O   UNL     1       3.490   7.343  17.769  0.00  0.00    +0.000 OA
ATOM      4  H   UNL     1       5.865   5.322  17.100  0.00  0.00    +0.000 HD
ENDROOT
BRANCH   2   5
ATOM      5  C   UNL     1       3.516   4.977  17.677  0.00  0.00    +0.000 A 
ATOM      6  C   UNL     1       2.321   4.644  18.369  0.00  0.00    +0.000 A 
ATOM      7  C   UNL     1       2.139   3.294  18.173  0.00  0.00    +0.000 A 
ATOM      8  C   UNL     1       1.080   2.362  18.618  0.00  0.00    +0.000 C 
ATOM      9  N   UNL     1       3.202   2.891  17.415  0.00  0.00    +0.000 N 
ATOM     10  N   UNL     1       4.054   3.884  17.093  0.00  0.00    +0.000 NA
ATOM     11  H   UNL     1       3.405   1.955  17.079  0.00  0.00    +0.000 HD
ENDBRANCH   2   5
BRANCH   1  14
ATOM     12  C   UNL     1       7.844   6.466  18.718  0.00  0.00    +0.000 C 
ATOM     13  C   UNL     1       7.325   7.517  17.759  0.00  0.00    +0.000 C 
ATOM     14  N   UNL     1       6.216   7.386  17.083  0.00  0.00    +0.000 NA
BRANCH  13  15
ATOM     15  C   UNL     1       8.072   8.798  17.546  0.00  0.00    +0.000 C 
ATOM     16  C   UNL     1       8.575   9.591  18.502  0.00  0.00    +0.000 C 
BRANCH  16  17
ATOM     17  C   UNL     1       9.246  10.815  18.216  0.00  0.00    +0.000 A 
ATOM     18  C   UNL     1      10.590  11.177  18.272  0.00  0.00    +0.000 A 
ATOM     19  C   UNL     1      10.701  12.528  17.859  0.00  0.00    +0.000 A 
ATOM     20  C   UNL     1       9.425  12.936  17.575  0.00  0.00    +0.000 A 
ATOM     21  O   UNL     1       8.549  11.926  17.785  0.00  0.00    +0.000 OA
ENDBRANCH  16  17
ENDBRANCH  13  15
ENDBRANCH   1  14
TORSDOF 4
ENDMDL
MODEL 2
REMARK VINA RESULT:      -7.0      1.119      1.339
REMARK  Name = 
REMARK  6 active torsions:
REMARK  status: ('A' for Active; 'I' for Inactive)
REMARK    1  A    between atoms: C_1  and  C_2
REMARK    2  A    between atoms: C_2  and  C_3
REMARK    3  A    between atoms: C_4  and  C_5
REMARK    4  A    between atoms: N_10  and  N_11
REMARK    5  A    between atoms: C_12  and  C_14
REMARK    6  A    between atoms: C_16  and  C_17
REMARK                            x       y       z     vdW  Elec       q    Type
REMARK                         _______ _______ _______ _____ _____    ______ ____
ROOT
ATOM      1  N   UNL     1       5.653   6.290  17.295  0.00  0.00    +0.000 N 
ATOM      2  C   UNL     1       4.296   6.338  17.582  0.00  0.00    +0.000 C 
ATOM      3  O   UNL     1       3.624   7.361  17.693  0.00  0.00    +0.000 OA
ATOM      4  H   UNL     1       6.071   5.366  17.237  0.00  0.00    +0.000 HD
ENDROOT
BRANCH   2   5
ATOM      5  C   UNL     1       3.710   4.995  17.745  0.00  0.00    +0.000 A 
ATOM      6  C   UNL     1       4.414   3.784  17.977  0.00  0.00    +0.000 A 
ATOM      7  C   UNL     1       3.451   2.805  18.078  0.00  0.00    +0.000 A 
ATOM      8  C   UNL     1       3.540   1.350  18.331  0.00  0.00    +0.000 C 
ATOM      9  N   UNL     1       2.260   3.448  17.892  0.00  0.00    +0.000 N 
ATOM     10  N   UNL     1       2.378   4.775  17.692  0.00  0.00    +0.000 NA
ATOM     11  H   UNL     1       1.329   3.042  17.894  0.00  0.00    +0.000 HD
ENDBRANCH   2   5
BRANCH   1  14
ATOM     12  C   UNL     1       8.024   6.598  18.767  0.00  0.00    +0.000 C 
ATOM     13  C   UNL     1       7.482   7.607  17.777  0.00  0.00    +0.000 C 
ATOM     14  N   UNL     1       6.374   7.434  17.109  0.00  0.00    +0.000 NA
BRANCH  13  15
ATOM     15  C   UNL     1       8.204   8.894  17.518  0.00  0.00    +0.000 C 
ATOM     16  C   UNL     1       8.663   9.745  18.446  0.00  0.00    +0.000 C 
BRANCH  16  17
ATOM     17  C   UNL     1       9.313  10.970  18.116  0.00  0.00    +0.000 A 
ATOM     18  C   UNL     1       8.819  12.232  17.795  0.00  0.00    +0.000 A 
ATOM     19  C   UNL     1       9.920  13.094  17.573  0.00  0.00    +0.000 A 
ATOM     20  C   UNL     1      11.039  12.326  17.761  0.00  0.00    +0.000 A 
ATOM     21  O   UNL     1      10.690  11.058  18.083  0.00  0.00    +0.000 OA
ENDBRANCH  16  17
ENDBRANCH  13  15
ENDBRANCH   1  14
TORSDOF 4
ENDMDL
MODEL 3
REMARK VINA RESULT:      -6.8      4.394      6.847
REMARK  Name = 
REMARK  6 active torsions:
REMARK  status: ('A' for Active; 'I' for Inactive)
REMARK    1  A    between atoms: C_1  and  C_2
REMARK    2  A    between atoms: C_2  and  C_3
REMARK    3  A    between atoms: C_4  and  C_5
REMARK    4  A    between atoms: N_10  and  N_11
REMARK    5  A    between atoms: C_12  and  C_14
REMARK    6  A    between atoms: C_16  and  C_17
REMARK                            x       y       z     vdW  Elec       q    Type
REMARK                         _______ _______ _______ _____ _____    ______ ____
ROOT
ATOM      1  N   UNL     1       4.347   6.735  16.992  0.00  0.00    +0.000 N 
ATOM      2  C   UNL     1       5.563   6.106  17.219  0.00  0.00    +0.000 C 
ATOM      3  O   UNL     1       6.122   6.003  18.308  0.00  0.00    +0.000 OA
ATOM      4  H   UNL     1       4.013   6.741  16.032  0.00  0.00    +0.000 HD
ENDROOT
BRANCH   2   5
ATOM      5  C   UNL     1       6.145   5.549  15.985  0.00  0.00    +0.000 A 
ATOM      6  C   UNL     1       5.487   4.728  15.030  0.00  0.00    +0.000 A 
ATOM      7  C   UNL     1       6.419   4.474  14.050  0.00  0.00    +0.000 A 
ATOM      8  C   UNL     1       6.345   3.702  12.789  0.00  0.00    +0.000 C 
ATOM      9  N   UNL     1       7.555   5.116  14.454  0.00  0.00    +0.000 N 
ATOM     10  N   UNL     1       7.425   5.781  15.618  0.00  0.00    +0.000 NA
ATOM     11  H   UNL     1       8.453   5.146  13.980  0.00  0.00    +0.000 HD
ENDBRANCH   2   5
BRANCH   1  14
ATOM     12  C   UNL     1       2.238   5.275  18.133  0.00  0.00    +0.000 C 
ATOM     13  C   UNL     1       2.666   6.661  18.567  0.00  0.00    +0.000 C 
ATOM     14  N   UNL     1       3.651   7.314  18.013  0.00  0.00    +0.000 NA
BRANCH  13  15
ATOM     15  C   UNL     1       1.952   7.374  19.674  0.00  0.00    +0.000 C 
ATOM     16  C   UNL     1       1.523   8.643  19.652  0.00  0.00    +0.000 C 
BRANCH  16  17
ATOM     17  C   UNL     1       0.879   9.260  20.763  0.00  0.00    +0.000 A 
ATOM     18  C   UNL     1       0.747   8.878  22.096  0.00  0.00    +0.000 A 
ATOM     19  C   UNL     1       0.017   9.885  22.774  0.00  0.00    +0.000 A 
ATOM     20  C   UNL     1      -0.273  10.834  21.831  0.00  0.00    +0.000 A 
ATOM     21  O   UNL     1       0.233  10.473  20.628  0.00  0.00    +0.000 OA
ENDBRANCH  16  17
ENDBRANCH  13  15
ENDBRANCH   1  14
TORSDOF 4
ENDMDL
MODEL 4
REMARK VINA RESULT:      -6.8      1.123      1.166
REMARK  Name = 
REMARK  6 active torsions:
REMARK  status: ('A' for Active; 'I' for Inactive)
REMARK    1  A    between atoms: C_1  and  C_2
REMARK    2  A    between atoms: C_2  and  C_3
REMARK    3  A    between atoms: C_4  and  C_5
REMARK    4  A    between atoms: N_10  and  N_11
REMARK    5  A    between atoms: C_12  and  C_14
REMARK    6  A    between atoms: C_16  and  C_17
REMARK                            x       y       z     vdW  Elec       q    Type
REMARK                         _______ _______ _______ _____ _____    ______ ____
ROOT
ATOM      1  N   UNL     1       5.934   6.589  17.436  0.00  0.00    +0.000 N 
ATOM      2  C   UNL     1       5.239   5.977  16.403  0.00  0.00    +0.000 C 
ATOM      3  O   UNL     1       5.176   6.382  15.245  0.00  0.00    +0.000 OA
ATOM      4  H   UNL     1       5.891   6.133  18.344  0.00  0.00    +0.000 HD
ENDROOT
BRANCH   2   5
ATOM      5  C   UNL     1       4.558   4.744  16.839  0.00  0.00    +0.000 A 
ATOM      6  C   UNL     1       3.257   4.646  17.402  0.00  0.00    +0.000 A 
ATOM      7  C   UNL     1       3.049   3.305  17.630  0.00  0.00    +0.000 A 
ATOM      8  C   UNL     1       1.894   2.561  18.180  0.00  0.00    +0.000 C 
ATOM      9  N   UNL     1       4.196   2.685  17.224  0.00  0.00    +0.000 N 
ATOM     10  N   UNL     1       5.130   3.524  16.735  0.00  0.00    +0.000 NA
ATOM     11  H   UNL     1       4.407   1.692  17.247  0.00  0.00    +0.000 HD
ENDBRANCH   2   5
BRANCH   1  14
ATOM     12  C   UNL     1       8.303   6.970  18.895  0.00  0.00    +0.000 C 
ATOM     13  C   UNL     1       7.737   7.952  17.890  0.00  0.00    +0.000 C 
ATOM     14  N   UNL     1       6.630   7.744  17.229  0.00  0.00    +0.000 NA
BRANCH  13  15
ATOM     15  C   UNL     1       8.431   9.249  17.608  0.00  0.00    +0.000 C 
ATOM     16  C   UNL     1       8.919  10.101  18.519  0.00  0.00    +0.000 C 
BRANCH  16  17
ATOM     17  C   UNL     1       9.539  11.335  18.169  0.00  0.00    +0.000 A 
ATOM     18  C   UNL     1      10.814  11.638  17.696  0.00  0.00    +0.000 A 
ATOM     19  C   UNL     1      10.889  13.038  17.495  0.00  0.00    +0.000 A 
ATOM     20  C   UNL     1       9.664  13.533  17.858  0.00  0.00    +0.000 A 
ATOM     21  O   UNL     1       8.852  12.529  18.263  0.00  0.00    +0.000 OA
ENDBRANCH  16  17
ENDBRANCH  13  15
ENDBRANCH   1  14
TORSDOF 4
ENDMDL
MODEL 5
REMARK VINA RESULT:      -6.7      4.155      6.907
REMARK  Name = 
REMARK  6 active torsions:
REMARK  status: ('A' for Active; 'I' for Inactive)
REMARK    1  A    between atoms: C_1  and  C_2
REMARK    2  A    between atoms: C_2  and  C_3
REMARK    3  A    between atoms: C_4  and  C_5
REMARK    4  A    between atoms: N_10  and  N_11
REMARK    5  A    between atoms: C_12  and  C_14
REMARK    6  A    between atoms: C_16  and  C_17
REMARK                            x       y       z     vdW  Elec       q    Type
REMARK                         _______ _______ _______ _____ _____    ______ ____
ROOT
ATOM      1  N   UNL     1       4.174   6.218  17.107  0.00  0.00    +0.000 N 
ATOM      2  C   UNL     1       5.495   6.572  16.868  0.00  0.00    +0.000 C 
ATOM      3  O   UNL     1       6.123   7.438  17.472  0.00  0.00    +0.000 OA
ATOM      4  H   UNL     1       3.790   5.482  16.522  0.00  0.00    +0.000 HD
ENDROOT
BRANCH   2   5
ATOM      5  C   UNL     1       6.099   5.780  15.782  0.00  0.00    +0.000 A 
ATOM      6  C   UNL     1       5.416   4.948  14.855  0.00  0.00    +0.000 A 
ATOM      7  C   UNL     1       6.388   4.434  14.027  0.00  0.00    +0.000 A 
ATOM      8  C   UNL     1       6.317   3.525  12.862  0.00  0.00    +0.000 C 
ATOM      9  N   UNL     1       7.567   4.948  14.488  0.00  0.00    +0.000 N 
ATOM     10  N   UNL     1       7.430   5.770  15.546  0.00  0.00    +0.000 NA
ATOM     11  H   UNL     1       8.500   4.784  14.123  0.00  0.00    +0.000 HD
ENDBRANCH   2   5
BRANCH   1  14
ATOM     12  C   UNL     1       3.124   4.635  19.174  0.00  0.00    +0.000 C 
ATOM     13  C   UNL     1       2.942   6.133  19.053  0.00  0.00    +0.000 C 
ATOM     14  N   UNL     1       3.443   6.840  18.077  0.00  0.00    +0.000 NA
BRANCH  13  15
ATOM     15  C   UNL     1       2.146   6.895  20.068  0.00  0.00    +0.000 C 
ATOM     16  C   UNL     1       1.685   8.146  19.937  0.00  0.00    +0.000 C 
BRANCH  16  17
ATOM     17  C   UNL     1       0.961   8.815  20.967  0.00  0.00    +0.000 A 
ATOM     18  C   UNL     1      -0.210   9.568  20.945  0.00  0.00    +0.000 A 
ATOM     19  C   UNL     1      -0.492   9.984  22.270  0.00  0.00    +0.000 A 
ATOM     20  C   UNL     1       0.517   9.475  23.043  0.00  0.00    +0.000 A 
ATOM     21  O   UNL     1       1.391   8.778  22.278  0.00  0.00    +0.000 OA
ENDBRANCH  16  17
ENDBRANCH  13  15
ENDBRANCH   1  14
TORSDOF 4
ENDMDL
MODEL 6
REMARK VINA RESULT:      -6.7      5.326      7.484
REMARK  Name = 
REMARK  6 active torsions:
REMARK  status: ('A' for Active; 'I' for Inactive)
REMARK    1  A    between atoms: C_1  and  C_2
REMARK    2  A    between atoms: C_2  and  C_3
REMARK    3  A    between atoms: C_4  and  C_5
REMARK    4  A    between atoms: N_10  and  N_11
REMARK    5  A    between atoms: C_12  and  C_14
REMARK    6  A    between atoms: C_16  and  C_17
REMARK                            x       y       z     vdW  Elec       q    Type
REMARK                         _______ _______ _______ _____ _____    ______ ____
ROOT
ATOM      1  N   UNL     1       1.740   7.919  20.537  0.00  0.00    +0.000 N 
ATOM      2  C   UNL     1       1.024   9.066  20.220  0.00  0.00    +0.000 C 
ATOM      3  O   UNL     1       0.990   9.605  19.117  0.00  0.00    +0.000 OA
ATOM      4  H   UNL     1       1.670   7.593  21.497  0.00  0.00    +0.000 HD
ENDROOT
BRANCH   2   5
ATOM      5  C   UNL     1       0.276   9.597  21.375  0.00  0.00    +0.000 A 
ATOM      6  C   UNL     1      -0.500  10.786  21.410  0.00  0.00    +0.000 A 
ATOM      7  C   UNL     1      -1.018  10.857  22.683  0.00  0.00    +0.000 A 
ATOM      8  C   UNL     1      -1.911  11.839  23.335  0.00  0.00    +0.000 C 
ATOM      9  N   UNL     1      -0.533   9.757  23.334  0.00  0.00    +0.000 N 
ATOM     10  N   UNL     1       0.250   8.970  22.572  0.00  0.00    +0.000 NA
ATOM     11  H   UNL     1      -0.702   9.482  24.296  0.00  0.00    +0.000 HD
ENDBRANCH   2   5
BRANCH   1  14
ATOM     12  C   UNL     1       1.798   5.113  20.593  0.00  0.00    +0.000 C 
ATOM     13  C   UNL     1       2.543   5.975  19.596  0.00  0.00    +0.000 C 
ATOM     14  N   UNL     1       2.496   7.280  19.599  0.00  0.00    +0.000 NA
BRANCH  13  15
ATOM     15  C   UNL     1       3.404   5.356  18.538  0.00  0.00    +0.000 C 
ATOM     16  C   UNL     1       4.137   6.013  17.628  0.00  0.00    +0.000 C 
BRANCH  16  17
ATOM     17  C   UNL     1       4.906   5.347  16.630  0.00  0.00    +0.000 A 
ATOM     18  C   UNL     1       5.119   3.998  16.361  0.00  0.00    +0.000 A 
ATOM     19  C   UNL     1       5.964   3.901  15.228  0.00  0.00    +0.000 A 
ATOM     20  C   UNL     1       6.238   5.190  14.856  0.00  0.00    +0.000 A 
ATOM     21  O   UNL     1       5.615   6.061  15.685  0.00  0.00    +0.000 OA
ENDBRANCH  16  17
ENDBRANCH  13  15
ENDBRANCH   1  14
TORSDOF 4
ENDMDL
MODEL 7
REMARK VINA RESULT:      -6.4      1.236      1.453
REMARK  Name = 
REMARK  6 active torsions:
REMARK  status: ('A' for Active; 'I' for Inactive)
REMARK    1  A    between atoms: C_1  and  C_2
REMARK    2  A    between atoms: C_2  and  C_3
REMARK    3  A    between atoms: C_4  and  C_5
REMARK    4  A    between atoms: N_10  and  N_11
REMARK    5  A    between atoms: C_12  and  C_14
REMARK    6  A    between atoms: C_16  and  C_17
REMARK                            x       y       z     vdW  Elec       q    Type
REMARK                         _______ _______ _______ _____ _____    ______ ____
ROOT
ATOM      1  N   UNL     1       6.437   6.590  16.949  0.00  0.00    +0.000 N 
ATOM      2  C   UNL     1       5.076   6.394  17.140  0.00  0.00    +0.000 C 
ATOM      3  O   UNL     1       4.238   7.282  17.276  0.00  0.00    +0.000 OA
ATOM      4  H   UNL     1       7.006   5.753  16.855  0.00  0.00    +0.000 HD
ENDROOT
BRANCH   2   5
ATOM      5  C   UNL     1       4.714   4.965  17.165  0.00  0.00    +0.000 A 
ATOM      6  C   UNL     1       3.609   4.381  17.839  0.00  0.00    +0.000 A 
ATOM      7  C   UNL     1       3.670   3.034  17.560  0.00  0.00    +0.000 A 
ATOM      8  C   UNL     1       2.801   1.901  17.950  0.00  0.00    +0.000 C 
ATOM      9  N   UNL     1       4.776   2.877  16.774  0.00  0.00    +0.000 N 
ATOM     10  N   UNL     1       5.430   4.024  16.511  0.00  0.00    +0.000 NA
ATOM     11  H   UNL     1       5.138   2.014  16.378  0.00  0.00    +0.000 HD
ENDBRANCH   2   5
BRANCH   1  14
ATOM     12  C   UNL     1       8.364   7.279  18.870  0.00  0.00    +0.000 C 
ATOM     13  C   UNL     1       7.866   8.198  17.774  0.00  0.00    +0.000 C 
ATOM     14  N   UNL     1       6.967   7.846  16.897  0.00  0.00    +0.000 NA
BRANCH  13  15
ATOM     15  C   UNL     1       8.387   9.597  17.650  0.00  0.00    +0.000 C 
ATOM     16  C   UNL     1       9.067  10.276  18.583  0.00  0.00    +0.000 C 
BRANCH  16  17
ATOM     17  C   UNL     1       9.500  11.621  18.399  0.00  0.00    +0.000 A 
ATOM     18  C   UNL     1       8.943  12.695  17.709  0.00  0.00    +0.000 A 
ATOM     19  C   UNL     1       9.793  13.815  17.874  0.00  0.00    +0.000 A 
ATOM     20  C   UNL     1      10.836  13.381  18.649  0.00  0.00    +0.000 A 
ATOM     21  O   UNL     1      10.674  12.075  18.967  0.00  0.00    +0.000 OA
ENDBRANCH  16  17
ENDBRANCH  13  15
ENDBRANCH   1  14
TORSDOF 4
ENDMDL
MODEL 8
REMARK VINA RESULT:      -6.4      4.798      7.027
REMARK  Name = 
REMARK  6 active torsions:
REMARK  status: ('A' for Active; 'I' for Inactive)
REMARK    1  A    between atoms: C_1  and  C_2
REMARK    2  A    between atoms: C_2  and  C_3
REMARK    3  A    between atoms: C_4  and  C_5
REMARK    4  A    between atoms: N_10  and  N_11
REMARK    5  A    between atoms: C_12  and  C_14
REMARK    6  A    between atoms: C_16  and  C_17
REMARK                            x       y       z     vdW  Elec       q    Type
REMARK                         _______ _______ _______ _____ _____    ______ ____
ROOT
ATOM      1  N   UNL     1       3.938   5.751  17.857  0.00  0.00    +0.000 N 
ATOM      2  C   UNL     1       5.315   5.618  17.975  0.00  0.00    +0.000 C 
ATOM      3  O   UNL     1       5.979   5.907  18.968  0.00  0.00    +0.000 OA
ATOM      4  H   UNL     1       3.531   5.470  16.969  0.00  0.00    +0.000 HD
ENDROOT
BRANCH   2   5
ATOM      5  C   UNL     1       5.932   5.072  16.753  0.00  0.00    +0.000 A 
ATOM      6  C   UNL     1       5.256   4.628  15.585  0.00  0.00    +0.000 A 
ATOM      7  C   UNL     1       6.241   4.225  14.713  0.00  0.00    +0.000 A 
ATOM      8  C   UNL     1       6.185   3.685  13.336  0.00  0.00    +0.000 C 
ATOM      9  N   UNL     1       7.418   4.424  15.377  0.00  0.00    +0.000 N 
ATOM     10  N   UNL     1       7.269   4.939  16.613  0.00  0.00    +0.000 NA
ATOM     11  H   UNL     1       8.358   4.234  15.045  0.00  0.00    +0.000 HD
ENDBRANCH   2   5
BRANCH   1  14
ATOM     12  C   UNL     1       2.849   8.323  17.576  0.00  0.00    +0.000 C 
ATOM     13  C   UNL     1       2.665   7.432  18.787  0.00  0.00    +0.000 C 
ATOM     14  N   UNL     1       3.188   6.240  18.886  0.00  0.00    +0.000 NA
BRANCH  13  15
ATOM     15  C   UNL     1       1.864   7.893  19.966  0.00  0.00    +0.000 C 
ATOM     16  C   UNL     1       1.109   8.998  20.027  0.00  0.00    +0.000 C 
BRANCH  16  17
ATOM     17  C   UNL     1       0.401   9.386  21.202  0.00  0.00    +0.000 A 
ATOM     18  C   UNL     1      -0.106   8.651  22.271  0.00  0.00    +0.000 A 
ATOM     19  C   UNL     1      -0.708   9.555  23.181  0.00  0.00    +0.000 A 
ATOM     20  C   UNL     1      -0.550  10.799  22.631  0.00  0.00    +0.000 A 
ATOM     21  O   UNL     1       0.107  10.711  21.450  0.00  0.00    +0.000 OA
ENDBRANCH  16  17
ENDBRANCH  13  15
ENDBRANCH   1  14
TORSDOF 4
ENDMDL
MODEL 9
REMARK VINA RESULT:      -6.4      4.663      9.719
REMARK  Name = 
REMARK  6 active torsions:
REMARK  status: ('A' for Active; 'I' for Inactive)
REMARK    1  A    between atoms: C_1  and  C_2
REMARK    2  A    between atoms: C_2  and  C_3
REMARK    3  A    between atoms: C_4  and  C_5
REMARK    4  A    between atoms: N_10  and  N_11
REMARK    5  A    between atoms: C_12  and  C_14
REMARK    6  A    between atoms: C_16  and  C_17
REMARK                            x       y       z     vdW  Elec       q    Type
REMARK                         _______ _______ _______ _____ _____    ______ ____
ROOT
ATOM      1  N   UNL     1       9.703  12.597  18.027  0.00  0.00    +0.000 N 
ATOM      2  C   UNL     1       8.767  13.595  17.796  0.00  0.00    +0.000 C 
ATOM      3  O   UNL     1       7.604  13.416  17.442  0.00  0.00    +0.000 OA
ATOM      4  H   UNL     1      10.629  12.902  18.314  0.00  0.00    +0.000 HD
ENDROOT
BRANCH   2   5
ATOM      5  C   UNL     1       9.317  14.943  18.025  0.00  0.00    +0.000 A 
ATOM      6  C   UNL     1      10.685  15.322  17.975  0.00  0.00    +0.000 A 
ATOM      7  C   UNL     1      10.708  16.674  18.236  0.00  0.00    +0.000 A 
ATOM      8  C   UNL     1      11.819  17.650  18.308  0.00  0.00    +0.000 C 
ATOM      9  N   UNL     1       9.404  17.027  18.439  0.00  0.00    +0.000 N 
ATOM     10  N   UNL     1       8.534  16.006  18.315  0.00  0.00    +0.000 NA
ATOM     11  H   UNL     1       9.038  17.947  18.660  0.00  0.00    +0.000 HD
ENDBRANCH   2   5
BRANCH   1  14
ATOM     12  C   UNL     1       9.396  11.035  20.339  0.00  0.00    +0.000 C 
ATOM     13  C   UNL     1       9.230  10.526  18.922  0.00  0.00    +0.000 C 
ATOM     14  N   UNL     1       9.382  11.280  17.867  0.00  0.00    +0.000 NA
BRANCH  13  15
ATOM     15  C   UNL     1       8.888   9.093  18.655  0.00  0.00    +0.000 C 
ATOM     16  C   UNL     1       7.931   8.647  17.831  0.00  0.00    +0.000 C 
BRANCH  16  17
ATOM     17  C   UNL     1       7.645   7.261  17.656  0.00  0.00    +0.000 A 
ATOM     18  C   UNL     1       7.491   6.219  18.567  0.00  0.00    +0.000 A 
ATOM     19  C   UNL     1       7.194   5.039  17.841  0.00  0.00    +0.000 A 
ATOM     20  C   UNL     1       7.184   5.406  16.521  0.00  0.00    +0.000 A 
ATOM     21  O   UNL     1       7.454   6.727  16.398  0.00  0.00    +0.000 OA
ENDBRANCH  16  17
ENDBRANCH  13  15
ENDBRANCH   1  14
TORSDOF 4
ENDMDL
