MODEL 1
REMARK VINA RESULT:      -9.3      0.000      0.000
REMARK  Name = 
REMARK  4 active torsions:
REMARK  status: ('A' for Active; 'I' for Inactive)
REMARK    1  A    between atoms: C_2  and  C_3
REMARK    2  A    between atoms: C_6  and  C_7
REMARK    3  A    between atoms: C_11  and  C_12
REMARK    4  A    between atoms: N_14  and  C_15
REMARK                            x       y       z     vdW  Elec       q    Type
REMARK                         _______ _______ _______ _____ _____    ______ ____
ROOT
ATOM      1  C   UNL     1       2.114   6.717  19.896  0.00  0.00    +0.000 C 
ATOM      2  O   UNL     1       1.811   6.205  20.974  0.00  0.00    +0.000 OA
ATOM      3  N   UNL     1       2.778   5.907  18.944  0.00  0.00    +0.000 N 
ATOM      4  N   UNL     1       3.526   6.478  17.935  0.00  0.00    +0.000 NA
ATOM      5  C   UNL     1       4.079   5.424  17.303  0.00  0.00    +0.000 A 
ATOM      6  C   UNL     1       3.638   4.184  17.854  0.00  0.00    +0.000 A 
ATOM      7  C   UNL     1       3.870   2.824  17.562  0.00  0.00    +0.000 A 
ATOM      8  C   UNL     1       3.215   1.836  18.294  0.00  0.00    +0.000 A 
ATOM      9  C   UNL     1       2.339   2.189  19.314  0.00  0.00    +0.000 A 
ATOM     10  C   UNL     1       2.115   3.532  19.641  0.00  0.00    +0.000 A 
ATOM     11  C   UNL     1       2.788   4.519  18.897  0.00  0.00    +0.000 A 
ENDROOT
BRANCH   1  15
ATOM     12  C   UNL     1       0.745  10.722  19.242  0.00  0.00    +0.000 A 
ATOM     13  C   UNL     1       0.611  10.128  20.502  0.00  0.00    +0.000 A 
ATOM     14  C   UNL     1       1.088   8.831  20.717  0.00  0.00    +0.000 A 
ATOM     15  C   UNL     1       1.719   8.130  19.679  0.00  0.00    +0.000 A 
ATOM     16  C   UNL     1       1.839   8.720  18.416  0.00  0.00    +0.000 A 
ATOM     17  C   UNL     1       1.355  10.015  18.202  0.00  0.00    +0.000 A 
BRANCH  12  19
ATOM     18  N   UNL     1      -0.160  13.118  18.834  0.00  0.00    +0.000 NA
ATOM     19  C   UNL     1       0.246  12.050  19.015  0.00  0.00    +0.000 C 
ENDBRANCH  12  19
ENDBRANCH   1  15
BRANCH   5  20
ATOM     20  C   UNL     1       5.007   5.501  16.156  0.00  0.00    +0.000 C 
ATOM     21  O   UNL     1       5.513   6.585  15.871  0.00  0.00    +0.000 OA
ATOM     22  N   UNL     1       5.206   4.339  15.426  0.00  0.00    +0.000 N 
ATOM     23  H   UNL     1       4.594   3.561  15.643  0.00  0.00    +0.000 HD
BRANCH  22  24
ATOM     24  C   UNL     1       6.014   4.285  14.258  0.00  0.00    +0.000 A 
ATOM     25  C   UNL     1       7.191   5.037  14.125  0.00  0.00    +0.000 A 
ATOM     26  C   UNL     1       7.892   5.091  12.921  0.00  0.00    +0.000 A 
ATOM     27  C   UNL     1       7.446   4.353  11.834  0.00  0.00    +0.000 A 
ATOM     28  C   UNL     1       6.322   3.537  11.970  0.00  0.00    +0.000 A 
ATOM     29  C   UNL     1       5.613   3.492  13.181  0.00  0.00    +0.000 A 
ENDBRANCH  22  24
ENDBRANCH   5  20
TORSDOF 4
ENDMDL
MODEL 2
REMARK VINA RESULT:      -8.9      1.992      7.457
REMARK  Name = 
REMARK  4 active torsions:
REMARK  status: ('A' for Active; 'I' for Inactive)
REMARK    1  A    between atoms: C_2  and  C_3
REMARK    2  A    between atoms: C_6  and  C_7
REMARK    3  A    between atoms: C_11  and  C_12
REMARK    4  A    between atoms: N_14  and  C_15
REMARK                            x       y       z     vdW  Elec       q    Type
REMARK                         _______ _______ _______ _____ _____    ______ ____
ROOT
ATOM      1  C   UNL     1       4.212   3.406  17.130  0.00  0.00    +0.000 C 
ATOM      2  O   UNL     1       3.933   2.207  17.104  0.00  0.00    +0.000 OA
ATOM      3  N   UNL     1       3.549   4.217  18.081  0.00  0.00    +0.000 N 
ATOM      4  N   UNL     1       3.459   5.582  17.900  0.00  0.00    +0.000 NA
ATOM      5  C   UNL     1       2.689   5.998  18.925  0.00  0.00    +0.000 A 
ATOM      6  C   UNL     1       2.342   4.924  19.796  0.00  0.00    +0.000 A 
ATOM      7  C   UNL     1       1.608   4.809  20.996  0.00  0.00    +0.000 A 
ATOM      8  C   UNL     1       1.507   3.573  21.631  0.00  0.00    +0.000 A 
ATOM      9  C   UNL     1       2.122   2.455  21.082  0.00  0.00    +0.000 A 
ATOM     10  C   UNL     1       2.832   2.538  19.878  0.00  0.00    +0.000 A 
ATOM     11  C   UNL     1       2.921   3.791  19.244  0.00  0.00    +0.000 A 
ENDROOT
BRANCH   1  15
ATOM     12  C   UNL     1       7.129   5.007  14.434  0.00  0.00    +0.000 A 
ATOM     13  C   UNL     1       7.340   5.065  15.816  0.00  0.00    +0.000 A 
ATOM     14  C   UNL     1       6.398   4.513  16.690  0.00  0.00    +0.000 A 
ATOM     15  C   UNL     1       5.250   3.883  16.185  0.00  0.00    +0.000 A 
ATOM     16  C   UNL     1       5.035   3.838  14.803  0.00  0.00    +0.000 A 
ATOM     17  C   UNL     1       5.976   4.397  13.932  0.00  0.00    +0.000 A 
BRANCH  12  19
ATOM     18  N   UNL     1       8.865   6.048  12.813  0.00  0.00    +0.000 NA
ATOM     19  C   UNL     1       8.089   5.582  13.534  0.00  0.00    +0.000 C 
ENDBRANCH  12  19
ENDBRANCH   1  15
BRANCH   5  20
ATOM     20  C   UNL     1       2.261   7.392  19.167  0.00  0.00    +0.000 C 
ATOM     21  O   UNL     1       2.152   7.788  20.326  0.00  0.00    +0.000 OA
ATOM     22  N   UNL     1       1.948   8.157  18.055  0.00  0.00    +0.000 N 
ATOM     23  H   UNL     1       1.897   7.666  17.170  0.00  0.00    +0.000 HD
BRANCH  22  24
ATOM     24  C   UNL     1       1.455   9.487  18.143  0.00  0.00    +0.000 A 
ATOM     25  C   UNL     1       2.305  10.603  18.163  0.00  0.00    +0.000 A 
ATOM     26  C   UNL     1       1.820  11.888  18.400  0.00  0.00    +0.000 A 
ATOM     27  C   UNL     1       0.459  12.085  18.580  0.00  0.00    +0.000 A 
ATOM     28  C   UNL     1      -0.413  11.000  18.485  0.00  0.00    +0.000 A 
ATOM     29  C   UNL     1       0.080   9.704  18.256  0.00  0.00    +0.000 A 
ENDBRANCH  22  24
ENDBRANCH   5  20
TORSDOF 4
ENDMDL
MODEL 3
REMARK VINA RESULT:      -8.8      0.690      1.142
REMARK  Name = 
REMARK  4 active torsions:
REMARK  status: ('A' for Active; 'I' for Inactive)
REMARK    1  A    between atoms: C_2  and  C_3
REMARK    2  A    between atoms: C_6  and  C_7
REMARK    3  A    between atoms: C_11  and  C_12
REMARK    4  A    between atoms: N_14  and  C_15
REMARK                            x       y       z     vdW  Elec       q    Type
REMARK                         _______ _______ _______ _____ _____    ______ ____
ROOT
ATOM      1  C   UNL     1       1.978   6.590  19.836  0.00  0.00    +0.000 C 
ATOM      2  O   UNL     1       1.478   6.177  20.883  0.00  0.00    +0.000 OA
ATOM      3  N   UNL     1       2.695   5.668  19.039  0.00  0.00    +0.000 N 
ATOM      4  N   UNL     1       3.628   6.107  18.123  0.00  0.00    +0.000 NA
ATOM      5  C   UNL     1       4.168   4.972  17.637  0.00  0.00    +0.000 A 
ATOM      6  C   UNL     1       3.542   3.812  18.181  0.00  0.00    +0.000 A 
ATOM      7  C   UNL     1       3.689   2.421  17.999  0.00  0.00    +0.000 A 
ATOM      8  C   UNL     1       2.848   1.541  18.678  0.00  0.00    +0.000 A 
ATOM      9  C   UNL     1       1.871   2.031  19.535  0.00  0.00    +0.000 A 
ATOM     10  C   UNL     1       1.725   3.406  19.754  0.00  0.00    +0.000 A 
ATOM     11  C   UNL     1       2.585   4.283  19.067  0.00  0.00    +0.000 A 
ENDROOT
BRANCH   1  15
ATOM     12  C   UNL     1       1.545  10.742  18.881  0.00  0.00    +0.000 A 
ATOM     13  C   UNL     1       2.086   9.856  17.943  0.00  0.00    +0.000 A 
ATOM     14  C   UNL     1       2.196   8.496  18.250  0.00  0.00    +0.000 A 
ATOM     15  C   UNL     1       1.747   8.013  19.488  0.00  0.00    +0.000 A 
ATOM     16  C   UNL     1       1.219   8.904  20.430  0.00  0.00    +0.000 A 
ATOM     17  C   UNL     1       1.116  10.264  20.122  0.00  0.00    +0.000 A 
BRANCH  12  19
ATOM     18  N   UNL     1       1.355  13.267  18.319  0.00  0.00    +0.000 NA
ATOM     19  C   UNL     1       1.439  12.142  18.573  0.00  0.00    +0.000 C 
ENDBRANCH  12  19
ENDBRANCH   1  15
BRANCH   5  20
ATOM     20  C   UNL     1       5.255   4.897  16.638  0.00  0.00    +0.000 C 
ATOM     21  O   UNL     1       6.378   5.290  16.949  0.00  0.00    +0.000 OA
ATOM     22  N   UNL     1       4.920   4.436  15.374  0.00  0.00    +0.000 N 
ATOM     23  H   UNL     1       3.931   4.321  15.186  0.00  0.00    +0.000 HD
BRANCH  22  24
ATOM     24  C   UNL     1       5.846   4.380  14.298  0.00  0.00    +0.000 A 
ATOM     25  C   UNL     1       6.981   5.201  14.242  0.00  0.00    +0.000 A 
ATOM     26  C   UNL     1       7.799   5.243  13.113  0.00  0.00    +0.000 A 
ATOM     27  C   UNL     1       7.514   4.425  12.030  0.00  0.00    +0.000 A 
ATOM     28  C   UNL     1       6.435   3.543  12.097  0.00  0.00    +0.000 A 
ATOM     29  C   UNL     1       5.608   3.510  13.231  0.00  0.00    +0.000 A 
ENDBRANCH  22  24
ENDBRANCH   5  20
TORSDOF 4
ENDMDL
MODEL 4
REMARK VINA RESULT:      -8.8      0.209      1.306
REMARK  Name = 
REMARK  4 active torsions:
REMARK  status: ('A' for Active; 'I' for Inactive)
REMARK    1  A    between atoms: C_2  and  C_3
REMARK    2  A    between atoms: C_6  and  C_7
REMARK    3  A    between atoms: C_11  and  C_12
REMARK    4  A    between atoms: N_14  and  C_15
REMARK                            x       y       z     vdW  Elec       q    Type
REMARK                         _______ _______ _______ _____ _____    ______ ____
ROOT
ATOM      1  C   UNL     1       2.082   6.712  19.931  0.00  0.00    +0.000 C 
ATOM      2  O   UNL     1       1.819   6.216  21.026  0.00  0.00    +0.000 OA
ATOM      3  N   UNL     1       2.755   5.903  18.985  0.00  0.00    +0.000 N 
ATOM      4  N   UNL     1       3.462   6.475  17.947  0.00  0.00    +0.000 NA
ATOM      5  C   UNL     1       4.039   5.427  17.329  0.00  0.00    +0.000 A 
ATOM      6  C   UNL     1       3.653   4.186  17.917  0.00  0.00    +0.000 A 
ATOM      7  C   UNL     1       3.927   2.828  17.652  0.00  0.00    +0.000 A 
ATOM      8  C   UNL     1       3.322   1.836  18.420  0.00  0.00    +0.000 A 
ATOM      9  C   UNL     1       2.455   2.182  19.449  0.00  0.00    +0.000 A 
ATOM     10  C   UNL     1       2.190   3.524  19.750  0.00  0.00    +0.000 A 
ATOM     11  C   UNL     1       2.812   4.516  18.969  0.00  0.00    +0.000 A 
ENDROOT
BRANCH   1  15
ATOM     12  C   UNL     1       1.013  10.805  19.261  0.00  0.00    +0.000 A 
ATOM     13  C   UNL     1       1.552  10.038  18.222  0.00  0.00    +0.000 A 
ATOM     14  C   UNL     1       1.871   8.694  18.439  0.00  0.00    +0.000 A 
ATOM     15  C   UNL     1       1.633   8.105  19.690  0.00  0.00    +0.000 A 
ATOM     16  C   UNL     1       1.106   8.877  20.731  0.00  0.00    +0.000 A 
ATOM     17  C   UNL     1       0.795  10.223  20.513  0.00  0.00    +0.000 A 
BRANCH  12  19
ATOM     18  N   UNL     1       0.442  13.305  18.874  0.00  0.00    +0.000 NA
ATOM     19  C   UNL     1       0.695  12.189  19.044  0.00  0.00    +0.000 C 
ENDBRANCH  12  19
ENDBRANCH   1  15
BRANCH   5  20
ATOM     20  C   UNL     1       4.941   5.509  16.161  0.00  0.00    +0.000 C 
ATOM     21  O   UNL     1       5.515   6.571  15.925  0.00  0.00    +0.000 OA
ATOM     22  N   UNL     1       5.039   4.382  15.359  0.00  0.00    +0.000 N 
ATOM     23  H   UNL     1       4.379   3.637  15.547  0.00  0.00    +0.000 HD
BRANCH  22  24
ATOM     24  C   UNL     1       5.811   4.344  14.166  0.00  0.00    +0.000 A 
ATOM     25  C   UNL     1       5.434   3.578  13.053  0.00  0.00    +0.000 A 
ATOM     26  C   UNL     1       6.273   3.431  11.949  0.00  0.00    +0.000 A 
ATOM     27  C   UNL     1       7.495   4.086  11.924  0.00  0.00    +0.000 A 
ATOM     28  C   UNL     1       7.854   4.916  12.987  0.00  0.00    +0.000 A 
ATOM     29  C   UNL     1       7.011   5.056  14.102  0.00  0.00    +0.000 A 
ENDBRANCH  22  24
ENDBRANCH   5  20
TORSDOF 4
ENDMDL
MODEL 5
REMARK VINA RESULT:      -8.7      2.928      7.582
REMARK  Name = 
REMARK  4 active torsions:
REMARK  status: ('A' for Active; 'I' for Inactive)
REMARK    1  A    between atoms: C_2  and  C_3
REMARK    2  A    between atoms: C_6  and  C_7
REMARK    3  A    between atoms: C_11  and  C_12
REMARK    4  A    between atoms: N_14  and  C_15
REMARK                            x       y       z     vdW  Elec       q    Type
REMARK                         _______ _______ _______ _____ _____    ______ ____
ROOT
ATOM      1  C   UNL     1       5.703   5.401  17.554  0.00  0.00    +0.000 C 
ATOM      2  O   UNL     1       5.958   4.584  16.670  0.00  0.00    +0.000 OA
ATOM      3  N   UNL     1       4.521   5.210  18.308  0.00  0.00    +0.000 N 
ATOM      4  N   UNL     1       3.940   6.264  18.983  0.00  0.00    +0.000 NA
ATOM      5  C   UNL     1       2.806   5.741  19.490  0.00  0.00    +0.000 A 
ATOM      6  C   UNL     1       2.690   4.349  19.204  0.00  0.00    +0.000 A 
ATOM      7  C   UNL     1       1.752   3.342  19.513  0.00  0.00    +0.000 A 
ATOM      8  C   UNL     1       1.984   2.030  19.104  0.00  0.00    +0.000 A 
ATOM      9  C   UNL     1       3.131   1.715  18.387  0.00  0.00    +0.000 A 
ATOM     10  C   UNL     1       4.063   2.703  18.043  0.00  0.00    +0.000 A 
ATOM     11  C   UNL     1       3.814   4.025  18.459  0.00  0.00    +0.000 A 
ENDROOT
BRANCH   1  15
ATOM     12  C   UNL     1       8.408   8.615  18.385  0.00  0.00    +0.000 A 
ATOM     13  C   UNL     1       8.536   7.395  19.058  0.00  0.00    +0.000 A 
ATOM     14  C   UNL     1       7.668   6.339  18.760  0.00  0.00    +0.000 A 
ATOM     15  C   UNL     1       6.682   6.492  17.774  0.00  0.00    +0.000 A 
ATOM     16  C   UNL     1       6.548   7.718  17.112  0.00  0.00    +0.000 A 
ATOM     17  C   UNL     1       7.413   8.774  17.417  0.00  0.00    +0.000 A 
BRANCH  12  19
ATOM     18  N   UNL     1       9.998  10.586  18.945  0.00  0.00    +0.000 NA
ATOM     19  C   UNL     1       9.291   9.705  18.696  0.00  0.00    +0.000 C 
ENDBRANCH  12  19
ENDBRANCH   1  15
BRANCH   5  20
ATOM     20  C   UNL     1       1.797   6.481  20.277  0.00  0.00    +0.000 C 
ATOM     21  O   UNL     1       0.864   5.859  20.782  0.00  0.00    +0.000 OA
ATOM     22  N   UNL     1       1.936   7.858  20.346  0.00  0.00    +0.000 N 
ATOM     23  H   UNL     1       2.633   8.271  19.737  0.00  0.00    +0.000 HD
BRANCH  22  24
ATOM     24  C   UNL     1       1.001   8.700  21.006  0.00  0.00    +0.000 A 
ATOM     25  C   UNL     1       0.179   9.599  20.311  0.00  0.00    +0.000 A 
ATOM     26  C   UNL     1      -0.624  10.523  20.979  0.00  0.00    +0.000 A 
ATOM     27  C   UNL     1      -0.649  10.534  22.365  0.00  0.00    +0.000 A 
ATOM     28  C   UNL     1       0.101   9.596  23.076  0.00  0.00    +0.000 A 
ATOM     29  C   UNL     1       0.916   8.673  22.401  0.00  0.00    +0.000 A 
ENDBRANCH  22  24
ENDBRANCH   5  20
TORSDOF 4
ENDMDL
MODEL 6
REMARK VINA RESULT:      -8.5      4.122      5.451
REMARK  Name = 
REMARK  4 active torsions:
REMARK  status: ('A' for Active; 'I' for Inactive)
REMARK    1  A    between atoms: C_2  and  C_3
REMARK    2  A    between atoms: C_6  and  C_7
REMARK    3  A    between atoms: C_11  and  C_12
REMARK    4  A    between atoms: N_14  and  C_15
REMARK                            x       y       z     vdW  Elec       q    Type
REMARK                         _______ _______ _______ _____ _____    ______ ____
ROOT
ATOM      1  C   UNL     1       3.128   6.298  17.883  0.00  0.00    +0.000 C 
ATOM      2  O   UNL     1       2.566   5.244  17.585  0.00  0.00    +0.000 OA
ATOM      3  N   UNL     1       4.497   6.433  17.554  0.00  0.00    +0.000 N 
ATOM      4  N   UNL     1       5.293   7.346  18.215  0.00  0.00    +0.000 NA
ATOM      5  C   UNL     1       6.526   7.123  17.719  0.00  0.00    +0.000 A 
ATOM      6  C   UNL     1       6.515   6.126  16.699  0.00  0.00    +0.000 A 
ATOM      7  C   UNL     1       7.488   5.552  15.855  0.00  0.00    +0.000 A 
ATOM      8  C   UNL     1       7.110   4.606  14.904  0.00  0.00    +0.000 A 
ATOM      9  C   UNL     1       5.779   4.224  14.792  0.00  0.00    +0.000 A 
ATOM     10  C   UNL     1       4.799   4.759  15.638  0.00  0.00    +0.000 A 
ATOM     11  C   UNL     1       5.196   5.709  16.597  0.00  0.00    +0.000 A 
ENDROOT
BRANCH   1  15
ATOM     12  C   UNL     1       0.944   9.470  19.756  0.00  0.00    +0.000 A 
ATOM     13  C   UNL     1       1.198   9.506  18.381  0.00  0.00    +0.000 A 
ATOM     14  C   UNL     1       1.885   8.453  17.770  0.00  0.00    +0.000 A 
ATOM     15  C   UNL     1       2.303   7.348  18.528  0.00  0.00    +0.000 A 
ATOM     16  C   UNL     1       2.059   7.321  19.906  0.00  0.00    +0.000 A 
ATOM     17  C   UNL     1       1.378   8.380  20.515  0.00  0.00    +0.000 A 
BRANCH  12  19
ATOM     18  N   UNL     1      -0.310  11.431  20.901  0.00  0.00    +0.000 NA
ATOM     19  C   UNL     1       0.247  10.556  20.389  0.00  0.00    +0.000 C 
ENDBRANCH  12  19
ENDBRANCH   1  15
BRANCH   5  20
ATOM     20  C   UNL     1       7.758   7.827  18.132  0.00  0.00    +0.000 C 
ATOM     21  O   UNL     1       8.656   7.187  18.675  0.00  0.00    +0.000 OA
ATOM     22  N   UNL     1       7.797   9.199  17.933  0.00  0.00    +0.000 N 
ATOM     23  H   UNL     1       6.928   9.638  17.652  0.00  0.00    +0.000 HD
BRANCH  22  24
ATOM     24  C   UNL     1       8.886  10.012  18.347  0.00  0.00    +0.000 A 
ATOM     25  C   UNL     1       9.214  10.194  19.699  0.00  0.00    +0.000 A 
ATOM     26  C   UNL     1      10.187  11.110  20.098  0.00  0.00    +0.000 A 
ATOM     27  C   UNL     1      10.883  11.833  19.140  0.00  0.00    +0.000 A 
ATOM     28  C   UNL     1      10.627  11.608  17.787  0.00  0.00    +0.000 A 
ATOM     29  C   UNL     1       9.640  10.692  17.388  0.00  0.00    +0.000 A 
ENDBRANCH  22  24
ENDBRANCH   5  20
TORSDOF 4
ENDMDL
MODEL 7
REMARK VINA RESULT:      -8.5      2.071      7.952
REMARK  Name = 
REMARK  4 active torsions:
REMARK  status: ('A' for Active; 'I' for Inactive)
REMARK    1  A    between atoms: C_2  and  C_3
REMARK    2  A    between atoms: C_6  and  C_7
REMARK    3  A    between atoms: C_11  and  C_12
REMARK    4  A    between atoms: N_14  and  C_15
REMARK                            x       y       z     vdW  Elec       q    Type
REMARK                         _______ _______ _______ _____ _____    ______ ____
ROOT
ATOM      1  C   UNL     1       4.419   3.286  17.270  0.00  0.00    +0.000 C 
ATOM      2  O   UNL     1       4.222   2.071  17.310  0.00  0.00    +0.000 OA
ATOM      3  N   UNL     1       3.764   4.092  18.231  0.00  0.00    +0.000 N 
ATOM      4  N   UNL     1       3.569   5.439  18.003  0.00  0.00    +0.000 NA
ATOM      5  C   UNL     1       2.840   5.846  19.060  0.00  0.00    +0.000 A 
ATOM      6  C   UNL     1       2.627   4.791  19.995  0.00  0.00    +0.000 A 
ATOM      7  C   UNL     1       1.982   4.680  21.245  0.00  0.00    +0.000 A 
ATOM      8  C   UNL     1       2.008   3.469  21.934  0.00  0.00    +0.000 A 
ATOM      9  C   UNL     1       2.662   2.371  21.389  0.00  0.00    +0.000 A 
ATOM     10  C   UNL     1       3.285   2.449  20.137  0.00  0.00    +0.000 A 
ATOM     11  C   UNL     1       3.246   3.676  19.450  0.00  0.00    +0.000 A 
ENDROOT
BRANCH   1  15
ATOM     12  C   UNL     1       7.048   4.961  14.334  0.00  0.00    +0.000 A 
ATOM     13  C   UNL     1       7.386   5.007  15.690  0.00  0.00    +0.000 A 
ATOM     14  C   UNL     1       6.538   4.431  16.642  0.00  0.00    +0.000 A 
ATOM     15  C   UNL     1       5.358   3.789  16.238  0.00  0.00    +0.000 A 
ATOM     16  C   UNL     1       5.015   3.756  14.882  0.00  0.00    +0.000 A 
ATOM     17  C   UNL     1       5.862   4.340  13.934  0.00  0.00    +0.000 A 
BRANCH  12  19
ATOM     18  N   UNL     1       8.610   6.048  12.571  0.00  0.00    +0.000 NA
ATOM     19  C   UNL     1       7.913   5.561  13.355  0.00  0.00    +0.000 C 
ENDBRANCH  12  19
ENDBRANCH   1  15
BRANCH   5  20
ATOM     20  C   UNL     1       2.333   7.218  19.277  0.00  0.00    +0.000 C 
ATOM     21  O   UNL     1       2.629   8.096  18.469  0.00  0.00    +0.000 OA
ATOM     22  N   UNL     1       1.594   7.443  20.428  0.00  0.00    +0.000 N 
ATOM     23  H   UNL     1       1.577   6.690  21.105  0.00  0.00    +0.000 HD
BRANCH  22  24
ATOM     24  C   UNL     1       1.107   8.725  20.798  0.00  0.00    +0.000 A 
ATOM     25  C   UNL     1       0.879   9.084  22.135  0.00  0.00    +0.000 A 
ATOM     26  C   UNL     1       0.261  10.287  22.475  0.00  0.00    +0.000 A 
ATOM     27  C   UNL     1      -0.103  11.177  21.476  0.00  0.00    +0.000 A 
ATOM     28  C   UNL     1       0.187  10.874  20.144  0.00  0.00    +0.000 A 
ATOM     29  C   UNL     1       0.800   9.658  19.804  0.00  0.00    +0.000 A 
ENDBRANCH  22  24
ENDBRANCH   5  20
TORSDOF 4
ENDMDL
MODEL 8
REMARK VINA RESULT:      -8.3      3.709      6.387
REMARK  Name = 
REMARK  4 active torsions:
REMARK  status: ('A' for Active; 'I' for Inactive)
REMARK    1  A    between atoms: C_2  and  C_3
REMARK    2  A    between atoms: C_6  and  C_7
REMARK    3  A    between atoms: C_11  and  C_12
REMARK    4  A    between atoms: N_14  and  C_15
REMARK                            x       y       z     vdW  Elec       q    Type
REMARK                         _______ _______ _______ _____ _____    ______ ____
ROOT
ATOM      1  C   UNL     1      -1.786  10.874  18.712  0.00  0.00    +0.000 C 
ATOM      2  O   UNL     1      -2.216  11.799  19.400  0.00  0.00    +0.000 OA
ATOM      3  N   UNL     1      -0.715  10.108  19.231  0.00  0.00    +0.000 N 
ATOM      4  N   UNL     1       0.097   9.375  18.390  0.00  0.00    +0.000 NA
ATOM      5  C   UNL     1       1.044   8.873  19.207  0.00  0.00    +0.000 A 
ATOM      6  C   UNL     1       0.807   9.221  20.569  0.00  0.00    +0.000 A 
ATOM      7  C   UNL     1       1.446   8.942  21.796  0.00  0.00    +0.000 A 
ATOM      8  C   UNL     1       0.898   9.416  22.986  0.00  0.00    +0.000 A 
ATOM      9  C   UNL     1      -0.271  10.166  22.966  0.00  0.00    +0.000 A 
ATOM     10  C   UNL     1      -0.907  10.481  21.759  0.00  0.00    +0.000 A 
ATOM     11  C   UNL     1      -0.340  10.000  20.564  0.00  0.00    +0.000 A 
ENDROOT
BRANCH   1  15
ATOM     12  C   UNL     1      -3.559  10.278  14.859  0.00  0.00    +0.000 A 
ATOM     13  C   UNL     1      -2.466   9.502  15.259  0.00  0.00    +0.000 A 
ATOM     14  C   UNL     1      -1.910   9.680  16.531  0.00  0.00    +0.000 A 
ATOM     15  C   UNL     1      -2.459  10.621  17.415  0.00  0.00    +0.000 A 
ATOM     16  C   UNL     1      -3.544  11.405  17.007  0.00  0.00    +0.000 A 
ATOM     17  C   UNL     1      -4.092  11.229  15.733  0.00  0.00    +0.000 A 
BRANCH  12  19
ATOM     18  N   UNL     1      -4.576   9.966  12.494  0.00  0.00    +0.000 NA
ATOM     19  C   UNL     1      -4.125  10.104  13.550  0.00  0.00    +0.000 C 
ENDBRANCH  12  19
ENDBRANCH   1  15
BRANCH   5  20
ATOM     20  C   UNL     1       2.186   8.035  18.784  0.00  0.00    +0.000 C 
ATOM     21  O   UNL     1       3.048   8.526  18.059  0.00  0.00    +0.000 OA
ATOM     22  N   UNL     1       2.180   6.710  19.191  0.00  0.00    +0.000 N 
ATOM     23  H   UNL     1       1.327   6.376  19.625  0.00  0.00    +0.000 HD
BRANCH  22  24
ATOM     24  C   UNL     1       3.174   5.774  18.800  0.00  0.00    +0.000 A 
ATOM     25  C   UNL     1       4.410   5.673  19.456  0.00  0.00    +0.000 A 
ATOM     26  C   UNL     1       5.432   4.858  18.970  0.00  0.00    +0.000 A 
ATOM     27  C   UNL     1       5.217   4.092  17.834  0.00  0.00    +0.000 A 
ATOM     28  C   UNL     1       3.968   4.118  17.212  0.00  0.00    +0.000 A 
ATOM     29  C   UNL     1       2.944   4.947  17.698  0.00  0.00    +0.000 A 
ENDBRANCH  22  24
ENDBRANCH   5  20
TORSDOF 4
ENDMDL
MODEL 9
REMARK VINA RESULT:      -8.1      3.030      8.674
REMARK  Name = 
REMARK  4 active torsions:
REMARK  status: ('A' for Active; 'I' for Inactive)
REMARK    1  A    between atoms: C_2  and  C_3
REMARK    2  A    between atoms: C_6  and  C_7
REMARK    3  A    between atoms: C_11  and  C_12
REMARK    4  A    between atoms: N_14  and  C_15
REMARK                            x       y       z     vdW  Elec       q    Type
REMARK                         _______ _______ _______ _____ _____    ______ ____
ROOT
ATOM      1  C   UNL     1       1.797   7.343  19.867  0.00  0.00    +0.000 C 
ATOM      2  O   UNL     1       1.202   6.461  20.486  0.00  0.00    +0.000 OA
ATOM      3  N   UNL     1       1.391   8.683  20.076  0.00  0.00    +0.000 N 
ATOM      4  N   UNL     1       1.675   9.656  19.140  0.00  0.00    +0.000 NA
ATOM      5  C   UNL     1       1.059  10.756  19.618  0.00  0.00    +0.000 A 
ATOM      6  C   UNL     1       0.444  10.513  20.881  0.00  0.00    +0.000 A 
ATOM      7  C   UNL     1      -0.278  11.296  21.806  0.00  0.00    +0.000 A 
ATOM      8  C   UNL     1      -0.704  10.732  23.007  0.00  0.00    +0.000 A 
ATOM      9  C   UNL     1      -0.424   9.401  23.291  0.00  0.00    +0.000 A 
ATOM     10  C   UNL     1       0.267   8.597  22.377  0.00  0.00    +0.000 A 
ATOM     11  C   UNL     1       0.686   9.178  21.165  0.00  0.00    +0.000 A 
ENDROOT
BRANCH   1  15
ATOM     12  C   UNL     1       5.172   6.258  17.465  0.00  0.00    +0.000 A 
ATOM     13  C   UNL     1       4.919   5.589  18.667  0.00  0.00    +0.000 A 
ATOM     14  C   UNL     1       3.798   5.927  19.432  0.00  0.00    +0.000 A 
ATOM     15  C   UNL     1       2.914   6.922  18.988  0.00  0.00    +0.000 A 
ATOM     16  C   UNL     1       3.178   7.599  17.792  0.00  0.00    +0.000 A 
ATOM     17  C   UNL     1       4.303   7.263  17.033  0.00  0.00    +0.000 A 
BRANCH  12  19
ATOM     18  N   UNL     1       7.261   5.652  16.053  0.00  0.00    +0.000 NA
ATOM     19  C   UNL     1       6.329   5.920  16.683  0.00  0.00    +0.000 C 
ENDBRANCH  12  19
ENDBRANCH   1  15
BRANCH   5  20
ATOM     20  C   UNL     1       1.030  12.078  18.958  0.00  0.00    +0.000 C 
ATOM     21  O   UNL     1       0.166  12.302  18.112  0.00  0.00    +0.000 OA
ATOM     22  N   UNL     1       2.031  12.975  19.297  0.00  0.00    +0.000 N 
ATOM     23  H   UNL     1       2.789  12.611  19.862  0.00  0.00    +0.000 HD
BRANCH  22  24
ATOM     24  C   UNL     1       2.167  14.252  18.689  0.00  0.00    +0.000 A 
ATOM     25  C   UNL     1       3.230  14.564  17.828  0.00  0.00    +0.000 A 
ATOM     26  C   UNL     1       3.434  15.861  17.359  0.00  0.00    +0.000 A 
ATOM     27  C   UNL     1       2.546  16.866  17.712  0.00  0.00    +0.000 A 
ATOM     28  C   UNL     1       1.438  16.561  18.503  0.00  0.00    +0.000 A 
ATOM     29  C   UNL     1       1.240  15.255  18.983  0.00  0.00    +0.000 A 
ENDBRANCH  22  24
ENDBRANCH   5  20
TORSDOF 4
ENDMDL
