MODEL 1
REMARK VINA RESULT:      -7.4      0.000      0.000
REMARK  Name = 
REMARK  7 active torsions:
REMARK  status: ('A' for Active; 'I' for Inactive)
REMARK    1  A    between atoms: C_1  and  C_2
REMARK    2  A    between atoms: C_6  and  C_7
REMARK    3  A    between atoms: C_14  and  C_15
REMARK    4  A    between atoms: N_17  and  S_18
REMARK    5  A    between atoms: S_18  and  C_21
REMARK    6  A    between atoms: N_24  and  C_25
REMARK    7  A    between atoms: C_25  and  C_26
REMARK                            x       y       z     vdW  Elec       q    Type
REMARK                         _______ _______ _______ _____ _____    ______ ____
ROOT
ATOM      1  C   UNL     1      -4.129  10.857  16.338  0.00  0.00    +0.000 C 
ATOM      2  C   UNL     1      -4.236  11.442  17.719  0.00  0.00    +0.000 A 
ATOM      3  C   UNL     1      -5.491  11.711  18.266  0.00  0.00    +0.000 A 
ATOM      4  C   UNL     1      -5.610  12.276  19.537  0.00  0.00    +0.000 A 
ATOM      5  C   UNL     1      -4.451  12.602  20.271  0.00  0.00    +0.000 A 
ATOM      6  C   UNL     1      -4.230  13.243  21.523  0.00  0.00    +0.000 A 
ATOM      7  C   UNL     1      -2.861  13.435  21.703  0.00  0.00    +0.000 A 
ATOM      8  N   UNL     1      -2.254  12.758  20.642  0.00  0.00    +0.000 N 
ATOM      9  C   UNL     1      -3.203  12.322  19.726  0.00  0.00    +0.000 A 
ATOM     10  C   UNL     1      -3.071  11.725  18.456  0.00  0.00    +0.000 A 
ENDROOT
BRANCH   6  11
ATOM     11  C   UNL     1      -5.289  13.723  22.354  0.00  0.00    +0.000 A 
ATOM     12  C   UNL     1      -6.080  14.757  22.010  0.00  0.00    +0.000 A 
ATOM     13  C   UNL     1      -7.162  15.195  22.859  0.00  0.00    +0.000 A 
ATOM     14  C   UNL     1      -7.416  14.549  24.003  0.00  0.00    +0.000 A 
ATOM     15  N   UNL     1      -6.642  13.487  24.383  0.00  0.00    +0.000 N 
ATOM     16  C   UNL     1      -5.563  13.024  23.664  0.00  0.00    +0.000 A 
ATOM     17  O   UNL     1      -4.848  12.125  24.095  0.00  0.00    +0.000 OA
ATOM     18  H   UNL     1      -6.820  13.013  25.262  0.00  0.00    +0.000 HD
ENDBRANCH   6  11
BRANCH   7  19
ATOM     19  C   UNL     1      -2.136  14.233  22.687  0.00  0.00    +0.000 C 
ATOM     20  O   UNL     1      -1.663  13.763  23.710  0.00  0.00    +0.000 OA
ATOM     21  N   UNL     1      -1.950  15.563  22.332  0.00  0.00    +0.000 N 
ATOM     22  H   UNL     1      -2.605  16.018  21.707  0.00  0.00    +0.000 HD
BRANCH  21  23
ATOM     23  S   UNL     1      -0.990  16.643  23.144  0.00  0.00    +0.000 S 
ATOM     24  O   UNL     1      -0.008  15.833  23.837  0.00  0.00    +0.000 OA
ATOM     25  O   UNL     1      -0.568  17.650  22.197  0.00  0.00    +0.000 OA
BRANCH  23  26
ATOM     26  C   UNL     1      -1.989  17.498  24.396  0.00  0.00    +0.000 C 
ATOM     27  C   UNL     1      -2.918  16.596  25.166  0.00  0.00    +0.000 C 
ATOM     28  C   UNL     1      -1.691  17.158  25.833  0.00  0.00    +0.000 C 
ENDBRANCH  23  26
ENDBRANCH  21  23
ENDBRANCH   7  19
BRANCH   8  29
ATOM     29  C   UNL     1      -0.812  12.531  20.486  0.00  0.00    +0.000 C 
BRANCH  29  30
ATOM     30  C   UNL     1      -0.335  11.193  20.993  0.00  0.00    +0.000 A 
ATOM     31  C   UNL     1      -0.399  10.793  22.337  0.00  0.00    +0.000 A 
ATOM     32  C   UNL     1       0.143   9.573  22.732  0.00  0.00    +0.000 A 
ATOM     33  F   UNL     1       0.104   9.228  24.025  0.00  0.00    +0.000 F 
ATOM     34  C   UNL     1       0.736   8.716  21.813  0.00  0.00    +0.000 A 
ATOM     35  C   UNL     1       0.762   9.074  20.468  0.00  0.00    +0.000 A 
ATOM     36  C   UNL     1       0.223  10.297  20.071  0.00  0.00    +0.000 A 
ATOM     37  F   UNL     1       0.264  10.626  18.772  0.00  0.00    +0.000 F 
ENDBRANCH  29  30
ENDBRANCH   8  29
TORSDOF 6
ENDMDL
MODEL 2
REMARK VINA RESULT:      -7.3      2.451      3.125
REMARK  Name = 
REMARK  7 active torsions:
REMARK  status: ('A' for Active; 'I' for Inactive)
REMARK    1  A    between atoms: C_1  and  C_2
REMARK    2  A    between atoms: C_6  and  C_7
REMARK    3  A    between atoms: C_14  and  C_15
REMARK    4  A    between atoms: N_17  and  S_18
REMARK    5  A    between atoms: S_18  and  C_21
REMARK    6  A    between atoms: N_24  and  C_25
REMARK    7  A    between atoms: C_25  and  C_26
REMARK                            x       y       z     vdW  Elec       q    Type
REMARK                         _______ _______ _______ _____ _____    ______ ____
ROOT
ATOM      1  C   UNL     1      -3.200  10.694  15.397  0.00  0.00    +0.000 C 
ATOM      2  C   UNL     1      -3.104  11.185  16.815  0.00  0.00    +0.000 A 
ATOM      3  C   UNL     1      -4.262  11.537  17.510  0.00  0.00    +0.000 A 
ATOM      4  C   UNL     1      -4.191  12.018  18.819  0.00  0.00    +0.000 A 
ATOM      5  C   UNL     1      -2.936  12.174  19.442  0.00  0.00    +0.000 A 
ATOM      6  C   UNL     1      -2.522  12.697  20.699  0.00  0.00    +0.000 A 
ATOM      7  C   UNL     1      -1.129  12.740  20.741  0.00  0.00    +0.000 A 
ATOM      8  N   UNL     1      -0.708  12.085  19.582  0.00  0.00    +0.000 N 
ATOM      9  C   UNL     1      -1.786  11.812  18.748  0.00  0.00    +0.000 A 
ATOM     10  C   UNL     1      -1.848  11.298  17.437  0.00  0.00    +0.000 A 
ENDROOT
BRANCH   6  11
ATOM     11  C   UNL     1      -3.434  13.219  21.668  0.00  0.00    +0.000 A 
ATOM     12  C   UNL     1      -3.940  12.478  22.672  0.00  0.00    +0.000 A 
ATOM     13  C   UNL     1      -4.834  13.046  23.653  0.00  0.00    +0.000 A 
ATOM     14  C   UNL     1      -5.152  14.344  23.594  0.00  0.00    +0.000 A 
ATOM     15  N   UNL     1      -4.651  15.133  22.595  0.00  0.00    +0.000 N 
ATOM     16  C   UNL     1      -3.828  14.674  21.591  0.00  0.00    +0.000 A 
ATOM     17  O   UNL     1      -3.479  15.404  20.669  0.00  0.00    +0.000 OA
ATOM     18  H   UNL     1      -4.911  16.111  22.536  0.00  0.00    +0.000 HD
ENDBRANCH   6  11
BRANCH   7  19
ATOM     19  C   UNL     1      -0.228  13.388  21.688  0.00  0.00    +0.000 C 
ATOM     20  O   UNL     1       0.060  12.908  22.773  0.00  0.00    +0.000 OA
ATOM     21  N   UNL     1       0.349  14.565  21.227  0.00  0.00    +0.000 N 
ATOM     22  H   UNL     1      -0.127  15.124  20.529  0.00  0.00    +0.000 HD
BRANCH  21  23
ATOM     23  S   UNL     1       1.563  15.396  21.991  0.00  0.00    +0.000 S 
ATOM     24  O   UNL     1       0.936  16.011  23.143  0.00  0.00    +0.000 OA
ATOM     25  O   UNL     1       2.674  14.487  22.162  0.00  0.00    +0.000 OA
BRANCH  23  26
ATOM     26  C   UNL     1       2.148  16.725  20.900  0.00  0.00    +0.000 C 
ATOM     27  C   UNL     1       3.316  17.504  21.447  0.00  0.00    +0.000 C 
ATOM     28  C   UNL     1       3.520  16.544  20.305  0.00  0.00    +0.000 C 
ENDBRANCH  23  26
ENDBRANCH  21  23
ENDBRANCH   7  19
BRANCH   8  29
ATOM     29  C   UNL     1       0.679  11.728  19.256  0.00  0.00    +0.000 C 
BRANCH  29  30
ATOM     30  C   UNL     1       1.038  10.294  19.556  0.00  0.00    +0.000 A 
ATOM     31  C   UNL     1       0.848   9.681  20.804  0.00  0.00    +0.000 A 
ATOM     32  C   UNL     1       1.287   8.377  21.020  0.00  0.00    +0.000 A 
ATOM     33  F   UNL     1       1.129   7.824  22.229  0.00  0.00    +0.000 F 
ATOM     34  C   UNL     1       1.900   7.647  20.009  0.00  0.00    +0.000 A 
ATOM     35  C   UNL     1       2.050   8.222  18.750  0.00  0.00    +0.000 A 
ATOM     36  C   UNL     1       1.614   9.529  18.534  0.00  0.00    +0.000 A 
ATOM     37  F   UNL     1       1.775  10.066  17.316  0.00  0.00    +0.000 F 
ENDBRANCH  29  30
ENDBRANCH   8  29
TORSDOF 6
ENDMDL
MODEL 3
REMARK VINA RESULT:      -7.3      1.009      1.210
REMARK  Name = 
REMARK  7 active torsions:
REMARK  status: ('A' for Active; 'I' for Inactive)
REMARK    1  A    between atoms: C_1  and  C_2
REMARK    2  A    between atoms: C_6  and  C_7
REMARK    3  A    between atoms: C_14  and  C_15
REMARK    4  A    between atoms: N_17  and  S_18
REMARK    5  A    between atoms: S_18  and  C_21
REMARK    6  A    between atoms: N_24  and  C_25
REMARK    7  A    between atoms: C_25  and  C_26
REMARK                            x       y       z     vdW  Elec       q    Type
REMARK                         _______ _______ _______ _____ _____    ______ ____
ROOT
ATOM      1  C   UNL     1      -4.154  11.008  16.077  0.00  0.00    +0.000 C 
ATOM      2  C   UNL     1      -4.350  11.479  17.491  0.00  0.00    +0.000 A 
ATOM      3  C   UNL     1      -5.640  11.642  17.998  0.00  0.00    +0.000 A 
ATOM      4  C   UNL     1      -5.842  12.102  19.301  0.00  0.00    +0.000 A 
ATOM      5  C   UNL     1      -4.734  12.427  20.110  0.00  0.00    +0.000 A 
ATOM      6  C   UNL     1      -4.600  12.980  21.415  0.00  0.00    +0.000 A 
ATOM      7  C   UNL     1      -3.252  13.225  21.672  0.00  0.00    +0.000 A 
ATOM      8  N   UNL     1      -2.566  12.663  20.593  0.00  0.00    +0.000 N 
ATOM      9  C   UNL     1      -3.451  12.252  19.603  0.00  0.00    +0.000 A 
ATOM     10  C   UNL     1      -3.234  11.762  18.300  0.00  0.00    +0.000 A 
ENDROOT
BRANCH   6  11
ATOM     11  C   UNL     1      -5.717  13.342  22.230  0.00  0.00    +0.000 A 
ATOM     12  C   UNL     1      -6.437  12.444  22.929  0.00  0.00    +0.000 A 
ATOM     13  C   UNL     1      -7.539  12.848  23.769  0.00  0.00    +0.000 A 
ATOM     14  C   UNL     1      -7.845  14.145  23.889  0.00  0.00    +0.000 A 
ATOM     15  N   UNL     1      -7.132  15.090  23.203  0.00  0.00    +0.000 N 
ATOM     16  C   UNL     1      -6.094  14.799  22.345  0.00  0.00    +0.000 A 
ATOM     17  O   UNL     1      -5.546  15.677  21.687  0.00  0.00    +0.000 OA
ATOM     18  H   UNL     1      -7.380  16.070  23.275  0.00  0.00    +0.000 HD
ENDBRANCH   6  11
BRANCH   7  19
ATOM     19  C   UNL     1      -2.613  13.980  22.745  0.00  0.00    +0.000 C 
ATOM     20  O   UNL     1      -2.266  13.475  23.801  0.00  0.00    +0.000 OA
ATOM     21  N   UNL     1      -2.350  15.310  22.442  0.00  0.00    +0.000 N 
ATOM     22  H   UNL     1      -2.921  15.798  21.761  0.00  0.00    +0.000 HD
BRANCH  21  23
ATOM     23  S   UNL     1      -1.450  16.342  23.376  0.00  0.00    +0.000 S 
ATOM     24  O   UNL     1      -0.170  15.684  23.546  0.00  0.00    +0.000 OA
ATOM     25  O   UNL     1      -1.522  17.653  22.770  0.00  0.00    +0.000 OA
BRANCH  23  26
ATOM     26  C   UNL     1      -2.223  16.487  25.012  0.00  0.00    +0.000 C 
ATOM     27  C   UNL     1      -1.520  15.713  26.098  0.00  0.00    +0.000 C 
ATOM     28  C   UNL     1      -1.427  17.215  26.063  0.00  0.00    +0.000 C 
ENDBRANCH  23  26
ENDBRANCH  21  23
ENDBRANCH   7  19
BRANCH   8  29
ATOM     29  C   UNL     1      -1.108  12.520  20.486  0.00  0.00    +0.000 C 
BRANCH  29  30
ATOM     30  C   UNL     1      -0.575  11.202  20.991  0.00  0.00    +0.000 A 
ATOM     31  C   UNL     1      -0.618  10.800  22.335  0.00  0.00    +0.000 A 
ATOM     32  C   UNL     1      -0.024   9.603  22.728  0.00  0.00    +0.000 A 
ATOM     33  F   UNL     1      -0.044   9.256  24.020  0.00  0.00    +0.000 F 
ATOM     34  C   UNL     1       0.601   8.772  21.806  0.00  0.00    +0.000 A 
ATOM     35  C   UNL     1       0.607   9.131  20.461  0.00  0.00    +0.000 A 
ATOM     36  C   UNL     1       0.016  10.331  20.066  0.00  0.00    +0.000 A 
ATOM     37  F   UNL     1       0.040  10.662  18.767  0.00  0.00    +0.000 F 
ENDBRANCH  29  30
ENDBRANCH   8  29
TORSDOF 6
ENDMDL
MODEL 4
REMARK VINA RESULT:      -7.2      1.438      1.699
REMARK  Name = 
REMARK  7 active torsions:
REMARK  status: ('A' for Active; 'I' for Inactive)
REMARK    1  A    between atoms: C_1  and  C_2
REMARK    2  A    between atoms: C_6  and  C_7
REMARK    3  A    between atoms: C_14  and  C_15
REMARK    4  A    between atoms: N_17  and  S_18
REMARK    5  A    between atoms: S_18  and  C_21
REMARK    6  A    between atoms: N_24  and  C_25
REMARK    7  A    between atoms: C_25  and  C_26
REMARK                            x       y       z     vdW  Elec       q    Type
REMARK                         _______ _______ _______ _____ _____    ______ ____
ROOT
ATOM      1  C   UNL     1      -3.041  10.451  15.126  0.00  0.00    +0.000 C 
ATOM      2  C   UNL     1      -3.453  10.975  16.474  0.00  0.00    +0.000 A 
ATOM      3  C   UNL     1      -4.806  11.122  16.781  0.00  0.00    +0.000 A 
ATOM      4  C   UNL     1      -5.207  11.629  18.019  0.00  0.00    +0.000 A 
ATOM      5  C   UNL     1      -4.237  12.020  18.964  0.00  0.00    +0.000 A 
ATOM      6  C   UNL     1      -4.307  12.631  20.248  0.00  0.00    +0.000 A 
ATOM      7  C   UNL     1      -3.017  12.925  20.686  0.00  0.00    +0.000 A 
ATOM      8  N   UNL     1      -2.168  12.338  19.745  0.00  0.00    +0.000 N 
ATOM      9  C   UNL     1      -2.889  11.861  18.658  0.00  0.00    +0.000 A 
ATOM     10  C   UNL     1      -2.474  11.323  17.423  0.00  0.00    +0.000 A 
ENDROOT
BRANCH   6  11
ATOM     11  C   UNL     1      -5.539  12.994  20.875  0.00  0.00    +0.000 A 
ATOM     12  C   UNL     1      -6.359  12.098  21.455  0.00  0.00    +0.000 A 
ATOM     13  C   UNL     1      -7.580  12.503  22.109  0.00  0.00    +0.000 A 
ATOM     14  C   UNL     1      -7.903  13.800  22.174  0.00  0.00    +0.000 A 
ATOM     15  N   UNL     1      -7.091  14.743  21.606  0.00  0.00    +0.000 N 
ATOM     16  C   UNL     1      -5.931  14.451  20.924  0.00  0.00    +0.000 A 
ATOM     17  O   UNL     1      -5.287  15.327  20.357  0.00  0.00    +0.000 OA
ATOM     18  H   UNL     1      -7.348  15.724  21.635  0.00  0.00    +0.000 HD
ENDBRANCH   6  11
BRANCH   7  19
ATOM     19  C   UNL     1      -2.558  13.741  21.806  0.00  0.00    +0.000 C 
ATOM     20  O   UNL     1      -2.411  13.303  22.936  0.00  0.00    +0.000 OA
ATOM     21  N   UNL     1      -2.220  15.046  21.471  0.00  0.00    +0.000 N 
ATOM     22  H   UNL     1      -2.653  15.495  20.672  0.00  0.00    +0.000 HD
BRANCH  21  23
ATOM     23  S   UNL     1      -1.474  16.129  22.482  0.00  0.00    +0.000 S 
ATOM     24  O   UNL     1      -0.737  15.319  23.430  0.00  0.00    +0.000 OA
ATOM     25  O   UNL     1      -0.784  17.094  21.655  0.00  0.00    +0.000 OA
BRANCH  23  26
ATOM     26  C   UNL     1      -2.741  17.049  23.401  0.00  0.00    +0.000 C 
ATOM     27  C   UNL     1      -3.782  16.179  24.057  0.00  0.00    +0.000 C 
ATOM     28  C   UNL     1      -2.740  16.870  24.897  0.00  0.00    +0.000 C 
ENDBRANCH  23  26
ENDBRANCH  21  23
ENDBRANCH   7  19
BRANCH   8  29
ATOM     29  C   UNL     1      -0.708  12.233  19.858  0.00  0.00    +0.000 C 
BRANCH  29  30
ATOM     30  C   UNL     1      -0.224  10.953  20.492  0.00  0.00    +0.000 A 
ATOM     31  C   UNL     1      -0.423  10.620  21.841  0.00  0.00    +0.000 A 
ATOM     32  C   UNL     1       0.132   9.456  22.366  0.00  0.00    +0.000 A 
ATOM     33  F   UNL     1      -0.039   9.176  23.664  0.00  0.00    +0.000 F 
ATOM     34  C   UNL     1       0.871   8.588  21.571  0.00  0.00    +0.000 A 
ATOM     35  C   UNL     1       1.035   8.877  20.219  0.00  0.00    +0.000 A 
ATOM     36  C   UNL     1       0.483  10.045  19.693  0.00  0.00    +0.000 A 
ATOM     37  F   UNL     1       0.658  10.308  18.390  0.00  0.00    +0.000 F 
ENDBRANCH  29  30
ENDBRANCH   8  29
TORSDOF 6
ENDMDL
MODEL 5
REMARK VINA RESULT:      -7.2      2.108      2.606
REMARK  Name = 
REMARK  7 active torsions:
REMARK  status: ('A' for Active; 'I' for Inactive)
REMARK    1  A    between atoms: C_1  and  C_2
REMARK    2  A    between atoms: C_6  and  C_7
REMARK    3  A    between atoms: C_14  and  C_15
REMARK    4  A    between atoms: N_17  and  S_18
REMARK    5  A    between atoms: S_18  and  C_21
REMARK    6  A    between atoms: N_24  and  C_25
REMARK    7  A    between atoms: C_25  and  C_26
REMARK                            x       y       z     vdW  Elec       q    Type
REMARK                         _______ _______ _______ _____ _____    ______ ____
ROOT
ATOM      1  C   UNL     1      -3.668  10.333  15.399  0.00  0.00    +0.000 C 
ATOM      2  C   UNL     1      -3.461  10.938  16.760  0.00  0.00    +0.000 A 
ATOM      3  C   UNL     1      -4.561  11.353  17.512  0.00  0.00    +0.000 A 
ATOM      4  C   UNL     1      -4.387  11.939  18.768  0.00  0.00    +0.000 A 
ATOM      5  C   UNL     1      -3.087  12.137  19.276  0.00  0.00    +0.000 A 
ATOM      6  C   UNL     1      -2.576  12.759  20.450  0.00  0.00    +0.000 A 
ATOM      7  C   UNL     1      -1.183  12.794  20.380  0.00  0.00    +0.000 A 
ATOM      8  N   UNL     1      -0.855  12.044  19.248  0.00  0.00    +0.000 N 
ATOM      9  C   UNL     1      -1.995  11.711  18.527  0.00  0.00    +0.000 A 
ATOM     10  C   UNL     1      -2.160  11.092  17.271  0.00  0.00    +0.000 A 
ENDROOT
BRANCH   6  11
ATOM     11  C   UNL     1      -3.409  13.364  21.441  0.00  0.00    +0.000 A 
ATOM     12  C   UNL     1      -4.089  14.506  21.229  0.00  0.00    +0.000 A 
ATOM     13  C   UNL     1      -4.949  15.072  22.241  0.00  0.00    +0.000 A 
ATOM     14  C   UNL     1      -5.106  14.442  23.411  0.00  0.00    +0.000 A 
ATOM     15  N   UNL     1      -4.440  13.274  23.662  0.00  0.00    +0.000 N 
ATOM     16  C   UNL     1      -3.567  12.681  22.778  0.00  0.00    +0.000 A 
ATOM     17  O   UNL     1      -2.927  11.680  23.088  0.00  0.00    +0.000 OA
ATOM     18  H   UNL     1      -4.541  12.810  24.558  0.00  0.00    +0.000 HD
ENDBRANCH   6  11
BRANCH   7  19
ATOM     19  C   UNL     1      -0.211  13.512  21.197  0.00  0.00    +0.000 C 
ATOM     20  O   UNL     1       0.568  12.953  21.953  0.00  0.00    +0.000 OA
ATOM     21  N   UNL     1      -0.179  14.885  20.989  0.00  0.00    +0.000 N 
ATOM     22  H   UNL     1      -1.008  15.368  20.661  0.00  0.00    +0.000 HD
BRANCH  21  23
ATOM     23  S   UNL     1       0.957  15.919  21.612  0.00  0.00    +0.000 S 
ATOM     24  O   UNL     1       0.837  15.795  23.050  0.00  0.00    +0.000 OA
ATOM     25  O   UNL     1       2.214  15.633  20.957  0.00  0.00    +0.000 OA
BRANCH  23  26
ATOM     26  C   UNL     1       0.517  17.623  21.162  0.00  0.00    +0.000 C 
ATOM     27  C   UNL     1       0.074  17.788  19.731  0.00  0.00    +0.000 C 
ATOM     28  C   UNL     1      -0.934  17.874  20.846  0.00  0.00    +0.000 C 
ENDBRANCH  23  26
ENDBRANCH  21  23
ENDBRANCH   7  19
BRANCH   8  29
ATOM     29  C   UNL     1       0.502  11.652  18.846  0.00  0.00    +0.000 C 
BRANCH  29  30
ATOM     30  C   UNL     1       0.910  10.273  19.301  0.00  0.00    +0.000 A 
ATOM     31  C   UNL     1       0.621   9.745  20.569  0.00  0.00    +0.000 A 
ATOM     32  C   UNL     1       1.111   8.495  20.938  0.00  0.00    +0.000 A 
ATOM     33  F   UNL     1       0.854   8.027  22.165  0.00  0.00    +0.000 F 
ATOM     34  C   UNL     1       1.874   7.733  20.061  0.00  0.00    +0.000 A 
ATOM     35  C   UNL     1       2.126   8.219  18.781  0.00  0.00    +0.000 A 
ATOM     36  C   UNL     1       1.639   9.472  18.412  0.00  0.00    +0.000 A 
ATOM     37  F   UNL     1       1.901   9.925  17.177  0.00  0.00    +0.000 F 
ENDBRANCH  29  30
ENDBRANCH   8  29
TORSDOF 6
ENDMDL
MODEL 6
REMARK VINA RESULT:      -7.2      1.451      1.870
REMARK  Name = 
REMARK  7 active torsions:
REMARK  status: ('A' for Active; 'I' for Inactive)
REMARK    1  A    between atoms: C_1  and  C_2
REMARK    2  A    between atoms: C_6  and  C_7
REMARK    3  A    between atoms: C_14  and  C_15
REMARK    4  A    between atoms: N_17  and  S_18
REMARK    5  A    between atoms: S_18  and  C_21
REMARK    6  A    between atoms: N_24  and  C_25
REMARK    7  A    between atoms: C_25  and  C_26
REMARK                            x       y       z     vdW  Elec       q    Type
REMARK                         _______ _______ _______ _____ _____    ______ ____
ROOT
ATOM      1  C   UNL     1      -2.692   9.791  15.197  0.00  0.00    +0.000 C 
ATOM      2  C   UNL     1      -3.071  10.554  16.436  0.00  0.00    +0.000 A 
ATOM      3  C   UNL     1      -4.410  10.852  16.688  0.00  0.00    +0.000 A 
ATOM      4  C   UNL     1      -4.779  11.580  17.821  0.00  0.00    +0.000 A 
ATOM      5  C   UNL     1      -3.788  12.042  18.711  0.00  0.00    +0.000 A 
ATOM      6  C   UNL     1      -3.820  12.854  19.880  0.00  0.00    +0.000 A 
ATOM      7  C   UNL     1      -2.513  13.116  20.291  0.00  0.00    +0.000 A 
ATOM      8  N   UNL     1      -1.707  12.322  19.472  0.00  0.00    +0.000 N 
ATOM      9  C   UNL     1      -2.455  11.734  18.461  0.00  0.00    +0.000 A 
ATOM     10  C   UNL     1      -2.074  10.974  17.336  0.00  0.00    +0.000 A 
ENDROOT
BRANCH   6  11
ATOM     11  C   UNL     1      -5.024  13.407  20.416  0.00  0.00    +0.000 A 
ATOM     12  C   UNL     1      -5.757  14.334  19.771  0.00  0.00    +0.000 A 
ATOM     13  C   UNL     1      -6.986  14.846  20.327  0.00  0.00    +0.000 A 
ATOM     14  C   UNL     1      -7.436  14.376  21.496  0.00  0.00    +0.000 A 
ATOM     15  N   UNL     1      -6.726  13.427  22.179  0.00  0.00    +0.000 N 
ATOM     16  C   UNL     1      -5.523  12.910  21.751  0.00  0.00    +0.000 A 
ATOM     17  O   UNL     1      -4.884  12.126  22.445  0.00  0.00    +0.000 OA
ATOM     18  H   UNL     1      -7.055  13.089  23.076  0.00  0.00    +0.000 HD
ENDBRANCH   6  11
BRANCH   7  19
ATOM     19  C   UNL     1      -2.000  14.064  21.275  0.00  0.00    +0.000 C 
ATOM     20  O   UNL     1      -0.963  14.689  21.122  0.00  0.00    +0.000 OA
ATOM     21  N   UNL     1      -2.829  14.266  22.372  0.00  0.00    +0.000 N 
ATOM     22  H   UNL     1      -3.466  13.535  22.668  0.00  0.00    +0.000 HD
BRANCH  21  23
ATOM     23  S   UNL     1      -2.611  15.431  23.531  0.00  0.00    +0.000 S 
ATOM     24  O   UNL     1      -1.519  14.950  24.353  0.00  0.00    +0.000 OA
ATOM     25  O   UNL     1      -2.510  16.705  22.855  0.00  0.00    +0.000 OA
BRANCH  23  26
ATOM     26  C   UNL     1      -4.096  15.515  24.572  0.00  0.00    +0.000 C 
ATOM     27  C   UNL     1      -4.355  16.875  25.168  0.00  0.00    +0.000 C 
ATOM     28  C   UNL     1      -5.227  16.364  24.052  0.00  0.00    +0.000 C 
ENDBRANCH  23  26
ENDBRANCH  21  23
ENDBRANCH   7  19
BRANCH   8  29
ATOM     29  C   UNL     1      -0.260  12.125  19.629  0.00  0.00    +0.000 C 
BRANCH  29  30
ATOM     30  C   UNL     1       0.117  10.891  20.410  0.00  0.00    +0.000 A 
ATOM     31  C   UNL     1      -0.105  10.732  21.786  0.00  0.00    +0.000 A 
ATOM     32  C   UNL     1       0.353   9.595  22.445  0.00  0.00    +0.000 A 
ATOM     33  F   UNL     1       0.163   9.481  23.765  0.00  0.00    +0.000 F 
ATOM     34  C   UNL     1       1.017   8.584  21.760  0.00  0.00    +0.000 A 
ATOM     35  C   UNL     1       1.200   8.701  20.386  0.00  0.00    +0.000 A 
ATOM     36  C   UNL     1       0.745   9.842  19.725  0.00  0.00    +0.000 A 
ATOM     37  F   UNL     1       0.939   9.938  18.401  0.00  0.00    +0.000 F 
ENDBRANCH  29  30
ENDBRANCH   8  29
TORSDOF 6
ENDMDL
MODEL 7
REMARK VINA RESULT:      -7.1      3.004      4.250
REMARK  Name = 
REMARK  7 active torsions:
REMARK  status: ('A' for Active; 'I' for Inactive)
REMARK    1  A    between atoms: C_1  and  C_2
REMARK    2  A    between atoms: C_6  and  C_7
REMARK    3  A    between atoms: C_14  and  C_15
REMARK    4  A    between atoms: N_17  and  S_18
REMARK    5  A    between atoms: S_18  and  C_21
REMARK    6  A    between atoms: N_24  and  C_25
REMARK    7  A    between atoms: C_25  and  C_26
REMARK                            x       y       z     vdW  Elec       q    Type
REMARK                         _______ _______ _______ _____ _____    ______ ____
ROOT
ATOM      1  C   UNL     1      -4.867  10.861  17.252  0.00  0.00    +0.000 C 
ATOM      2  C   UNL     1      -3.975  11.512  18.271  0.00  0.00    +0.000 A 
ATOM      3  C   UNL     1      -4.529  12.301  19.280  0.00  0.00    +0.000 A 
ATOM      4  C   UNL     1      -3.714  12.934  20.221  0.00  0.00    +0.000 A 
ATOM      5  C   UNL     1      -2.314  12.795  20.143  0.00  0.00    +0.000 A 
ATOM      6  C   UNL     1      -1.229  13.355  20.875  0.00  0.00    +0.000 A 
ATOM      7  C   UNL     1      -0.028  12.978  20.274  0.00  0.00    +0.000 A 
ATOM      8  N   UNL     1      -0.387  12.056  19.289  0.00  0.00    +0.000 N 
ATOM      9  C   UNL     1      -1.767  11.999  19.142  0.00  0.00    +0.000 A 
ATOM     10  C   UNL     1      -2.581  11.332  18.204  0.00  0.00    +0.000 A 
ENDROOT
BRANCH   6  11
ATOM     11  C   UNL     1      -1.406  14.272  21.957  0.00  0.00    +0.000 A 
ATOM     12  C   UNL     1      -1.596  15.592  21.776  0.00  0.00    +0.000 A 
ATOM     13  C   UNL     1      -1.806  16.485  22.891  0.00  0.00    +0.000 A 
ATOM     14  C   UNL     1      -1.844  15.999  24.137  0.00  0.00    +0.000 A 
ATOM     15  N   UNL     1      -1.665  14.662  24.362  0.00  0.00    +0.000 N 
ATOM     16  C   UNL     1      -1.417  13.740  23.370  0.00  0.00    +0.000 A 
ATOM     17  O   UNL     1      -1.175  12.567  23.635  0.00  0.00    +0.000 OA
ATOM     18  H   UNL     1      -1.671  14.297  25.308  0.00  0.00    +0.000 HD
ENDBRANCH   6  11
BRANCH   7  19
ATOM     19  C   UNL     1       1.332  13.460  20.490  0.00  0.00    +0.000 C 
ATOM     20  O   UNL     1       2.161  12.850  21.146  0.00  0.00    +0.000 OA
ATOM     21  N   UNL     1       1.644  14.636  19.818  0.00  0.00    +0.000 N 
ATOM     22  H   UNL     1       0.912  15.297  19.586  0.00  0.00    +0.000 HD
BRANCH  21  23
ATOM     23  S   UNL     1       3.159  15.297  19.704  0.00  0.00    +0.000 S 
ATOM     24  O   UNL     1       3.543  15.607  21.067  0.00  0.00    +0.000 OA
ATOM     25  O   UNL     1       3.967  14.404  18.904  0.00  0.00    +0.000 OA
BRANCH  23  26
ATOM     26  C   UNL     1       3.056  16.860  18.786  0.00  0.00    +0.000 C 
ATOM     27  C   UNL     1       2.919  16.692  17.295  0.00  0.00    +0.000 C 
ATOM     28  C   UNL     1       1.741  17.151  18.111  0.00  0.00    +0.000 C 
ENDBRANCH  23  26
ENDBRANCH  21  23
ENDBRANCH   7  19
BRANCH   8  29
ATOM     29  C   UNL     1       0.547  11.249  18.493  0.00  0.00    +0.000 C 
BRANCH  29  30
ATOM     30  C   UNL     1       0.960   9.953  19.145  0.00  0.00    +0.000 A 
ATOM     31  C   UNL     1       0.640   9.600  20.465  0.00  0.00    +0.000 A 
ATOM     32  C   UNL     1       1.135   8.422  21.016  0.00  0.00    +0.000 A 
ATOM     33  F   UNL     1       0.847   8.123  22.289  0.00  0.00    +0.000 F 
ATOM     34  C   UNL     1       1.933   7.559  20.275  0.00  0.00    +0.000 A 
ATOM     35  C   UNL     1       2.218   7.868  18.948  0.00  0.00    +0.000 A 
ATOM     36  C   UNL     1       1.726   9.050  18.396  0.00  0.00    +0.000 A 
ATOM     37  F   UNL     1       2.019   9.333  17.118  0.00  0.00    +0.000 F 
ENDBRANCH  29  30
ENDBRANCH   8  29
TORSDOF 6
ENDMDL
MODEL 8
REMARK VINA RESULT:      -7.0      3.198      6.213
REMARK  Name = 
REMARK  7 active torsions:
REMARK  status: ('A' for Active; 'I' for Inactive)
REMARK    1  A    between atoms: C_1  and  C_2
REMARK    2  A    between atoms: C_6  and  C_7
REMARK    3  A    between atoms: C_14  and  C_15
REMARK    4  A    between atoms: N_17  and  S_18
REMARK    5  A    between atoms: S_18  and  C_21
REMARK    6  A    between atoms: N_24  and  C_25
REMARK    7  A    between atoms: C_25  and  C_26
REMARK                            x       y       z     vdW  Elec       q    Type
REMARK                         _______ _______ _______ _____ _____    ______ ____
ROOT
ATOM      1  C   UNL     1      -6.479  11.182  17.967  0.00  0.00    +0.000 C 
ATOM      2  C   UNL     1      -5.002  11.131  18.245  0.00  0.00    +0.000 A 
ATOM      3  C   UNL     1      -4.238  10.071  17.757  0.00  0.00    +0.000 A 
ATOM      4  C   UNL     1      -2.869   9.995  18.024  0.00  0.00    +0.000 A 
ATOM      5  C   UNL     1      -2.253  10.986  18.816  0.00  0.00    +0.000 A 
ATOM      6  C   UNL     1      -0.935  11.155  19.326  0.00  0.00    +0.000 A 
ATOM      7  C   UNL     1      -0.913  12.259  20.178  0.00  0.00    +0.000 A 
ATOM      8  N   UNL     1      -2.171  12.849  20.044  0.00  0.00    +0.000 N 
ATOM      9  C   UNL     1      -3.018  12.046  19.291  0.00  0.00    +0.000 A 
ATOM     10  C   UNL     1      -4.394  12.149  19.002  0.00  0.00    +0.000 A 
ENDROOT
BRANCH   6  11
ATOM     11  C   UNL     1       0.123  10.225  19.086  0.00  0.00    +0.000 A 
ATOM     12  C   UNL     1       0.863  10.230  17.962  0.00  0.00    +0.000 A 
ATOM     13  C   UNL     1       1.947   9.297  17.766  0.00  0.00    +0.000 A 
ATOM     14  C   UNL     1       2.253   8.419  18.728  0.00  0.00    +0.000 A 
ATOM     15  N   UNL     1       1.531   8.388  19.890  0.00  0.00    +0.000 N 
ATOM     16  C   UNL     1       0.455   9.207  20.150  0.00  0.00    +0.000 A 
ATOM     17  O   UNL     1      -0.213   9.077  21.171  0.00  0.00    +0.000 OA
ATOM     18  H   UNL     1       1.748   7.707  20.609  0.00  0.00    +0.000 HD
ENDBRANCH   6  11
BRANCH   7  19
ATOM     19  C   UNL     1       0.110  12.714  21.114  0.00  0.00    +0.000 C 
ATOM     20  O   UNL     1       0.336  12.161  22.178  0.00  0.00    +0.000 OA
ATOM     21  N   UNL     1       0.873  13.785  20.663  0.00  0.00    +0.000 N 
ATOM     22  H   UNL     1       0.484  14.438  19.992  0.00  0.00    +0.000 HD
BRANCH  21  23
ATOM     23  S   UNL     1       2.231  14.371  21.411  0.00  0.00    +0.000 S 
ATOM     24  O   UNL     1       1.755  15.001  22.625  0.00  0.00    +0.000 OA
ATOM     25  O   UNL     1       3.193  13.294  21.476  0.00  0.00    +0.000 OA
BRANCH  23  26
ATOM     26  C   UNL     1       2.971  15.661  20.368  0.00  0.00    +0.000 C 
ATOM     27  C   UNL     1       4.069  16.444  21.040  0.00  0.00    +0.000 C 
ATOM     28  C   UNL     1       4.406  15.448  19.963  0.00  0.00    +0.000 C 
ENDBRANCH  23  26
ENDBRANCH  21  23
ENDBRANCH   7  19
BRANCH   8  29
ATOM     29  C   UNL     1      -2.577  14.139  20.619  0.00  0.00    +0.000 C 
BRANCH  29  30
ATOM     30  C   UNL     1      -3.554  14.030  21.762  0.00  0.00    +0.000 A 
ATOM     31  C   UNL     1      -3.367  13.201  22.879  0.00  0.00    +0.000 A 
ATOM     32  C   UNL     1      -4.361  13.095  23.849  0.00  0.00    +0.000 A 
ATOM     33  F   UNL     1      -4.178  12.270  24.887  0.00  0.00    +0.000 F 
ATOM     34  C   UNL     1      -5.544  13.818  23.750  0.00  0.00    +0.000 A 
ATOM     35  C   UNL     1      -5.723  14.685  22.676  0.00  0.00    +0.000 A 
ATOM     36  C   UNL     1      -4.730  14.789  21.701  0.00  0.00    +0.000 A 
ATOM     37  F   UNL     1      -4.926  15.623  20.670  0.00  0.00    +0.000 F 
ENDBRANCH  29  30
ENDBRANCH   8  29
TORSDOF 6
ENDMDL
MODEL 9
REMARK VINA RESULT:      -7.0      1.976      2.626
REMARK  Name = 
REMARK  7 active torsions:
REMARK  status: ('A' for Active; 'I' for Inactive)
REMARK    1  A    between atoms: C_1  and  C_2
REMARK    2  A    between atoms: C_6  and  C_7
REMARK    3  A    between atoms: C_14  and  C_15
REMARK    4  A    between atoms: N_17  and  S_18
REMARK    5  A    between atoms: S_18  and  C_21
REMARK    6  A    between atoms: N_24  and  C_25
REMARK    7  A    between atoms: C_25  and  C_26
REMARK                            x       y       z     vdW  Elec       q    Type
REMARK                         _______ _______ _______ _____ _____    ______ ____
ROOT
ATOM      1  C   UNL     1      -2.702  10.113  14.844  0.00  0.00    +0.000 C 
ATOM      2  C   UNL     1      -3.177  10.683  16.151  0.00  0.00    +0.000 A 
ATOM      3  C   UNL     1      -4.544  10.823  16.395  0.00  0.00    +0.000 A 
ATOM      4  C   UNL     1      -5.003  11.372  17.594  0.00  0.00    +0.000 A 
ATOM      5  C   UNL     1      -4.079  11.814  18.563  0.00  0.00    +0.000 A 
ATOM      6  C   UNL     1      -4.212  12.473  19.818  0.00  0.00    +0.000 A 
ATOM      7  C   UNL     1      -2.944  12.802  20.297  0.00  0.00    +0.000 A 
ATOM      8  N   UNL     1      -2.049  12.191  19.416  0.00  0.00    +0.000 N 
ATOM      9  C   UNL     1      -2.718  11.662  18.319  0.00  0.00    +0.000 A 
ATOM     10  C   UNL     1      -2.243  11.082  17.125  0.00  0.00    +0.000 A 
ENDROOT
BRANCH   6  11
ATOM     11  C   UNL     1      -5.473  12.843  20.378  0.00  0.00    +0.000 A 
ATOM     12  C   UNL     1      -6.056  12.164  21.384  0.00  0.00    +0.000 A 
ATOM     13  C   UNL     1      -7.316  12.586  21.948  0.00  0.00    +0.000 A 
ATOM     14  C   UNL     1      -7.916  13.691  21.491  0.00  0.00    +0.000 A 
ATOM     15  N   UNL     1      -7.351  14.414  20.477  0.00  0.00    +0.000 N 
ATOM     16  C   UNL     1      -6.176  14.068  19.846  0.00  0.00    +0.000 A 
ATOM     17  O   UNL     1      -5.760  14.702  18.882  0.00  0.00    +0.000 OA
ATOM     18  H   UNL     1      -7.817  15.238  20.114  0.00  0.00    +0.000 HD
ENDBRANCH   6  11
BRANCH   7  19
ATOM     19  C   UNL     1      -2.544  13.668  21.402  0.00  0.00    +0.000 C 
ATOM     20  O   UNL     1      -2.382  13.264  22.543  0.00  0.00    +0.000 OA
ATOM     21  N   UNL     1      -2.278  14.983  21.041  0.00  0.00    +0.000 N 
ATOM     22  H   UNL     1      -2.729  15.388  20.228  0.00  0.00    +0.000 HD
BRANCH  21  23
ATOM     23  S   UNL     1      -1.606  16.128  22.033  0.00  0.00    +0.000 S 
ATOM     24  O   UNL     1      -2.098  17.397  21.537  0.00  0.00    +0.000 OA
ATOM     25  O   UNL     1      -1.863  15.728  23.398  0.00  0.00    +0.000 OA
BRANCH  23  26
ATOM     26  C   UNL     1       0.198  16.110  21.821  0.00  0.00    +0.000 C 
ATOM     27  C   UNL     1       0.790  14.730  21.693  0.00  0.00    +0.000 C 
ATOM     28  C   UNL     1       0.707  15.628  20.488  0.00  0.00    +0.000 C 
ENDBRANCH  23  26
ENDBRANCH  21  23
ENDBRANCH   7  19
BRANCH   8  29
ATOM     29  C   UNL     1      -0.594  12.111  19.594  0.00  0.00    +0.000 C 
BRANCH  29  30
ATOM     30  C   UNL     1      -0.121  10.859  20.291  0.00  0.00    +0.000 A 
ATOM     31  C   UNL     1      -0.354  10.578  21.646  0.00  0.00    +0.000 A 
ATOM     32  C   UNL     1       0.193   9.438  22.230  0.00  0.00    +0.000 A 
ATOM     33  F   UNL     1      -0.012   9.208  23.533  0.00  0.00    +0.000 F 
ATOM     34  C   UNL     1       0.958   8.545  21.489  0.00  0.00    +0.000 A 
ATOM     35  C   UNL     1       1.156   8.783  20.132  0.00  0.00    +0.000 A 
ATOM     36  C   UNL     1       0.612   9.926  19.546  0.00  0.00    +0.000 A 
ATOM     37  F   UNL     1       0.821  10.139  18.239  0.00  0.00    +0.000 F 
ENDBRANCH  29  30
ENDBRANCH   8  29
TORSDOF 6
ENDMDL
