MODEL 1
REMARK VINA RESULT:      -7.1      0.000      0.000
REMARK  Name = 
REMARK  19 active torsions:
REMARK  status: ('A' for Active; 'I' for Inactive)
REMARK    1  A    between atoms: C_1  and  C_2
REMARK    2  A    between atoms: C_2  and  C_3
REMARK    3  A    between atoms: C_3  and  C_4
REMARK    4  A    between atoms: C_4  and  C_5
REMARK    5  A    between atoms: C_5  and  C_6
REMARK    6  A    between atoms: C_6  and  C_7
REMARK    7  A    between atoms: C_7  and  C_8
REMARK    8  A    between atoms: C_8  and  N_9
REMARK    9  A    between atoms: N_9  and  C_10
REMARK   10  A    between atoms: N_9  and  S_11
REMARK   11  A    between atoms: S_11  and  N_14
REMARK   12  A    between atoms: C_15  and  O_17
REMARK   13  A    between atoms: O_17  and  C_18
REMARK   14  A    between atoms: C_19  and  C_20
REMARK   15  A    between atoms: C_20  and  C_21
REMARK   16  A    between atoms: C_20  and  C_22
REMARK   17  A    between atoms: C_26  and  C_27
REMARK   18  A    between atoms: C_27  and  C_28
REMARK   19  A    between atoms: C_27  and  C_29
REMARK                            x       y       z     vdW  Elec       q    Type
REMARK                         _______ _______ _______ _____ _____    ______ ____
ROOT
ATOM      1  N   UNL     1       6.263   6.747  18.357  0.00  0.00    +0.000 N 
ATOM      2  C   UNL     1       5.590   5.693  19.023  0.00  0.00    +0.000 C 
ATOM      3  O   UNL     1       6.095   5.124  20.038  0.00  0.00    +0.000 OA
ATOM      4  H   UNL     1       7.052   7.122  18.877  0.00  0.00    +0.000 HD
ENDROOT
BRANCH   1   5
ATOM      5  S   UNL     1       6.681   6.566  16.717  0.00  0.00    +0.000 S 
ATOM      6  O   UNL     1       7.996   7.104  16.503  0.00  0.00    +0.000 OA
ATOM      7  O   UNL     1       5.531   6.973  15.937  0.00  0.00    +0.000 OA
BRANCH   5   8
ATOM      8  N   UNL     1       6.822   4.891  16.575  0.00  0.00    +0.000 NA
ATOM      9  C   UNL     1       7.841   4.305  17.454  0.00  0.00    +0.000 C 
BRANCH   8  10
ATOM     10  C   UNL     1       6.890   4.481  15.152  0.00  0.00    +0.000 C 
BRANCH  10  11
ATOM     11  C   UNL     1       5.538   4.179  14.522  0.00  0.00    +0.000 C 
BRANCH  11  12
ATOM     12  C   UNL     1       5.591   4.354  13.001  0.00  0.00    +0.000 C 
BRANCH  12  13
ATOM     13  C   UNL     1       5.975   3.041  12.317  0.00  0.00    +0.000 C 
BRANCH  13  14
ATOM     14  C   UNL     1       4.891   2.580  11.346  0.00  0.00    +0.000 C 
BRANCH  14  15
ATOM     15  C   UNL     1       4.134   3.777  10.774  0.00  0.00    +0.000 C 
BRANCH  15  17
ATOM     16  C   UNL     1       2.374   4.513   9.146  0.00  0.00    +0.000 C 
ATOM     17  C   UNL     1       2.979   3.330   9.884  0.00  0.00    +0.000 C 
ENDBRANCH  15  17
ENDBRANCH  14  15
ENDBRANCH  13  14
ENDBRANCH  12  13
ENDBRANCH  11  12
ENDBRANCH  10  11
ENDBRANCH   8  10
ENDBRANCH   5   8
ENDBRANCH   1   5
BRANCH   2  18
ATOM     18  O   UNL     1       4.373   5.347  18.468  0.00  0.00    +0.000 OA
BRANCH  18  19
ATOM     19  C   UNL     1       3.279   4.877  19.252  0.00  0.00    +0.000 A 
ATOM     20  C   UNL     1       2.376   5.828  19.796  0.00  0.00    +0.000 A 
ATOM     21  C   UNL     1       1.338   5.344  20.626  0.00  0.00    +0.000 A 
ATOM     22  C   UNL     1       1.144   3.987  20.842  0.00  0.00    +0.000 A 
ATOM     23  C   UNL     1       1.995   3.075  20.246  0.00  0.00    +0.000 A 
ATOM     24  C   UNL     1       3.071   3.480  19.437  0.00  0.00    +0.000 A 
BRANCH  20  25
ATOM     25  C   UNL     1       2.408   7.349  19.611  0.00  0.00    +0.000 C 
ATOM     26  C   UNL     1       2.106   7.791  18.174  0.00  0.00    +0.000 C 
ATOM     27  C   UNL     1       1.532   8.155  20.566  0.00  0.00    +0.000 C 
ENDBRANCH  20  25
BRANCH  24  28
ATOM     28  C   UNL     1       3.934   2.351  18.913  0.00  0.00    +0.000 C 
ATOM     29  C   UNL     1       4.521   1.555  20.073  0.00  0.00    +0.000 C 
ATOM     30  C   UNL     1       3.288   1.394  17.922  0.00  0.00    +0.000 C 
ENDBRANCH  24  28
ENDBRANCH  18  19
ENDBRANCH   2  18
TORSDOF 13
ENDMDL
MODEL 2
REMARK VINA RESULT:      -7.0      3.417      6.888
REMARK  Name = 
REMARK  19 active torsions:
REMARK  status: ('A' for Active; 'I' for Inactive)
REMARK    1  A    between atoms: C_1  and  C_2
REMARK    2  A    between atoms: C_2  and  C_3
REMARK    3  A    between atoms: C_3  and  C_4
REMARK    4  A    between atoms: C_4  and  C_5
REMARK    5  A    between atoms: C_5  and  C_6
REMARK    6  A    between atoms: C_6  and  C_7
REMARK    7  A    between atoms: C_7  and  C_8
REMARK    8  A    between atoms: C_8  and  N_9
REMARK    9  A    between atoms: N_9  and  C_10
REMARK   10  A    between atoms: N_9  and  S_11
REMARK   11  A    between atoms: S_11  and  N_14
REMARK   12  A    between atoms: C_15  and  O_17
REMARK   13  A    between atoms: O_17  and  C_18
REMARK   14  A    between atoms: C_19  and  C_20
REMARK   15  A    between atoms: C_20  and  C_21
REMARK   16  A    between atoms: C_20  and  C_22
REMARK   17  A    between atoms: C_26  and  C_27
REMARK   18  A    between atoms: C_27  and  C_28
REMARK   19  A    between atoms: C_27  and  C_29
REMARK                            x       y       z     vdW  Elec       q    Type
REMARK                         _______ _______ _______ _____ _____    ______ ____
ROOT
ATOM      1  N   UNL     1       5.585   4.122  16.114  0.00  0.00    +0.000 N 
ATOM      2  C   UNL     1       4.287   4.265  16.664  0.00  0.00    +0.000 C 
ATOM      3  O   UNL     1       3.270   3.760  16.099  0.00  0.00    +0.000 OA
ATOM      4  H   UNL     1       5.641   3.429  15.373  0.00  0.00    +0.000 HD
ENDROOT
BRANCH   1   5
ATOM      5  S   UNL     1       6.465   5.512  15.678  0.00  0.00    +0.000 S 
ATOM      6  O   UNL     1       5.590   6.651  15.702  0.00  0.00    +0.000 OA
ATOM      7  O   UNL     1       7.268   5.163  14.524  0.00  0.00    +0.000 OA
BRANCH   5   8
ATOM      8  N   UNL     1       7.514   5.687  16.988  0.00  0.00    +0.000 NA
ATOM      9  C   UNL     1       7.805   4.430  17.687  0.00  0.00    +0.000 C 
BRANCH   8  10
ATOM     10  C   UNL     1       7.101   6.819  17.853  0.00  0.00    +0.000 C 
BRANCH  10  11
ATOM     11  C   UNL     1       8.258   7.556  18.513  0.00  0.00    +0.000 C 
BRANCH  11  12
ATOM     12  C   UNL     1       8.415   8.964  17.930  0.00  0.00    +0.000 C 
BRANCH  12  13
ATOM     13  C   UNL     1       9.102   9.893  18.931  0.00  0.00    +0.000 C 
BRANCH  13  14
ATOM     14  C   UNL     1       9.640  11.149  18.248  0.00  0.00    +0.000 C 
BRANCH  14  15
ATOM     15  C   UNL     1       9.858  12.266  19.267  0.00  0.00    +0.000 C 
BRANCH  15  17
ATOM     16  C   UNL     1       9.478  12.589  21.725  0.00  0.00    +0.000 C 
ATOM     17  C   UNL     1      10.108  11.703  20.663  0.00  0.00    +0.000 C 
ENDBRANCH  15  17
ENDBRANCH  14  15
ENDBRANCH  13  14
ENDBRANCH  12  13
ENDBRANCH  11  12
ENDBRANCH  10  11
ENDBRANCH   8  10
ENDBRANCH   5   8
ENDBRANCH   1   5
BRANCH   2  18
ATOM     18  O   UNL     1       4.237   4.999  17.835  0.00  0.00    +0.000 OA
BRANCH  18  19
ATOM     19  C   UNL     1       3.296   4.726  18.870  0.00  0.00    +0.000 A 
ATOM     20  C   UNL     1       3.342   3.461  19.513  0.00  0.00    +0.000 A 
ATOM     21  C   UNL     1       2.356   3.186  20.490  0.00  0.00    +0.000 A 
ATOM     22  C   UNL     1       1.424   4.138  20.877  0.00  0.00    +0.000 A 
ATOM     23  C   UNL     1       1.441   5.387  20.286  0.00  0.00    +0.000 A 
ATOM     24  C   UNL     1       2.367   5.723  19.283  0.00  0.00    +0.000 A 
BRANCH  20  25
ATOM     25  C   UNL     1       4.336   2.323  19.251  0.00  0.00    +0.000 C 
ATOM     26  C   UNL     1       4.905   1.709  20.535  0.00  0.00    +0.000 C 
ATOM     27  C   UNL     1       3.837   1.198  18.348  0.00  0.00    +0.000 C 
ENDBRANCH  20  25
BRANCH  24  28
ATOM     28  C   UNL     1       2.204   7.114  18.706  0.00  0.00    +0.000 C 
ATOM     29  C   UNL     1       1.897   8.112  19.815  0.00  0.00    +0.000 C 
ATOM     30  C   UNL     1       3.348   7.643  17.854  0.00  0.00    +0.000 C 
ENDBRANCH  24  28
ENDBRANCH  18  19
ENDBRANCH   2  18
TORSDOF 13
ENDMDL
MODEL 3
REMARK VINA RESULT:      -6.9      1.212      3.521
REMARK  Name = 
REMARK  19 active torsions:
REMARK  status: ('A' for Active; 'I' for Inactive)
REMARK    1  A    between atoms: C_1  and  C_2
REMARK    2  A    between atoms: C_2  and  C_3
REMARK    3  A    between atoms: C_3  and  C_4
REMARK    4  A    between atoms: C_4  and  C_5
REMARK    5  A    between atoms: C_5  and  C_6
REMARK    6  A    between atoms: C_6  and  C_7
REMARK    7  A    between atoms: C_7  and  C_8
REMARK    8  A    between atoms: C_8  and  N_9
REMARK    9  A    between atoms: N_9  and  C_10
REMARK   10  A    between atoms: N_9  and  S_11
REMARK   11  A    between atoms: S_11  and  N_14
REMARK   12  A    between atoms: C_15  and  O_17
REMARK   13  A    between atoms: O_17  and  C_18
REMARK   14  A    between atoms: C_19  and  C_20
REMARK   15  A    between atoms: C_20  and  C_21
REMARK   16  A    between atoms: C_20  and  C_22
REMARK   17  A    between atoms: C_26  and  C_27
REMARK   18  A    between atoms: C_27  and  C_28
REMARK   19  A    between atoms: C_27  and  C_29
REMARK                            x       y       z     vdW  Elec       q    Type
REMARK                         _______ _______ _______ _____ _____    ______ ____
ROOT
ATOM      1  N   UNL     1       6.459   5.762  17.678  0.00  0.00    +0.000 N 
ATOM      2  C   UNL     1       5.556   5.523  18.745  0.00  0.00    +0.000 C 
ATOM      3  O   UNL     1       5.941   5.545  19.953  0.00  0.00    +0.000 OA
ATOM      4  H   UNL     1       7.353   6.142  17.976  0.00  0.00    +0.000 HD
ENDROOT
BRANCH   1   5
ATOM      5  S   UNL     1       6.704   4.554  16.504  0.00  0.00    +0.000 S 
ATOM      6  O   UNL     1       5.672   3.562  16.626  0.00  0.00    +0.000 OA
ATOM      7  O   UNL     1       8.114   4.226  16.520  0.00  0.00    +0.000 OA
BRANCH   5   8
ATOM      8  N   UNL     1       6.395   5.391  15.072  0.00  0.00    +0.000 NA
ATOM      9  C   UNL     1       5.392   6.453  15.211  0.00  0.00    +0.000 C 
BRANCH   8  10
ATOM     10  C   UNL     1       6.183   4.453  13.943  0.00  0.00    +0.000 C 
BRANCH  10  11
ATOM     11  C   UNL     1       6.920   4.835  12.667  0.00  0.00    +0.000 C 
BRANCH  11  12
ATOM     12  C   UNL     1       7.157   3.606  11.783  0.00  0.00    +0.000 C 
BRANCH  12  13
ATOM     13  C   UNL     1       6.157   2.497  12.116  0.00  0.00    +0.000 C 
BRANCH  13  14
ATOM     14  C   UNL     1       5.124   2.327  11.004  0.00  0.00    +0.000 C 
BRANCH  14  15
ATOM     15  C   UNL     1       3.820   3.037  11.365  0.00  0.00    +0.000 C 
BRANCH  15  17
ATOM     16  C   UNL     1       2.810   3.858   9.222  0.00  0.00    +0.000 C 
ATOM     17  C   UNL     1       3.583   4.249  10.471  0.00  0.00    +0.000 C 
ENDBRANCH  15  17
ENDBRANCH  14  15
ENDBRANCH  13  14
ENDBRANCH  12  13
ENDBRANCH  11  12
ENDBRANCH  10  11
ENDBRANCH   8  10
ENDBRANCH   5   8
ENDBRANCH   1   5
BRANCH   2  18
ATOM     18  O   UNL     1       4.258   5.258  18.350  0.00  0.00    +0.000 OA
BRANCH  18  19
ATOM     19  C   UNL     1       3.240   4.880  19.273  0.00  0.00    +0.000 A 
ATOM     20  C   UNL     1       3.155   3.520  19.670  0.00  0.00    +0.000 A 
ATOM     21  C   UNL     1       2.096   3.154  20.534  0.00  0.00    +0.000 A 
ATOM     22  C   UNL     1       1.214   4.094  21.050  0.00  0.00    +0.000 A 
ATOM     23  C   UNL     1       1.358   5.424  20.703  0.00  0.00    +0.000 A 
ATOM     24  C   UNL     1       2.364   5.859  19.823  0.00  0.00    +0.000 A 
BRANCH  20  25
ATOM     25  C   UNL     1       4.076   2.370  19.246  0.00  0.00    +0.000 C 
ATOM     26  C   UNL     1       4.743   1.660  20.429  0.00  0.00    +0.000 C 
ATOM     27  C   UNL     1       3.452   1.319  18.331  0.00  0.00    +0.000 C 
ENDBRANCH  20  25
BRANCH  24  28
ATOM     28  C   UNL     1       2.338   7.341  19.508  0.00  0.00    +0.000 C 
ATOM     29  C   UNL     1       2.012   7.561  18.036  0.00  0.00    +0.000 C 
ATOM     30  C   UNL     1       1.424   8.208  20.361  0.00  0.00    +0.000 C 
ENDBRANCH  24  28
ENDBRANCH  18  19
ENDBRANCH   2  18
TORSDOF 13
ENDMDL
MODEL 4
REMARK VINA RESULT:      -6.8      3.724      7.163
REMARK  Name = 
REMARK  19 active torsions:
REMARK  status: ('A' for Active; 'I' for Inactive)
REMARK    1  A    between atoms: C_1  and  C_2
REMARK    2  A    between atoms: C_2  and  C_3
REMARK    3  A    between atoms: C_3  and  C_4
REMARK    4  A    between atoms: C_4  and  C_5
REMARK    5  A    between atoms: C_5  and  C_6
REMARK    6  A    between atoms: C_6  and  C_7
REMARK    7  A    between atoms: C_7  and  C_8
REMARK    8  A    between atoms: C_8  and  N_9
REMARK    9  A    between atoms: N_9  and  C_10
REMARK   10  A    between atoms: N_9  and  S_11
REMARK   11  A    between atoms: S_11  and  N_14
REMARK   12  A    between atoms: C_15  and  O_17
REMARK   13  A    between atoms: O_17  and  C_18
REMARK   14  A    between atoms: C_19  and  C_20
REMARK   15  A    between atoms: C_20  and  C_21
REMARK   16  A    between atoms: C_20  and  C_22
REMARK   17  A    between atoms: C_26  and  C_27
REMARK   18  A    between atoms: C_27  and  C_28
REMARK   19  A    between atoms: C_27  and  C_29
REMARK                            x       y       z     vdW  Elec       q    Type
REMARK                         _______ _______ _______ _____ _____    ______ ____
ROOT
ATOM      1  N   UNL     1       5.921   4.046  17.490  0.00  0.00    +0.000 N 
ATOM      2  C   UNL     1       4.660   4.633  17.761  0.00  0.00    +0.000 C 
ATOM      3  O   UNL     1       3.906   5.041  16.826  0.00  0.00    +0.000 OA
ATOM      4  H   UNL     1       6.059   3.805  16.513  0.00  0.00    +0.000 HD
ENDROOT
BRANCH   1   5
ATOM      5  S   UNL     1       7.330   4.770  18.114  0.00  0.00    +0.000 S 
ATOM      6  O   UNL     1       8.479   4.206  17.461  0.00  0.00    +0.000 OA
ATOM      7  O   UNL     1       7.186   4.808  19.555  0.00  0.00    +0.000 OA
BRANCH   5   8
ATOM      8  N   UNL     1       7.188   6.353  17.549  0.00  0.00    +0.000 NA
ATOM      9  C   UNL     1       7.296   6.475  16.091  0.00  0.00    +0.000 C 
BRANCH   8  10
ATOM     10  C   UNL     1       8.044   7.277  18.334  0.00  0.00    +0.000 C 
BRANCH  10  11
ATOM     11  C   UNL     1       8.066   8.706  17.810  0.00  0.00    +0.000 C 
BRANCH  11  12
ATOM     12  C   UNL     1       8.855   9.621  18.752  0.00  0.00    +0.000 C 
BRANCH  12  13
ATOM     13  C   UNL     1       9.169  10.956  18.074  0.00  0.00    +0.000 C 
BRANCH  13  14
ATOM     14  C   UNL     1       9.342  12.075  19.099  0.00  0.00    +0.000 C 
BRANCH  14  15
ATOM     15  C   UNL     1      10.064  11.560  20.343  0.00  0.00    +0.000 C 
BRANCH  15  17
ATOM     16  C   UNL     1       9.718  13.948  21.026  0.00  0.00    +0.000 C 
ATOM     17  C   UNL     1       9.902  12.521  21.516  0.00  0.00    +0.000 C 
ENDBRANCH  15  17
ENDBRANCH  14  15
ENDBRANCH  13  14
ENDBRANCH  12  13
ENDBRANCH  11  12
ENDBRANCH  10  11
ENDBRANCH   8  10
ENDBRANCH   5   8
ENDBRANCH   1   5
BRANCH   2  18
ATOM     18  O   UNL     1       4.346   4.728  19.104  0.00  0.00    +0.000 OA
BRANCH  18  19
ATOM     19  C   UNL     1       3.038   4.464  19.606  0.00  0.00    +0.000 A 
ATOM     20  C   UNL     1       2.658   3.115  19.830  0.00  0.00    +0.000 A 
ATOM     21  C   UNL     1       1.333   2.871  20.264  0.00  0.00    +0.000 A 
ATOM     22  C   UNL     1       0.453   3.907  20.545  0.00  0.00    +0.000 A 
ATOM     23  C   UNL     1       0.868   5.215  20.384  0.00  0.00    +0.000 A 
ATOM     24  C   UNL     1       2.157   5.536  19.924  0.00  0.00    +0.000 A 
BRANCH  20  25
ATOM     25  C   UNL     1       3.519   1.862  19.630  0.00  0.00    +0.000 C 
ATOM     26  C   UNL     1       3.687   1.472  18.157  0.00  0.00    +0.000 C 
ATOM     27  C   UNL     1       4.893   1.885  20.293  0.00  0.00    +0.000 C 
ENDBRANCH  20  25
BRANCH  24  28
ATOM     28  C   UNL     1       2.421   7.017  19.751  0.00  0.00    +0.000 C 
ATOM     29  C   UNL     1       2.247   7.417  18.291  0.00  0.00    +0.000 C 
ATOM     30  C   UNL     1       1.621   7.966  20.631  0.00  0.00    +0.000 C 
ENDBRANCH  24  28
ENDBRANCH  18  19
ENDBRANCH   2  18
TORSDOF 13
ENDMDL
MODEL 5
REMARK VINA RESULT:      -6.6      3.600      6.265
REMARK  Name = 
REMARK  19 active torsions:
REMARK  status: ('A' for Active; 'I' for Inactive)
REMARK    1  A    between atoms: C_1  and  C_2
REMARK    2  A    between atoms: C_2  and  C_3
REMARK    3  A    between atoms: C_3  and  C_4
REMARK    4  A    between atoms: C_4  and  C_5
REMARK    5  A    between atoms: C_5  and  C_6
REMARK    6  A    between atoms: C_6  and  C_7
REMARK    7  A    between atoms: C_7  and  C_8
REMARK    8  A    between atoms: C_8  and  N_9
REMARK    9  A    between atoms: N_9  and  C_10
REMARK   10  A    between atoms: N_9  and  S_11
REMARK   11  A    between atoms: S_11  and  N_14
REMARK   12  A    between atoms: C_15  and  O_17
REMARK   13  A    between atoms: O_17  and  C_18
REMARK   14  A    between atoms: C_19  and  C_20
REMARK   15  A    between atoms: C_20  and  C_21
REMARK   16  A    between atoms: C_20  and  C_22
REMARK   17  A    between atoms: C_26  and  C_27
REMARK   18  A    between atoms: C_27  and  C_28
REMARK   19  A    between atoms: C_27  and  C_29
REMARK                            x       y       z     vdW  Elec       q    Type
REMARK                         _______ _______ _______ _____ _____    ______ ____
ROOT
ATOM      1  N   UNL     1       5.968   3.835  16.748  0.00  0.00    +0.000 N 
ATOM      2  C   UNL     1       4.692   3.994  17.346  0.00  0.00    +0.000 C 
ATOM      3  O   UNL     1       3.630   3.673  16.733  0.00  0.00    +0.000 OA
ATOM      4  H   UNL     1       5.955   3.269  15.903  0.00  0.00    +0.000 HD
ENDROOT
BRANCH   1   5
ATOM      5  S   UNL     1       6.959   5.199  16.518  0.00  0.00    +0.000 S 
ATOM      6  O   UNL     1       7.368   5.259  15.143  0.00  0.00    +0.000 OA
ATOM      7  O   UNL     1       7.899   5.231  17.619  0.00  0.00    +0.000 OA
BRANCH   5   8
ATOM      8  N   UNL     1       5.868   6.466  16.748  0.00  0.00    +0.000 NA
ATOM      9  C   UNL     1       5.330   7.019  15.500  0.00  0.00    +0.000 C 
BRANCH   8  10
ATOM     10  C   UNL     1       6.401   7.459  17.712  0.00  0.00    +0.000 C 
BRANCH  10  11
ATOM     11  C   UNL     1       7.655   8.180  17.238  0.00  0.00    +0.000 C 
BRANCH  11  12
ATOM     12  C   UNL     1       8.498   8.650  18.427  0.00  0.00    +0.000 C 
BRANCH  12  13
ATOM     13  C   UNL     1       8.813  10.142  18.313  0.00  0.00    +0.000 C 
BRANCH  13  14
ATOM     14  C   UNL     1       9.802  10.587  19.388  0.00  0.00    +0.000 C 
BRANCH  14  15
ATOM     15  C   UNL     1       9.535  12.034  19.802  0.00  0.00    +0.000 C 
BRANCH  15  17
ATOM     16  C   UNL     1      12.039  11.925  19.871  0.00  0.00    +0.000 C 
ATOM     17  C   UNL     1      10.810  12.717  20.285  0.00  0.00    +0.000 C 
ENDBRANCH  15  17
ENDBRANCH  14  15
ENDBRANCH  13  14
ENDBRANCH  12  13
ENDBRANCH  11  12
ENDBRANCH  10  11
ENDBRANCH   8  10
ENDBRANCH   5   8
ENDBRANCH   1   5
BRANCH   2  18
ATOM     18  O   UNL     1       4.720   4.529  18.621  0.00  0.00    +0.000 OA
BRANCH  18  19
ATOM     19  C   UNL     1       3.739   4.211  19.606  0.00  0.00    +0.000 A 
ATOM     20  C   UNL     1       2.812   5.215  19.989  0.00  0.00    +0.000 A 
ATOM     21  C   UNL     1       1.891   4.899  21.016  0.00  0.00    +0.000 A 
ATOM     22  C   UNL     1       1.829   3.632  21.578  0.00  0.00    +0.000 A 
ATOM     23  C   UNL     1       2.697   2.649  21.141  0.00  0.00    +0.000 A 
ATOM     24  C   UNL     1       3.662   2.897  20.150  0.00  0.00    +0.000 A 
BRANCH  20  25
ATOM     25  C   UNL     1       2.703   6.639  19.432  0.00  0.00    +0.000 C 
ATOM     26  C   UNL     1       2.218   6.686  17.978  0.00  0.00    +0.000 C 
ATOM     27  C   UNL     1       1.871   7.616  20.258  0.00  0.00    +0.000 C 
ENDBRANCH  20  25
BRANCH  24  28
ATOM     28  C   UNL     1       4.567   1.724  19.835  0.00  0.00    +0.000 C 
ATOM     29  C   UNL     1       5.027   1.052  21.123  0.00  0.00    +0.000 C 
ATOM     30  C   UNL     1       4.019   0.669  18.885  0.00  0.00    +0.000 C 
ENDBRANCH  24  28
ENDBRANCH  18  19
ENDBRANCH   2  18
TORSDOF 13
ENDMDL
MODEL 6
REMARK VINA RESULT:      -6.6      1.380      3.557
REMARK  Name = 
REMARK  19 active torsions:
REMARK  status: ('A' for Active; 'I' for Inactive)
REMARK    1  A    between atoms: C_1  and  C_2
REMARK    2  A    between atoms: C_2  and  C_3
REMARK    3  A    between atoms: C_3  and  C_4
REMARK    4  A    between atoms: C_4  and  C_5
REMARK    5  A    between atoms: C_5  and  C_6
REMARK    6  A    between atoms: C_6  and  C_7
REMARK    7  A    between atoms: C_7  and  C_8
REMARK    8  A    between atoms: C_8  and  N_9
REMARK    9  A    between atoms: N_9  and  C_10
REMARK   10  A    between atoms: N_9  and  S_11
REMARK   11  A    between atoms: S_11  and  N_14
REMARK   12  A    between atoms: C_15  and  O_17
REMARK   13  A    between atoms: O_17  and  C_18
REMARK   14  A    between atoms: C_19  and  C_20
REMARK   15  A    between atoms: C_20  and  C_21
REMARK   16  A    between atoms: C_20  and  C_22
REMARK   17  A    between atoms: C_26  and  C_27
REMARK   18  A    between atoms: C_27  and  C_28
REMARK   19  A    between atoms: C_27  and  C_29
REMARK                            x       y       z     vdW  Elec       q    Type
REMARK                         _______ _______ _______ _____ _____    ______ ____
ROOT
ATOM      1  N   UNL     1       5.830   4.073  17.443  0.00  0.00    +0.000 N 
ATOM      2  C   UNL     1       4.569   4.708  17.578  0.00  0.00    +0.000 C 
ATOM      3  O   UNL     1       3.826   4.922  16.573  0.00  0.00    +0.000 OA
ATOM      4  H   UNL     1       5.974   3.639  16.535  0.00  0.00    +0.000 HD
ENDROOT
BRANCH   1   5
ATOM      5  S   UNL     1       7.238   4.901  17.921  0.00  0.00    +0.000 S 
ATOM      6  O   UNL     1       8.374   4.040  17.745  0.00  0.00    +0.000 OA
ATOM      7  O   UNL     1       6.938   5.559  19.176  0.00  0.00    +0.000 OA
BRANCH   5   8
ATOM      8  N   UNL     1       7.358   6.098  16.739  0.00  0.00    +0.000 NA
ATOM      9  C   UNL     1       7.215   7.463  17.259  0.00  0.00    +0.000 C 
BRANCH   8  10
ATOM     10  C   UNL     1       6.516   5.770  15.562  0.00  0.00    +0.000 C 
BRANCH  10  11
ATOM     11  C   UNL     1       7.135   4.752  14.615  0.00  0.00    +0.000 C 
BRANCH  11  12
ATOM     12  C   UNL     1       6.052   3.902  13.942  0.00  0.00    +0.000 C 
BRANCH  12  13
ATOM     13  C   UNL     1       6.324   3.764  12.444  0.00  0.00    +0.000 C 
BRANCH  13  14
ATOM     14  C   UNL     1       6.088   2.334  11.964  0.00  0.00    +0.000 C 
BRANCH  14  15
ATOM     15  C   UNL     1       4.929   2.282  10.970  0.00  0.00    +0.000 C 
BRANCH  15  17
ATOM     16  C   UNL     1       3.192   3.800   9.986  0.00  0.00    +0.000 C 
ATOM     17  C   UNL     1       3.900   3.369  11.260  0.00  0.00    +0.000 C 
ENDBRANCH  15  17
ENDBRANCH  14  15
ENDBRANCH  13  14
ENDBRANCH  12  13
ENDBRANCH  11  12
ENDBRANCH  10  11
ENDBRANCH   8  10
ENDBRANCH   5   8
ENDBRANCH   1   5
BRANCH   2  18
ATOM     18  O   UNL     1       4.246   5.073  18.871  0.00  0.00    +0.000 OA
BRANCH  18  19
ATOM     19  C   UNL     1       3.148   4.498  19.577  0.00  0.00    +0.000 A 
ATOM     20  C   UNL     1       3.210   3.122  19.921  0.00  0.00    +0.000 A 
ATOM     21  C   UNL     1       2.082   2.557  20.561  0.00  0.00    +0.000 A 
ATOM     22  C   UNL     1       0.983   3.324  20.921  0.00  0.00    +0.000 A 
ATOM     23  C   UNL     1       0.975   4.677  20.636  0.00  0.00    +0.000 A 
ATOM     24  C   UNL     1       2.042   5.303  19.972  0.00  0.00    +0.000 A 
BRANCH  20  25
ATOM     25  C   UNL     1       4.364   2.149  19.654  0.00  0.00    +0.000 C 
ATOM     26  C   UNL     1       4.893   1.474  20.925  0.00  0.00    +0.000 C 
ATOM     27  C   UNL     1       4.100   1.076  18.602  0.00  0.00    +0.000 C 
ENDBRANCH  20  25
BRANCH  24  28
ATOM     28  C   UNL     1       1.839   6.778  19.689  0.00  0.00    +0.000 C 
ATOM     29  C   UNL     1       1.766   7.559  20.995  0.00  0.00    +0.000 C 
ATOM     30  C   UNL     1       2.843   7.444  18.760  0.00  0.00    +0.000 C 
ENDBRANCH  24  28
ENDBRANCH  18  19
ENDBRANCH   2  18
TORSDOF 13
ENDMDL
MODEL 7
REMARK VINA RESULT:      -6.5      1.395      1.762
REMARK  Name = 
REMARK  19 active torsions:
REMARK  status: ('A' for Active; 'I' for Inactive)
REMARK    1  A    between atoms: C_1  and  C_2
REMARK    2  A    between atoms: C_2  and  C_3
REMARK    3  A    between atoms: C_3  and  C_4
REMARK    4  A    between atoms: C_4  and  C_5
REMARK    5  A    between atoms: C_5  and  C_6
REMARK    6  A    between atoms: C_6  and  C_7
REMARK    7  A    between atoms: C_7  and  C_8
REMARK    8  A    between atoms: C_8  and  N_9
REMARK    9  A    between atoms: N_9  and  C_10
REMARK   10  A    between atoms: N_9  and  S_11
REMARK   11  A    between atoms: S_11  and  N_14
REMARK   12  A    between atoms: C_15  and  O_17
REMARK   13  A    between atoms: O_17  and  C_18
REMARK   14  A    between atoms: C_19  and  C_20
REMARK   15  A    between atoms: C_20  and  C_21
REMARK   16  A    between atoms: C_20  and  C_22
REMARK   17  A    between atoms: C_26  and  C_27
REMARK   18  A    between atoms: C_27  and  C_28
REMARK   19  A    between atoms: C_27  and  C_29
REMARK                            x       y       z     vdW  Elec       q    Type
REMARK                         _______ _______ _______ _____ _____    ______ ____
ROOT
ATOM      1  N   UNL     1       5.966   3.869  17.371  0.00  0.00    +0.000 N 
ATOM      2  C   UNL     1       4.676   4.458  17.372  0.00  0.00    +0.000 C 
ATOM      3  O   UNL     1       3.888   4.326  16.388  0.00  0.00    +0.000 OA
ATOM      4  H   UNL     1       6.104   3.189  16.628  0.00  0.00    +0.000 HD
ENDROOT
BRANCH   1   5
ATOM      5  S   UNL     1       7.339   4.865  17.510  0.00  0.00    +0.000 S 
ATOM      6  O   UNL     1       8.519   4.072  17.308  0.00  0.00    +0.000 OA
ATOM      7  O   UNL     1       7.143   5.698  18.678  0.00  0.00    +0.000 OA
BRANCH   5   8
ATOM      8  N   UNL     1       7.191   5.855  16.151  0.00  0.00    +0.000 NA
ATOM      9  C   UNL     1       6.323   7.020  16.358  0.00  0.00    +0.000 C 
BRANCH   8  10
ATOM     10  C   UNL     1       6.907   5.053  14.937  0.00  0.00    +0.000 C 
BRANCH  10  11
ATOM     11  C   UNL     1       8.026   5.061  13.906  0.00  0.00    +0.000 C 
BRANCH  11  12
ATOM     12  C   UNL     1       7.509   4.622  12.532  0.00  0.00    +0.000 C 
BRANCH  12  13
ATOM     13  C   UNL     1       6.338   3.650  12.679  0.00  0.00    +0.000 C 
BRANCH  13  14
ATOM     14  C   UNL     1       5.469   3.630  11.423  0.00  0.00    +0.000 C 
BRANCH  14  15
ATOM     15  C   UNL     1       4.043   3.199  11.760  0.00  0.00    +0.000 C 
BRANCH  15  17
ATOM     16  C   UNL     1       3.063   4.262   9.712  0.00  0.00    +0.000 C 
ATOM     17  C   UNL     1       3.219   2.971  10.497  0.00  0.00    +0.000 C 
ENDBRANCH  15  17
ENDBRANCH  14  15
ENDBRANCH  13  14
ENDBRANCH  12  13
ENDBRANCH  11  12
ENDBRANCH  10  11
ENDBRANCH   8  10
ENDBRANCH   5   8
ENDBRANCH   1   5
BRANCH   2  18
ATOM     18  O   UNL     1       4.376   5.179  18.513  0.00  0.00    +0.000 OA
BRANCH  18  19
ATOM     19  C   UNL     1       3.384   4.758  19.446  0.00  0.00    +0.000 A 
ATOM     20  C   UNL     1       2.484   5.727  19.963  0.00  0.00    +0.000 A 
ATOM     21  C   UNL     1       1.551   5.301  20.938  0.00  0.00    +0.000 A 
ATOM     22  C   UNL     1       1.451   3.972  21.323  0.00  0.00    +0.000 A 
ATOM     23  C   UNL     1       2.293   3.034  20.756  0.00  0.00    +0.000 A 
ATOM     24  C   UNL     1       3.268   3.386  19.807  0.00  0.00    +0.000 A 
BRANCH  20  25
ATOM     25  C   UNL     1       2.417   7.217  19.604  0.00  0.00    +0.000 C 
ATOM     26  C   UNL     1       2.134   7.470  18.119  0.00  0.00    +0.000 C 
ATOM     27  C   UNL     1       1.457   8.060  20.438  0.00  0.00    +0.000 C 
ENDBRANCH  20  25
BRANCH  24  28
ATOM     28  C   UNL     1       4.140   2.241  19.335  0.00  0.00    +0.000 C 
ATOM     29  C   UNL     1       4.861   1.606  20.517  0.00  0.00    +0.000 C 
ATOM     30  C   UNL     1       3.462   1.153  18.516  0.00  0.00    +0.000 C 
ENDBRANCH  24  28
ENDBRANCH  18  19
ENDBRANCH   2  18
TORSDOF 13
ENDMDL
MODEL 8
REMARK VINA RESULT:      -6.4      1.214      1.470
REMARK  Name = 
REMARK  19 active torsions:
REMARK  status: ('A' for Active; 'I' for Inactive)
REMARK    1  A    between atoms: C_1  and  C_2
REMARK    2  A    between atoms: C_2  and  C_3
REMARK    3  A    between atoms: C_3  and  C_4
REMARK    4  A    between atoms: C_4  and  C_5
REMARK    5  A    between atoms: C_5  and  C_6
REMARK    6  A    between atoms: C_6  and  C_7
REMARK    7  A    between atoms: C_7  and  C_8
REMARK    8  A    between atoms: C_8  and  N_9
REMARK    9  A    between atoms: N_9  and  C_10
REMARK   10  A    between atoms: N_9  and  S_11
REMARK   11  A    between atoms: S_11  and  N_14
REMARK   12  A    between atoms: C_15  and  O_17
REMARK   13  A    between atoms: O_17  and  C_18
REMARK   14  A    between atoms: C_19  and  C_20
REMARK   15  A    between atoms: C_20  and  C_21
REMARK   16  A    between atoms: C_20  and  C_22
REMARK   17  A    between atoms: C_26  and  C_27
REMARK   18  A    between atoms: C_27  and  C_28
REMARK   19  A    between atoms: C_27  and  C_29
REMARK                            x       y       z     vdW  Elec       q    Type
REMARK                         _______ _______ _______ _____ _____    ______ ____
ROOT
ATOM      1  N   UNL     1       6.856   5.495  18.347  0.00  0.00    +0.000 N 
ATOM      2  C   UNL     1       5.812   5.207  19.262  0.00  0.00    +0.000 C 
ATOM      3  O   UNL     1       6.058   4.816  20.443  0.00  0.00    +0.000 OA
ATOM      4  H   UNL     1       7.773   5.556  18.779  0.00  0.00    +0.000 HD
ENDROOT
BRANCH   1   5
ATOM      5  S   UNL     1       6.955   4.618  16.892  0.00  0.00    +0.000 S 
ATOM      6  O   UNL     1       5.818   3.747  16.786  0.00  0.00    +0.000 OA
ATOM      7  O   UNL     1       8.319   4.146  16.772  0.00  0.00    +0.000 OA
BRANCH   5   8
ATOM      8  N   UNL     1       6.737   5.830  15.738  0.00  0.00    +0.000 NA
ATOM      9  C   UNL     1       5.455   6.536  15.854  0.00  0.00    +0.000 C 
BRANCH   8  10
ATOM     10  C   UNL     1       7.078   5.341  14.381  0.00  0.00    +0.000 C 
BRANCH  10  11
ATOM     11  C   UNL     1       6.675   3.897  14.117  0.00  0.00    +0.000 C 
BRANCH  11  12
ATOM     12  C   UNL     1       5.292   3.827  13.461  0.00  0.00    +0.000 C 
BRANCH  12  13
ATOM     13  C   UNL     1       5.386   3.224  12.058  0.00  0.00    +0.000 C 
BRANCH  13  14
ATOM     14  C   UNL     1       4.340   3.825  11.122  0.00  0.00    +0.000 C 
BRANCH  14  15
ATOM     15  C   UNL     1       3.378   2.747  10.624  0.00  0.00    +0.000 C 
BRANCH  15  17
ATOM     16  C   UNL     1       2.753   4.747   9.248  0.00  0.00    +0.000 C 
ATOM     17  C   UNL     1       2.473   3.278   9.518  0.00  0.00    +0.000 C 
ENDBRANCH  15  17
ENDBRANCH  14  15
ENDBRANCH  13  14
ENDBRANCH  12  13
ENDBRANCH  11  12
ENDBRANCH  10  11
ENDBRANCH   8  10
ENDBRANCH   5   8
ENDBRANCH   1   5
BRANCH   2  18
ATOM     18  O   UNL     1       4.538   5.377  18.753  0.00  0.00    +0.000 OA
BRANCH  18  19
ATOM     19  C   UNL     1       3.376   4.897  19.423  0.00  0.00    +0.000 A 
ATOM     20  C   UNL     1       2.399   5.836  19.845  0.00  0.00    +0.000 A 
ATOM     21  C   UNL     1       1.285   5.345  20.567  0.00  0.00    +0.000 A 
ATOM     22  C   UNL     1       1.099   3.988  20.789  0.00  0.00    +0.000 A 
ATOM     23  C   UNL     1       2.029   3.085  20.309  0.00  0.00    +0.000 A 
ATOM     24  C   UNL     1       3.177   3.499  19.614  0.00  0.00    +0.000 A 
BRANCH  20  25
ATOM     25  C   UNL     1       2.418   7.355  19.631  0.00  0.00    +0.000 C 
ATOM     26  C   UNL     1       2.155   7.766  18.179  0.00  0.00    +0.000 C 
ATOM     27  C   UNL     1       1.505   8.167  20.545  0.00  0.00    +0.000 C 
ENDBRANCH  20  25
BRANCH  24  28
ATOM     28  C   UNL     1       4.117   2.381  19.212  0.00  0.00    +0.000 C 
ATOM     29  C   UNL     1       4.695   1.708  20.451  0.00  0.00    +0.000 C 
ATOM     30  C   UNL     1       3.560   1.319  18.276  0.00  0.00    +0.000 C 
ENDBRANCH  24  28
ENDBRANCH  18  19
ENDBRANCH   2  18
TORSDOF 13
ENDMDL
MODEL 9
REMARK VINA RESULT:      -6.4      3.589      6.963
REMARK  Name = 
REMARK  19 active torsions:
REMARK  status: ('A' for Active; 'I' for Inactive)
REMARK    1  A    between atoms: C_1  and  C_2
REMARK    2  A    between atoms: C_2  and  C_3
REMARK    3  A    between atoms: C_3  and  C_4
REMARK    4  A    between atoms: C_4  and  C_5
REMARK    5  A    between atoms: C_5  and  C_6
REMARK    6  A    between atoms: C_6  and  C_7
REMARK    7  A    between atoms: C_7  and  C_8
REMARK    8  A    between atoms: C_8  and  N_9
REMARK    9  A    between atoms: N_9  and  C_10
REMARK   10  A    between atoms: N_9  and  S_11
REMARK   11  A    between atoms: S_11  and  N_14
REMARK   12  A    between atoms: C_15  and  O_17
REMARK   13  A    between atoms: O_17  and  C_18
REMARK   14  A    between atoms: C_19  and  C_20
REMARK   15  A    between atoms: C_20  and  C_21
REMARK   16  A    between atoms: C_20  and  C_22
REMARK   17  A    between atoms: C_26  and  C_27
REMARK   18  A    between atoms: C_27  and  C_28
REMARK   19  A    between atoms: C_27  and  C_29
REMARK                            x       y       z     vdW  Elec       q    Type
REMARK                         _______ _______ _______ _____ _____    ______ ____
ROOT
ATOM      1  N   UNL     1       5.517   3.456  16.427  0.00  0.00    +0.000 N 
ATOM      2  C   UNL     1       4.276   3.983  16.866  0.00  0.00    +0.000 C 
ATOM      3  O   UNL     1       3.208   3.793  16.210  0.00  0.00    +0.000 OA
ATOM      4  H   UNL     1       5.429   2.768  15.684  0.00  0.00    +0.000 HD
ENDROOT
BRANCH   1   5
ATOM      5  S   UNL     1       6.801   4.519  16.086  0.00  0.00    +0.000 S 
ATOM      6  O   UNL     1       6.915   4.681  14.663  0.00  0.00    +0.000 OA
ATOM      7  O   UNL     1       7.915   4.123  16.922  0.00  0.00    +0.000 OA
BRANCH   5   8
ATOM      8  N   UNL     1       6.213   5.982  16.687  0.00  0.00    +0.000 NA
ATOM      9  C   UNL     1       5.737   6.902  15.647  0.00  0.00    +0.000 C 
BRANCH   8  10
ATOM     10  C   UNL     1       7.149   6.565  17.679  0.00  0.00    +0.000 C 
BRANCH  10  11
ATOM     11  C   UNL     1       7.490   8.028  17.432  0.00  0.00    +0.000 C 
BRANCH  11  12
ATOM     12  C   UNL     1       8.476   8.545  18.485  0.00  0.00    +0.000 C 
BRANCH  12  13
ATOM     13  C   UNL     1       8.840  10.006  18.217  0.00  0.00    +0.000 C 
BRANCH  13  14
ATOM     14  C   UNL     1       9.565  10.627  19.409  0.00  0.00    +0.000 C 
BRANCH  14  15
ATOM     15  C   UNL     1      10.768  11.445  18.942  0.00  0.00    +0.000 C 
BRANCH  15  17
ATOM     16  C   UNL     1      10.256  12.445  21.184  0.00  0.00    +0.000 C 
ATOM     17  C   UNL     1      11.243  12.404  20.029  0.00  0.00    +0.000 C 
ENDBRANCH  15  17
ENDBRANCH  14  15
ENDBRANCH  13  14
ENDBRANCH  12  13
ENDBRANCH  11  12
ENDBRANCH  10  11
ENDBRANCH   8  10
ENDBRANCH   5   8
ENDBRANCH   1   5
BRANCH   2  18
ATOM     18  O   UNL     1       4.345   4.714  18.038  0.00  0.00    +0.000 OA
BRANCH  18  19
ATOM     19  C   UNL     1       3.460   4.490  19.133  0.00  0.00    +0.000 A 
ATOM     20  C   UNL     1       3.553   3.263  19.840  0.00  0.00    +0.000 A 
ATOM     21  C   UNL     1       2.621   3.034  20.880  0.00  0.00    +0.000 A 
ATOM     22  C   UNL     1       1.698   3.997  21.261  0.00  0.00    +0.000 A 
ATOM     23  C   UNL     1       1.671   5.213  20.602  0.00  0.00    +0.000 A 
ATOM     24  C   UNL     1       2.542   5.501  19.537  0.00  0.00    +0.000 A 
BRANCH  20  25
ATOM     25  C   UNL     1       4.545   2.121  19.591  0.00  0.00    +0.000 C 
ATOM     26  C   UNL     1       5.062   1.475  20.881  0.00  0.00    +0.000 C 
ATOM     27  C   UNL     1       4.069   1.019  18.647  0.00  0.00    +0.000 C 
ENDBRANCH  20  25
BRANCH  24  28
ATOM     28  C   UNL     1       2.334   6.856  18.894  0.00  0.00    +0.000 C 
ATOM     29  C   UNL     1       1.804   7.851  19.919  0.00  0.00    +0.000 C 
ATOM     30  C   UNL     1       3.528   7.465  18.173  0.00  0.00    +0.000 C 
ENDBRANCH  24  28
ENDBRANCH  18  19
ENDBRANCH   2  18
TORSDOF 13
ENDMDL
