MODEL 1
REMARK VINA RESULT:      -8.2      0.000      0.000
REMARK  Name = 
REMARK  10 active torsions:
REMARK  status: ('A' for Active; 'I' for Inactive)
REMARK    1  A    between atoms: C_1  and  C_2
REMARK    2  A    between atoms: C_2  and  O_3
REMARK    3  A    between atoms: O_3  and  C_4
REMARK    4  A    between atoms: C_4  and  C_6
REMARK    5  A    between atoms: C_10  and  O_11
REMARK    6  A    between atoms: O_11  and  C_12
REMARK    7  A    between atoms: C_17  and  C_18
REMARK    8  A    between atoms: C_21  and  C_22
REMARK    9  A    between atoms: C_27  and  O_28
REMARK   10  A    between atoms: O_28  and  C_29
REMARK                            x       y       z     vdW  Elec       q    Type
REMARK                         _______ _______ _______ _____ _____    ______ ____
ROOT
ATOM      1  C   UNL     1       3.059   4.497  17.595  0.00  0.00    +0.000 A 
ATOM      2  C   UNL     1       3.895   3.627  16.921  0.00  0.00    +0.000 A 
ATOM      3  N   UNL     1       5.138   3.938  16.510  0.00  0.00    +0.000 NA
ATOM      4  C   UNL     1       5.641   5.157  16.785  0.00  0.00    +0.000 A 
ATOM      5  C   UNL     1       6.925   5.489  16.301  0.00  0.00    +0.000 A 
ATOM      6  C   UNL     1       7.499   6.735  16.561  0.00  0.00    +0.000 A 
ATOM      7  C   UNL     1       6.826   7.648  17.351  0.00  0.00    +0.000 A 
ATOM      8  C   UNL     1       5.570   7.324  17.859  0.00  0.00    +0.000 A 
ATOM      9  C   UNL     1       4.907   6.104  17.551  0.00  0.00    +0.000 A 
ATOM     10  C   UNL     1       3.556   5.768  17.963  0.00  0.00    +0.000 A 
ENDROOT
BRANCH  10  11
ATOM     11  C   UNL     1       2.719   6.705  18.764  0.00  0.00    +0.000 A 
ATOM     12  C   UNL     1       2.159   7.870  18.271  0.00  0.00    +0.000 A 
ATOM     13  N   UNL     1       1.470   8.775  19.002  0.00  0.00    +0.000 NA
ATOM     14  C   UNL     1       1.268   8.485  20.305  0.00  0.00    +0.000 A 
ATOM     15  N   UNL     1       1.676   7.339  20.864  0.00  0.00    +0.000 NA
ATOM     16  C   UNL     1       2.404   6.499  20.097  0.00  0.00    +0.000 A 
BRANCH  14  17
ATOM     17  C   UNL     1       0.604   9.514  21.141  0.00  0.00    +0.000 A 
ATOM     18  C   UNL     1      -0.092   9.106  22.304  0.00  0.00    +0.000 A 
ATOM     19  C   UNL     1      -0.800  10.005  23.102  0.00  0.00    +0.000 A 
ATOM     20  C   UNL     1      -0.825  11.350  22.766  0.00  0.00    +0.000 A 
ATOM     21  C   UNL     1      -0.135  11.795  21.641  0.00  0.00    +0.000 A 
ATOM     22  C   UNL     1       0.584  10.898  20.831  0.00  0.00    +0.000 A 
BRANCH  22  23
ATOM     23  O   UNL     1       1.193  11.318  19.674  0.00  0.00    +0.000 OA
ATOM     24  C   UNL     1       0.848  12.612  19.191  0.00  0.00    +0.000 C 
ENDBRANCH  22  23
ENDBRANCH  14  17
ENDBRANCH  10  11
BRANCH   1  25
ATOM     25  C   UNL     1       1.685   3.987  17.807  0.00  0.00    +0.000 C 
ATOM     26  O   UNL     1       0.711   4.406  17.203  0.00  0.00    +0.000 OA
BRANCH  25  27
ATOM     27  O   UNL     1       1.691   3.110  18.837  0.00  0.00    +0.000 OA
BRANCH  27  29
ATOM     28  C   UNL     1       1.399   2.998  21.261  0.00  0.00    +0.000 C 
ATOM     29  C   UNL     1       0.791   3.378  19.924  0.00  0.00    +0.000 C 
ENDBRANCH  27  29
ENDBRANCH  25  27
ENDBRANCH   1  25
BRANCH   5  30
ATOM     30  O   UNL     1       7.553   4.513  15.550  0.00  0.00    +0.000 OA
ATOM     31  C   UNL     1       7.439   4.586  14.136  0.00  0.00    +0.000 C 
ENDBRANCH   5  30
TORSDOF 7
ENDMDL
MODEL 2
REMARK VINA RESULT:      -8.1      2.539      4.798
REMARK  Name = 
REMARK  10 active torsions:
REMARK  status: ('A' for Active; 'I' for Inactive)
REMARK    1  A    between atoms: C_1  and  C_2
REMARK    2  A    between atoms: C_2  and  O_3
REMARK    3  A    between atoms: O_3  and  C_4
REMARK    4  A    between atoms: C_4  and  C_6
REMARK    5  A    between atoms: C_10  and  O_11
REMARK    6  A    between atoms: O_11  and  C_12
REMARK    7  A    between atoms: C_17  and  C_18
REMARK    8  A    between atoms: C_21  and  C_22
REMARK    9  A    between atoms: C_27  and  O_28
REMARK   10  A    between atoms: O_28  and  C_29
REMARK                            x       y       z     vdW  Elec       q    Type
REMARK                         _______ _______ _______ _____ _____    ______ ____
ROOT
ATOM      1  C   UNL     1       4.812   5.752  17.833  0.00  0.00    +0.000 A 
ATOM      2  C   UNL     1       5.526   4.568  17.833  0.00  0.00    +0.000 A 
ATOM      3  N   UNL     1       5.266   3.529  18.648  0.00  0.00    +0.000 NA
ATOM      4  C   UNL     1       4.231   3.603  19.508  0.00  0.00    +0.000 A 
ATOM      5  C   UNL     1       4.004   2.528  20.394  0.00  0.00    +0.000 A 
ATOM      6  C   UNL     1       2.942   2.548  21.301  0.00  0.00    +0.000 A 
ATOM      7  C   UNL     1       2.062   3.613  21.304  0.00  0.00    +0.000 A 
ATOM      8  C   UNL     1       2.258   4.669  20.416  0.00  0.00    +0.000 A 
ATOM      9  C   UNL     1       3.371   4.736  19.534  0.00  0.00    +0.000 A 
ATOM     10  C   UNL     1       3.679   5.863  18.672  0.00  0.00    +0.000 A 
ENDROOT
BRANCH  10  11
ATOM     11  C   UNL     1       2.832   7.088  18.641  0.00  0.00    +0.000 A 
ATOM     12  C   UNL     1       2.585   7.839  17.505  0.00  0.00    +0.000 A 
ATOM     13  N   UNL     1       1.892   8.999  17.473  0.00  0.00    +0.000 NA
ATOM     14  C   UNL     1       1.353   9.425  18.635  0.00  0.00    +0.000 A 
ATOM     15  N   UNL     1       1.442   8.725  19.774  0.00  0.00    +0.000 NA
ATOM     16  C   UNL     1       2.190   7.603  19.755  0.00  0.00    +0.000 A 
BRANCH  14  17
ATOM     17  C   UNL     1       0.677  10.745  18.635  0.00  0.00    +0.000 A 
ATOM     18  C   UNL     1       1.368  11.867  19.152  0.00  0.00    +0.000 A 
ATOM     19  C   UNL     1       0.774  13.126  19.250  0.00  0.00    +0.000 A 
ATOM     20  C   UNL     1      -0.532  13.305  18.821  0.00  0.00    +0.000 A 
ATOM     21  C   UNL     1      -1.238  12.230  18.286  0.00  0.00    +0.000 A 
ATOM     22  C   UNL     1      -0.649  10.958  18.180  0.00  0.00    +0.000 A 
BRANCH  22  23
ATOM     23  O   UNL     1      -1.369   9.878  17.733  0.00  0.00    +0.000 OA
ATOM     24  C   UNL     1      -2.788   9.981  17.772  0.00  0.00    +0.000 C 
ENDBRANCH  22  23
ENDBRANCH  14  17
ENDBRANCH  10  11
BRANCH   1  25
ATOM     25  C   UNL     1       5.376   6.808  16.962  0.00  0.00    +0.000 C 
ATOM     26  O   UNL     1       5.250   6.819  15.748  0.00  0.00    +0.000 OA
BRANCH  25  27
ATOM     27  O   UNL     1       6.133   7.643  17.710  0.00  0.00    +0.000 OA
BRANCH  27  29
ATOM     28  C   UNL     1       8.238   8.863  17.951  0.00  0.00    +0.000 C 
ATOM     29  C   UNL     1       7.555   7.579  17.519  0.00  0.00    +0.000 C 
ENDBRANCH  27  29
ENDBRANCH  25  27
ENDBRANCH   1  25
BRANCH   5  30
ATOM     30  O   UNL     1       4.902   1.482  20.310  0.00  0.00    +0.000 OA
ATOM     31  C   UNL     1       5.471   0.994  21.516  0.00  0.00    +0.000 C 
ENDBRANCH   5  30
TORSDOF 7
ENDMDL
MODEL 3
REMARK VINA RESULT:      -8.0      2.454      4.657
REMARK  Name = 
REMARK  10 active torsions:
REMARK  status: ('A' for Active; 'I' for Inactive)
REMARK    1  A    between atoms: C_1  and  C_2
REMARK    2  A    between atoms: C_2  and  O_3
REMARK    3  A    between atoms: O_3  and  C_4
REMARK    4  A    between atoms: C_4  and  C_6
REMARK    5  A    between atoms: C_10  and  O_11
REMARK    6  A    between atoms: O_11  and  C_12
REMARK    7  A    between atoms: C_17  and  C_18
REMARK    8  A    between atoms: C_21  and  C_22
REMARK    9  A    between atoms: C_27  and  O_28
REMARK   10  A    between atoms: O_28  and  C_29
REMARK                            x       y       z     vdW  Elec       q    Type
REMARK                         _______ _______ _______ _____ _____    ______ ____
ROOT
ATOM      1  C   UNL     1       4.777   5.731  17.795  0.00  0.00    +0.000 A 
ATOM      2  C   UNL     1       5.480   4.541  17.782  0.00  0.00    +0.000 A 
ATOM      3  N   UNL     1       5.234   3.509  18.610  0.00  0.00    +0.000 NA
ATOM      4  C   UNL     1       4.225   3.598  19.499  0.00  0.00    +0.000 A 
ATOM      5  C   UNL     1       4.014   2.530  20.398  0.00  0.00    +0.000 A 
ATOM      6  C   UNL     1       2.979   2.565  21.336  0.00  0.00    +0.000 A 
ATOM      7  C   UNL     1       2.109   3.639  21.356  0.00  0.00    +0.000 A 
ATOM      8  C   UNL     1       2.289   4.687  20.457  0.00  0.00    +0.000 A 
ATOM      9  C   UNL     1       3.377   4.739  19.543  0.00  0.00    +0.000 A 
ATOM     10  C   UNL     1       3.670   5.857  18.665  0.00  0.00    +0.000 A 
ENDROOT
BRANCH  10  11
ATOM     11  C   UNL     1       2.834   7.090  18.651  0.00  0.00    +0.000 A 
ATOM     12  C   UNL     1       2.228   7.637  19.768  0.00  0.00    +0.000 A 
ATOM     13  N   UNL     1       1.397   8.703  19.762  0.00  0.00    +0.000 NA
ATOM     14  C   UNL     1       1.188   9.312  18.575  0.00  0.00    +0.000 A 
ATOM     15  N   UNL     1       1.803   8.931  17.447  0.00  0.00    +0.000 NA
ATOM     16  C   UNL     1       2.580   7.829  17.507  0.00  0.00    +0.000 A 
BRANCH  14  17
ATOM     17  C   UNL     1       0.201  10.418  18.536  0.00  0.00    +0.000 A 
ATOM     18  C   UNL     1      -1.120  10.141  18.107  0.00  0.00    +0.000 A 
ATOM     19  C   UNL     1      -2.085  11.141  17.977  0.00  0.00    +0.000 A 
ATOM     20  C   UNL     1      -1.760  12.453  18.284  0.00  0.00    +0.000 A 
ATOM     21  C   UNL     1      -0.477  12.762  18.730  0.00  0.00    +0.000 A 
ATOM     22  C   UNL     1       0.502  11.763  18.867  0.00  0.00    +0.000 A 
BRANCH  22  23
ATOM     23  O   UNL     1       1.791  12.077  19.224  0.00  0.00    +0.000 OA
ATOM     24  C   UNL     1       2.573  12.791  18.273  0.00  0.00    +0.000 C 
ENDBRANCH  22  23
ENDBRANCH  14  17
ENDBRANCH  10  11
BRANCH   1  25
ATOM     25  C   UNL     1       5.326   6.776  16.901  0.00  0.00    +0.000 C 
ATOM     26  O   UNL     1       5.197   6.761  15.688  0.00  0.00    +0.000 OA
BRANCH  25  27
ATOM     27  O   UNL     1       6.073   7.637  17.631  0.00  0.00    +0.000 OA
BRANCH  27  29
ATOM     28  C   UNL     1       8.177   6.906  18.636  0.00  0.00    +0.000 C 
ATOM     29  C   UNL     1       7.496   7.572  17.455  0.00  0.00    +0.000 C 
ENDBRANCH  27  29
ENDBRANCH  25  27
ENDBRANCH   1  25
BRANCH   5  30
ATOM     30  O   UNL     1       4.900   1.475  20.294  0.00  0.00    +0.000 OA
ATOM     31  C   UNL     1       5.462   0.958  21.492  0.00  0.00    +0.000 C 
ENDBRANCH   5  30
TORSDOF 7
ENDMDL
MODEL 4
REMARK VINA RESULT:      -8.0      2.153      4.568
REMARK  Name = 
REMARK  10 active torsions:
REMARK  status: ('A' for Active; 'I' for Inactive)
REMARK    1  A    between atoms: C_1  and  C_2
REMARK    2  A    between atoms: C_2  and  O_3
REMARK    3  A    between atoms: O_3  and  C_4
REMARK    4  A    between atoms: C_4  and  C_6
REMARK    5  A    between atoms: C_10  and  O_11
REMARK    6  A    between atoms: O_11  and  C_12
REMARK    7  A    between atoms: C_17  and  C_18
REMARK    8  A    between atoms: C_21  and  C_22
REMARK    9  A    between atoms: C_27  and  O_28
REMARK   10  A    between atoms: O_28  and  C_29
REMARK                            x       y       z     vdW  Elec       q    Type
REMARK                         _______ _______ _______ _____ _____    ______ ____
ROOT
ATOM      1  C   UNL     1       4.345   5.715  17.260  0.00  0.00    +0.000 A 
ATOM      2  C   UNL     1       4.841   4.454  16.988  0.00  0.00    +0.000 A 
ATOM      3  N   UNL     1       4.364   3.321  17.535  0.00  0.00    +0.000 NA
ATOM      4  C   UNL     1       3.319   3.382  18.383  0.00  0.00    +0.000 A 
ATOM      5  C   UNL     1       2.865   2.192  18.992  0.00  0.00    +0.000 A 
ATOM      6  C   UNL     1       1.781   2.195  19.873  0.00  0.00    +0.000 A 
ATOM      7  C   UNL     1       1.102   3.374  20.119  0.00  0.00    +0.000 A 
ATOM      8  C   UNL     1       1.521   4.551  19.504  0.00  0.00    +0.000 A 
ATOM      9  C   UNL     1       2.670   4.615  18.668  0.00  0.00    +0.000 A 
ATOM     10  C   UNL     1       3.211   5.835  18.095  0.00  0.00    +0.000 A 
ENDROOT
BRANCH  10  11
ATOM     11  C   UNL     1       2.594   7.167  18.346  0.00  0.00    +0.000 A 
ATOM     12  C   UNL     1       2.198   7.622  19.591  0.00  0.00    +0.000 A 
ATOM     13  N   UNL     1       1.558   8.790  19.827  0.00  0.00    +0.000 NA
ATOM     14  C   UNL     1       1.341   9.597  18.767  0.00  0.00    +0.000 A 
ATOM     15  N   UNL     1       1.773   9.303  17.533  0.00  0.00    +0.000 NA
ATOM     16  C   UNL     1       2.358   8.101  17.351  0.00  0.00    +0.000 A 
BRANCH  14  17
ATOM     17  C   UNL     1       0.552  10.831  18.995  0.00  0.00    +0.000 A 
ATOM     18  C   UNL     1      -0.825  10.717  19.302  0.00  0.00    +0.000 A 
ATOM     19  C   UNL     1      -1.648  11.833  19.461  0.00  0.00    +0.000 A 
ATOM     20  C   UNL     1      -1.113  13.105  19.327  0.00  0.00    +0.000 A 
ATOM     21  C   UNL     1       0.242  13.260  19.046  0.00  0.00    +0.000 A 
ATOM     22  C   UNL     1       1.081  12.143  18.887  0.00  0.00    +0.000 A 
BRANCH  22  23
ATOM     23  O   UNL     1       2.398  12.290  18.525  0.00  0.00    +0.000 OA
ATOM     24  C   UNL     1       2.889  13.618  18.383  0.00  0.00    +0.000 C 
ENDBRANCH  22  23
ENDBRANCH  14  17
ENDBRANCH  10  11
BRANCH   1  25
ATOM     25  C   UNL     1       5.127   6.823  16.663  0.00  0.00    +0.000 C 
ATOM     26  O   UNL     1       5.120   7.086  15.472  0.00  0.00    +0.000 OA
BRANCH  25  27
ATOM     27  O   UNL     1       5.914   7.375  17.615  0.00  0.00    +0.000 OA
BRANCH  27  29
ATOM     28  C   UNL     1       8.020   8.598  17.818  0.00  0.00    +0.000 C 
ATOM     29  C   UNL     1       7.333   7.311  17.404  0.00  0.00    +0.000 C 
ENDBRANCH  27  29
ENDBRANCH  25  27
ENDBRANCH   1  25
BRANCH   5  30
ATOM     30  O   UNL     1       3.569   1.048  18.670  0.00  0.00    +0.000 OA
ATOM     31  C   UNL     1       4.663   0.684  19.500  0.00  0.00    +0.000 C 
ENDBRANCH   5  30
TORSDOF 7
ENDMDL
MODEL 5
REMARK VINA RESULT:      -8.0      2.267      4.583
REMARK  Name = 
REMARK  10 active torsions:
REMARK  status: ('A' for Active; 'I' for Inactive)
REMARK    1  A    between atoms: C_1  and  C_2
REMARK    2  A    between atoms: C_2  and  O_3
REMARK    3  A    between atoms: O_3  and  C_4
REMARK    4  A    between atoms: C_4  and  C_6
REMARK    5  A    between atoms: C_10  and  O_11
REMARK    6  A    between atoms: O_11  and  C_12
REMARK    7  A    between atoms: C_17  and  C_18
REMARK    8  A    between atoms: C_21  and  C_22
REMARK    9  A    between atoms: C_27  and  O_28
REMARK   10  A    between atoms: O_28  and  C_29
REMARK                            x       y       z     vdW  Elec       q    Type
REMARK                         _______ _______ _______ _____ _____    ______ ____
ROOT
ATOM      1  C   UNL     1       4.319   5.714  17.238  0.00  0.00    +0.000 A 
ATOM      2  C   UNL     1       4.797   4.444  16.977  0.00  0.00    +0.000 A 
ATOM      3  N   UNL     1       4.321   3.325  17.552  0.00  0.00    +0.000 NA
ATOM      4  C   UNL     1       3.293   3.409  18.418  0.00  0.00    +0.000 A 
ATOM      5  C   UNL     1       2.840   2.235  19.055  0.00  0.00    +0.000 A 
ATOM      6  C   UNL     1       1.773   2.262  19.956  0.00  0.00    +0.000 A 
ATOM      7  C   UNL     1       1.108   3.451  20.195  0.00  0.00    +0.000 A 
ATOM      8  C   UNL     1       1.527   4.614  19.553  0.00  0.00    +0.000 A 
ATOM      9  C   UNL     1       2.660   4.654  18.695  0.00  0.00    +0.000 A 
ATOM     10  C   UNL     1       3.202   5.858  18.091  0.00  0.00    +0.000 A 
ENDROOT
BRANCH  10  11
ATOM     11  C   UNL     1       2.601   7.200  18.332  0.00  0.00    +0.000 A 
ATOM     12  C   UNL     1       2.139   7.641  19.559  0.00  0.00    +0.000 A 
ATOM     13  N   UNL     1       1.514   8.819  19.780  0.00  0.00    +0.000 NA
ATOM     14  C   UNL     1       1.382   9.651  18.725  0.00  0.00    +0.000 A 
ATOM     15  N   UNL     1       1.883   9.371  17.514  0.00  0.00    +0.000 NA
ATOM     16  C   UNL     1       2.450   8.159  17.343  0.00  0.00    +0.000 A 
BRANCH  14  17
ATOM     17  C   UNL     1       0.610  10.901  18.929  0.00  0.00    +0.000 A 
ATOM     18  C   UNL     1       1.233  11.992  19.582  0.00  0.00    +0.000 A 
ATOM     19  C   UNL     1       0.551  13.173  19.873  0.00  0.00    +0.000 A 
ATOM     20  C   UNL     1      -0.780  13.306  19.507  0.00  0.00    +0.000 A 
ATOM     21  C   UNL     1      -1.423  12.263  18.844  0.00  0.00    +0.000 A 
ATOM     22  C   UNL     1      -0.744  11.069  18.544  0.00  0.00    +0.000 A 
BRANCH  22  23
ATOM     23  O   UNL     1      -1.398  10.007  17.968  0.00  0.00    +0.000 OA
ATOM     24  C   UNL     1      -2.782  10.173  17.682  0.00  0.00    +0.000 C 
ENDBRANCH  22  23
ENDBRANCH  14  17
ENDBRANCH  10  11
BRANCH   1  25
ATOM     25  C   UNL     1       5.099   6.804  16.607  0.00  0.00    +0.000 C 
ATOM     26  O   UNL     1       5.089   7.034  15.409  0.00  0.00    +0.000 OA
BRANCH  25  27
ATOM     27  O   UNL     1       5.888   7.383  17.542  0.00  0.00    +0.000 OA
BRANCH  27  29
ATOM     28  C   UNL     1       7.739   6.227  18.643  0.00  0.00    +0.000 C 
ATOM     29  C   UNL     1       7.293   7.091  17.478  0.00  0.00    +0.000 C 
ENDBRANCH  27  29
ENDBRANCH  25  27
ENDBRANCH   1  25
BRANCH   5  30
ATOM     30  O   UNL     1       3.528   1.078  18.740  0.00  0.00    +0.000 OA
ATOM     31  C   UNL     1       4.644   0.727  19.545  0.00  0.00    +0.000 C 
ENDBRANCH   5  30
TORSDOF 7
ENDMDL
MODEL 6
REMARK VINA RESULT:      -7.9      3.076      9.038
REMARK  Name = 
REMARK  10 active torsions:
REMARK  status: ('A' for Active; 'I' for Inactive)
REMARK    1  A    between atoms: C_1  and  C_2
REMARK    2  A    between atoms: C_2  and  O_3
REMARK    3  A    between atoms: O_3  and  C_4
REMARK    4  A    between atoms: C_4  and  C_6
REMARK    5  A    between atoms: C_10  and  O_11
REMARK    6  A    between atoms: O_11  and  C_12
REMARK    7  A    between atoms: C_17  and  C_18
REMARK    8  A    between atoms: C_21  and  C_22
REMARK    9  A    between atoms: C_27  and  O_28
REMARK   10  A    between atoms: O_28  and  C_29
REMARK                            x       y       z     vdW  Elec       q    Type
REMARK                         _______ _______ _______ _____ _____    ______ ____
ROOT
ATOM      1  C   UNL     1      -0.367  11.347  20.307  0.00  0.00    +0.000 A 
ATOM      2  C   UNL     1      -1.465  12.128  20.615  0.00  0.00    +0.000 A 
ATOM      3  N   UNL     1      -2.575  12.203  19.859  0.00  0.00    +0.000 NA
ATOM      4  C   UNL     1      -2.667  11.459  18.740  0.00  0.00    +0.000 A 
ATOM      5  C   UNL     1      -3.813  11.589  17.927  0.00  0.00    +0.000 A 
ATOM      6  C   UNL     1      -3.965  10.837  16.760  0.00  0.00    +0.000 A 
ATOM      7  C   UNL     1      -3.002   9.907  16.414  0.00  0.00    +0.000 A 
ATOM      8  C   UNL     1      -1.878   9.748  17.221  0.00  0.00    +0.000 A 
ATOM      9  C   UNL     1      -1.636  10.550  18.370  0.00  0.00    +0.000 A 
ATOM     10  C   UNL     1      -0.431  10.499  19.178  0.00  0.00    +0.000 A 
ENDROOT
BRANCH  10  11
ATOM     11  C   UNL     1       0.695   9.578  18.858  0.00  0.00    +0.000 A 
ATOM     12  C   UNL     1       1.484   9.672  17.726  0.00  0.00    +0.000 A 
ATOM     13  N   UNL     1       2.453   8.797  17.375  0.00  0.00    +0.000 NA
ATOM     14  C   UNL     1       2.704   7.783  18.231  0.00  0.00    +0.000 A 
ATOM     15  N   UNL     1       2.072   7.653  19.405  0.00  0.00    +0.000 NA
ATOM     16  C   UNL     1       1.079   8.527  19.675  0.00  0.00    +0.000 A 
BRANCH  14  17
ATOM     17  C   UNL     1       3.692   6.760  17.811  0.00  0.00    +0.000 A 
ATOM     18  C   UNL     1       5.005   7.173  17.478  0.00  0.00    +0.000 A 
ATOM     19  C   UNL     1       5.969   6.280  17.009  0.00  0.00    +0.000 A 
ATOM     20  C   UNL     1       5.651   4.938  16.868  0.00  0.00    +0.000 A 
ATOM     21  C   UNL     1       4.377   4.489  17.206  0.00  0.00    +0.000 A 
ATOM     22  C   UNL     1       3.398   5.379  17.682  0.00  0.00    +0.000 A 
BRANCH  22  23
ATOM     23  O   UNL     1       2.116   4.956  17.934  0.00  0.00    +0.000 OA
ATOM     24  C   UNL     1       1.885   3.551  17.941  0.00  0.00    +0.000 C 
ENDBRANCH  22  23
ENDBRANCH  14  17
ENDBRANCH  10  11
BRANCH   1  25
ATOM     25  C   UNL     1       0.796  11.544  21.203  0.00  0.00    +0.000 C 
ATOM     26  O   UNL     1       1.205  10.691  21.973  0.00  0.00    +0.000 OA
BRANCH  25  27
ATOM     27  O   UNL     1       1.217  12.827  21.108  0.00  0.00    +0.000 OA
BRANCH  27  29
ATOM     28  C   UNL     1       1.921  13.590  18.895  0.00  0.00    +0.000 C 
ATOM     29  C   UNL     1       2.347  13.079  20.258  0.00  0.00    +0.000 C 
ENDBRANCH  27  29
ENDBRANCH  25  27
ENDBRANCH   1  25
BRANCH   5  30
ATOM     30  O   UNL     1      -4.750  12.510  18.355  0.00  0.00    +0.000 OA
ATOM     31  C   UNL     1      -6.104  12.307  17.979  0.00  0.00    +0.000 C 
ENDBRANCH   5  30
TORSDOF 7
ENDMDL
MODEL 7
REMARK VINA RESULT:      -7.8      3.268      8.848
REMARK  Name = 
REMARK  10 active torsions:
REMARK  status: ('A' for Active; 'I' for Inactive)
REMARK    1  A    between atoms: C_1  and  C_2
REMARK    2  A    between atoms: C_2  and  O_3
REMARK    3  A    between atoms: O_3  and  C_4
REMARK    4  A    between atoms: C_4  and  C_6
REMARK    5  A    between atoms: C_10  and  O_11
REMARK    6  A    between atoms: O_11  and  C_12
REMARK    7  A    between atoms: C_17  and  C_18
REMARK    8  A    between atoms: C_21  and  C_22
REMARK    9  A    between atoms: C_27  and  O_28
REMARK   10  A    between atoms: O_28  and  C_29
REMARK                            x       y       z     vdW  Elec       q    Type
REMARK                         _______ _______ _______ _____ _____    ______ ____
ROOT
ATOM      1  C   UNL     1      -0.816  11.527  20.341  0.00  0.00    +0.000 A 
ATOM      2  C   UNL     1      -1.943  12.300  20.545  0.00  0.00    +0.000 A 
ATOM      3  N   UNL     1      -2.995  12.338  19.706  0.00  0.00    +0.000 NA
ATOM      4  C   UNL     1      -2.993  11.564  18.604  0.00  0.00    +0.000 A 
ATOM      5  C   UNL     1      -4.076  11.655  17.705  0.00  0.00    +0.000 A 
ATOM      6  C   UNL     1      -4.131  10.871  16.550  0.00  0.00    +0.000 A 
ATOM      7  C   UNL     1      -3.133   9.947  16.302  0.00  0.00    +0.000 A 
ATOM      8  C   UNL     1      -2.070   9.826  17.195  0.00  0.00    +0.000 A 
ATOM      9  C   UNL     1      -1.926  10.661  18.337  0.00  0.00    +0.000 A 
ATOM     10  C   UNL     1      -0.784  10.650  19.233  0.00  0.00    +0.000 A 
ENDROOT
BRANCH  10  11
ATOM     11  C   UNL     1       0.375   9.738  19.024  0.00  0.00    +0.000 A 
ATOM     12  C   UNL     1       1.166   9.727  17.889  0.00  0.00    +0.000 A 
ATOM     13  N   UNL     1       2.167   8.852  17.643  0.00  0.00    +0.000 NA
ATOM     14  C   UNL     1       2.448   7.953  18.610  0.00  0.00    +0.000 A 
ATOM     15  N   UNL     1       1.815   7.938  19.791  0.00  0.00    +0.000 NA
ATOM     16  C   UNL     1       0.791   8.802  19.957  0.00  0.00    +0.000 A 
BRANCH  14  17
ATOM     17  C   UNL     1       3.473   6.924  18.313  0.00  0.00    +0.000 A 
ATOM     18  C   UNL     1       4.300   7.089  17.176  0.00  0.00    +0.000 A 
ATOM     19  C   UNL     1       5.238   6.131  16.793  0.00  0.00    +0.000 A 
ATOM     20  C   UNL     1       5.387   4.975  17.544  0.00  0.00    +0.000 A 
ATOM     21  C   UNL     1       4.607   4.785  18.683  0.00  0.00    +0.000 A 
ATOM     22  C   UNL     1       3.660   5.746  19.080  0.00  0.00    +0.000 A 
BRANCH  22  23
ATOM     23  O   UNL     1       2.830   5.523  20.151  0.00  0.00    +0.000 OA
ATOM     24  C   UNL     1       2.085   4.310  20.155  0.00  0.00    +0.000 C 
ENDBRANCH  22  23
ENDBRANCH  14  17
ENDBRANCH  10  11
BRANCH   1  25
ATOM     25  C   UNL     1       0.275  11.765  21.315  0.00  0.00    +0.000 C 
ATOM     26  O   UNL     1       1.444  11.906  20.996  0.00  0.00    +0.000 OA
BRANCH  25  27
ATOM     27  O   UNL     1      -0.223  11.668  22.570  0.00  0.00    +0.000 OA
BRANCH  27  29
ATOM     28  C   UNL     1       0.215   9.407  23.390  0.00  0.00    +0.000 C 
ATOM     29  C   UNL     1      -0.823  10.416  22.936  0.00  0.00    +0.000 C 
ENDBRANCH  27  29
ENDBRANCH  25  27
ENDBRANCH   1  25
BRANCH   5  30
ATOM     30  O   UNL     1      -5.054  12.573  18.036  0.00  0.00    +0.000 OA
ATOM     31  C   UNL     1      -6.312  12.471  17.384  0.00  0.00    +0.000 C 
ENDBRANCH   5  30
TORSDOF 7
ENDMDL
MODEL 8
REMARK VINA RESULT:      -7.8      2.413      4.561
REMARK  Name = 
REMARK  10 active torsions:
REMARK  status: ('A' for Active; 'I' for Inactive)
REMARK    1  A    between atoms: C_1  and  C_2
REMARK    2  A    between atoms: C_2  and  O_3
REMARK    3  A    between atoms: O_3  and  C_4
REMARK    4  A    between atoms: C_4  and  C_6
REMARK    5  A    between atoms: C_10  and  O_11
REMARK    6  A    between atoms: O_11  and  C_12
REMARK    7  A    between atoms: C_17  and  C_18
REMARK    8  A    between atoms: C_21  and  C_22
REMARK    9  A    between atoms: C_27  and  O_28
REMARK   10  A    between atoms: O_28  and  C_29
REMARK                            x       y       z     vdW  Elec       q    Type
REMARK                         _______ _______ _______ _____ _____    ______ ____
ROOT
ATOM      1  C   UNL     1       4.603   5.820  17.774  0.00  0.00    +0.000 A 
ATOM      2  C   UNL     1       5.312   4.634  17.737  0.00  0.00    +0.000 A 
ATOM      3  N   UNL     1       5.080   3.590  18.553  0.00  0.00    +0.000 NA
ATOM      4  C   UNL     1       4.081   3.660  19.453  0.00  0.00    +0.000 A 
ATOM      5  C   UNL     1       3.885   2.579  20.339  0.00  0.00    +0.000 A 
ATOM      6  C   UNL     1       2.860   2.595  21.288  0.00  0.00    +0.000 A 
ATOM      7  C   UNL     1       1.984   3.664  21.333  0.00  0.00    +0.000 A 
ATOM      8  C   UNL     1       2.148   4.725  20.446  0.00  0.00    +0.000 A 
ATOM      9  C   UNL     1       3.226   4.796  19.522  0.00  0.00    +0.000 A 
ATOM     10  C   UNL     1       3.505   5.928  18.656  0.00  0.00    +0.000 A 
ENDROOT
BRANCH  10  11
ATOM     11  C   UNL     1       2.661   7.156  18.668  0.00  0.00    +0.000 A 
ATOM     12  C   UNL     1       2.319   7.880  17.540  0.00  0.00    +0.000 A 
ATOM     13  N   UNL     1       1.628   9.042  17.538  0.00  0.00    +0.000 NA
ATOM     14  C   UNL     1       1.193   9.499  18.731  0.00  0.00    +0.000 A 
ATOM     15  N   UNL     1       1.378   8.827  19.876  0.00  0.00    +0.000 NA
ATOM     16  C   UNL     1       2.119   7.701  19.820  0.00  0.00    +0.000 A 
BRANCH  14  17
ATOM     17  C   UNL     1       0.523  10.822  18.756  0.00  0.00    +0.000 A 
ATOM     18  C   UNL     1      -0.878  10.876  18.953  0.00  0.00    +0.000 A 
ATOM     19  C   UNL     1      -1.588  12.077  18.920  0.00  0.00    +0.000 A 
ATOM     20  C   UNL     1      -0.914  13.268  18.697  0.00  0.00    +0.000 A 
ATOM     21  C   UNL     1       0.467  13.258  18.520  0.00  0.00    +0.000 A 
ATOM     22  C   UNL     1       1.193  12.055  18.555  0.00  0.00    +0.000 A 
BRANCH  22  23
ATOM     23  O   UNL     1       2.542  12.032  18.295  0.00  0.00    +0.000 OA
ATOM     24  C   UNL     1       3.221  13.283  18.270  0.00  0.00    +0.000 C 
ENDBRANCH  22  23
ENDBRANCH  14  17
ENDBRANCH  10  11
BRANCH   1  25
ATOM     25  C   UNL     1       5.136   6.881  16.888  0.00  0.00    +0.000 C 
ATOM     26  O   UNL     1       4.948   6.911  15.683  0.00  0.00    +0.000 OA
BRANCH  25  27
ATOM     27  O   UNL     1       5.942   7.696  17.608  0.00  0.00    +0.000 OA
BRANCH  27  29
ATOM     28  C   UNL     1       8.050   6.913  18.565  0.00  0.00    +0.000 C 
ATOM     29  C   UNL     1       7.355   7.572  17.388  0.00  0.00    +0.000 C 
ENDBRANCH  27  29
ENDBRANCH  25  27
ENDBRANCH   1  25
BRANCH   5  30
ATOM     30  O   UNL     1       4.775   1.531  20.212  0.00  0.00    +0.000 OA
ATOM     31  C   UNL     1       5.409   1.049  21.389  0.00  0.00    +0.000 C 
ENDBRANCH   5  30
TORSDOF 7
ENDMDL
MODEL 9
REMARK VINA RESULT:      -7.8      0.875      1.210
REMARK  Name = 
REMARK  10 active torsions:
REMARK  status: ('A' for Active; 'I' for Inactive)
REMARK    1  A    between atoms: C_1  and  C_2
REMARK    2  A    between atoms: C_2  and  O_3
REMARK    3  A    between atoms: O_3  and  C_4
REMARK    4  A    between atoms: C_4  and  C_6
REMARK    5  A    between atoms: C_10  and  O_11
REMARK    6  A    between atoms: O_11  and  C_12
REMARK    7  A    between atoms: C_17  and  C_18
REMARK    8  A    between atoms: C_21  and  C_22
REMARK    9  A    between atoms: C_27  and  O_28
REMARK   10  A    between atoms: O_28  and  C_29
REMARK                            x       y       z     vdW  Elec       q    Type
REMARK                         _______ _______ _______ _____ _____    ______ ____
ROOT
ATOM      1  C   UNL     1       2.877   4.705  17.710  0.00  0.00    +0.000 A 
ATOM      2  C   UNL     1       3.634   3.757  17.048  0.00  0.00    +0.000 A 
ATOM      3  N   UNL     1       4.889   3.965  16.609  0.00  0.00    +0.000 NA
ATOM      4  C   UNL     1       5.486   5.150  16.841  0.00  0.00    +0.000 A 
ATOM      5  C   UNL     1       6.781   5.373  16.327  0.00  0.00    +0.000 A 
ATOM      6  C   UNL     1       7.450   6.581  16.543  0.00  0.00    +0.000 A 
ATOM      7  C   UNL     1       6.860   7.562  17.317  0.00  0.00    +0.000 A 
ATOM      8  C   UNL     1       5.592   7.346  17.854  0.00  0.00    +0.000 A 
ATOM      9  C   UNL     1       4.836   6.170  17.591  0.00  0.00    +0.000 A 
ATOM     10  C   UNL     1       3.472   5.946  18.034  0.00  0.00    +0.000 A 
ENDROOT
BRANCH  10  11
ATOM     11  C   UNL     1       2.720   6.963  18.820  0.00  0.00    +0.000 A 
ATOM     12  C   UNL     1       2.437   6.854  20.170  0.00  0.00    +0.000 A 
ATOM     13  N   UNL     1       1.684   7.723  20.882  0.00  0.00    +0.000 NA
ATOM     14  C   UNL     1       1.219   8.810  20.230  0.00  0.00    +0.000 A 
ATOM     15  N   UNL     1       1.516   9.069  18.950  0.00  0.00    +0.000 NA
ATOM     16  C   UNL     1       2.228   8.139  18.278  0.00  0.00    +0.000 A 
BRANCH  14  17
ATOM     17  C   UNL     1       0.309   9.716  20.971  0.00  0.00    +0.000 A 
ATOM     18  C   UNL     1       0.217   9.594  22.378  0.00  0.00    +0.000 A 
ATOM     19  C   UNL     1      -0.667  10.363  23.136  0.00  0.00    +0.000 A 
ATOM     20  C   UNL     1      -1.484  11.290  22.507  0.00  0.00    +0.000 A 
ATOM     21  C   UNL     1      -1.408  11.455  21.126  0.00  0.00    +0.000 A 
ATOM     22  C   UNL     1      -0.519  10.688  20.353  0.00  0.00    +0.000 A 
BRANCH  22  23
ATOM     23  O   UNL     1      -0.503  10.787  18.983  0.00  0.00    +0.000 OA
ATOM     24  C   UNL     1      -1.735  10.580  18.302  0.00  0.00    +0.000 C 
ENDBRANCH  22  23
ENDBRANCH  14  17
ENDBRANCH  10  11
BRANCH   1  25
ATOM     25  C   UNL     1       1.473   4.304  17.958  0.00  0.00    +0.000 C 
ATOM     26  O   UNL     1       0.624   4.248  17.083  0.00  0.00    +0.000 OA
BRANCH  25  27
ATOM     27  O   UNL     1       1.284   4.148  19.289  0.00  0.00    +0.000 OA
BRANCH  27  29
ATOM     28  C   UNL     1       1.887   2.648  21.121  0.00  0.00    +0.000 C 
ATOM     29  C   UNL     1       1.196   2.802  19.779  0.00  0.00    +0.000 C 
ENDBRANCH  27  29
ENDBRANCH  25  27
ENDBRANCH   1  25
BRANCH   5  30
ATOM     30  O   UNL     1       7.323   4.334  15.595  0.00  0.00    +0.000 OA
ATOM     31  C   UNL     1       7.107   4.326  14.191  0.00  0.00    +0.000 C 
ENDBRANCH   5  30
TORSDOF 7
ENDMDL
