MODEL 1
REMARK VINA RESULT:      -8.7      0.000      0.000
REMARK  Name = 
REMARK  4 active torsions:
REMARK  status: ('A' for Active; 'I' for Inactive)
REMARK    1  A    between atoms: C_1  and  N_2
REMARK    2  A    between atoms: C_4  and  C_5
REMARK    3  A    between atoms: C_12  and  N_13
REMARK    4  A    between atoms: N_19  and  C_20
REMARK                            x       y       z     vdW  Elec       q    Type
REMARK                         _______ _______ _______ _____ _____    ______ ____
ROOT
ATOM      1  N   UNL     1       1.076   9.299  19.499  0.00  0.00    +0.000 N 
ATOM      2  C   UNL     1       1.898   8.875  18.410  0.00  0.00    +0.000 C 
ATOM      3  O   UNL     1       1.947   9.526  17.382  0.00  0.00    +0.000 OA
ATOM      4  N   UNL     1       2.663   7.743  18.669  0.00  0.00    +0.000 N 
ATOM      5  C   UNL     1       3.530   7.345  17.552  0.00  0.00    +0.000 C 
ATOM      6  C   UNL     1       4.510   6.193  17.874  0.00  0.00    +0.000 C 
ATOM      7  N   UNL     1       3.896   5.017  18.550  0.00  0.00    +0.000 NA
ATOM      8  C   UNL     1       3.224   5.543  19.757  0.00  0.00    +0.000 C 
ATOM      9  C   UNL     1       2.162   6.635  19.492  0.00  0.00    +0.000 C 
ATOM     10  H   UNL     1       1.277   8.940  20.419  0.00  0.00    +0.000 HD
ENDROOT
BRANCH   1  16
ATOM     11  C   UNL     1       1.289  12.317  20.248  0.00  0.00    +0.000 C 
ATOM     12  N   UNL     1       0.151  11.601  19.725  0.00  0.00    +0.000 N 
ATOM     13  N   UNL     1      -0.984  12.287  19.508  0.00  0.00    +0.000 NA
ATOM     14  C   UNL     1      -1.830  11.387  18.979  0.00  0.00    +0.000 A 
ATOM     15  C   UNL     1      -1.197  10.117  18.880  0.00  0.00    +0.000 A 
ATOM     16  C   UNL     1       0.082  10.275  19.366  0.00  0.00    +0.000 A 
BRANCH  14  17
ATOM     17  C   UNL     1      -3.206  11.717  18.582  0.00  0.00    +0.000 A 
ATOM     18  C   UNL     1      -3.683  11.438  17.302  0.00  0.00    +0.000 A 
ATOM     19  C   UNL     1      -4.996  11.776  16.986  0.00  0.00    +0.000 A 
ATOM     20  C   UNL     1      -5.795  12.377  17.952  0.00  0.00    +0.000 A 
ATOM     21  C   UNL     1      -5.241  12.617  19.201  0.00  0.00    +0.000 A 
ATOM     22  N   UNL     1      -3.974  12.301  19.541  0.00  0.00    +0.000 NA
ENDBRANCH  14  17
ENDBRANCH   1  16
BRANCH   7  23
ATOM     23  C   UNL     1       3.041   4.216  17.630  0.00  0.00    +0.000 C 
ATOM     24  C   UNL     1       3.584   2.776  17.453  0.00  0.00    +0.000 C 
ATOM     25  C   UNL     1       3.366   1.887  18.675  0.00  0.00    +0.000 C 
ATOM     26  C   UNL     1       1.893   1.779  19.042  0.00  0.00    +0.000 C 
ATOM     27  C   UNL     1       1.199   3.135  19.135  0.00  0.00    +0.000 C 
ATOM     28  C   UNL     1       1.538   4.089  17.989  0.00  0.00    +0.000 C 
ENDBRANCH   7  23
TORSDOF 3
ENDMDL
MODEL 2
REMARK VINA RESULT:      -8.1      7.193      9.188
REMARK  Name = 
REMARK  4 active torsions:
REMARK  status: ('A' for Active; 'I' for Inactive)
REMARK    1  A    between atoms: C_1  and  N_2
REMARK    2  A    between atoms: C_4  and  C_5
REMARK    3  A    between atoms: C_12  and  N_13
REMARK    4  A    between atoms: N_19  and  C_20
REMARK                            x       y       z     vdW  Elec       q    Type
REMARK                         _______ _______ _______ _____ _____    ______ ____
ROOT
ATOM      1  N   UNL     1       9.231   9.259  19.150  0.00  0.00    +0.000 N 
ATOM      2  C   UNL     1       8.243   8.993  18.154  0.00  0.00    +0.000 C 
ATOM      3  O   UNL     1       7.769   9.901  17.494  0.00  0.00    +0.000 OA
ATOM      4  N   UNL     1       7.957   7.645  17.968  0.00  0.00    +0.000 N 
ATOM      5  C   UNL     1       6.968   7.388  16.913  0.00  0.00    +0.000 C 
ATOM      6  C   UNL     1       6.757   5.895  16.574  0.00  0.00    +0.000 C 
ATOM      7  N   UNL     1       6.560   5.005  17.751  0.00  0.00    +0.000 NA
ATOM      8  C   UNL     1       7.726   5.227  18.632  0.00  0.00    +0.000 C 
ATOM      9  C   UNL     1       7.935   6.691  19.084  0.00  0.00    +0.000 C 
ATOM     10  H   UNL     1       9.819   8.500  19.457  0.00  0.00    +0.000 HD
ENDROOT
BRANCH   1  16
ATOM     11  C   UNL     1      10.943  11.471  17.774  0.00  0.00    +0.000 C 
ATOM     12  N   UNL     1      10.278  11.517  19.054  0.00  0.00    +0.000 N 
ATOM     13  N   UNL     1      10.375  12.646  19.777  0.00  0.00    +0.000 NA
ATOM     14  C   UNL     1       9.625  12.417  20.868  0.00  0.00    +0.000 A 
ATOM     15  C   UNL     1       9.064  11.110  20.813  0.00  0.00    +0.000 A 
ATOM     16  C   UNL     1       9.497  10.545  19.633  0.00  0.00    +0.000 A 
BRANCH  14  17
ATOM     17  C   UNL     1       9.447  13.406  21.941  0.00  0.00    +0.000 A 
ATOM     18  C   UNL     1      10.037  14.667  21.874  0.00  0.00    +0.000 A 
ATOM     19  C   UNL     1       9.832  15.560  22.923  0.00  0.00    +0.000 A 
ATOM     20  C   UNL     1       9.047  15.173  24.002  0.00  0.00    +0.000 A 
ATOM     21  C   UNL     1       8.497  13.900  23.986  0.00  0.00    +0.000 A 
ATOM     22  N   UNL     1       8.672  13.011  22.986  0.00  0.00    +0.000 NA
ENDBRANCH  14  17
ENDBRANCH   1  16
BRANCH   7  23
ATOM     23  C   UNL     1       5.224   5.191  18.384  0.00  0.00    +0.000 C 
ATOM     24  C   UNL     1       4.078   5.073  17.347  0.00  0.00    +0.000 C 
ATOM     25  C   UNL     1       3.827   3.642  16.877  0.00  0.00    +0.000 C 
ATOM     26  C   UNL     1       3.492   2.715  18.036  0.00  0.00    +0.000 C 
ATOM     27  C   UNL     1       4.486   2.817  19.189  0.00  0.00    +0.000 C 
ATOM     28  C   UNL     1       4.861   4.251  19.564  0.00  0.00    +0.000 C 
ENDBRANCH   7  23
TORSDOF 3
ENDMDL
MODEL 3
REMARK VINA RESULT:      -8.0      0.872      1.294
REMARK  Name = 
REMARK  4 active torsions:
REMARK  status: ('A' for Active; 'I' for Inactive)
REMARK    1  A    between atoms: C_1  and  N_2
REMARK    2  A    between atoms: C_4  and  C_5
REMARK    3  A    between atoms: C_12  and  N_13
REMARK    4  A    between atoms: N_19  and  C_20
REMARK                            x       y       z     vdW  Elec       q    Type
REMARK                         _______ _______ _______ _____ _____    ______ ____
ROOT
ATOM      1  N   UNL     1       1.180   9.738  19.706  0.00  0.00    +0.000 N 
ATOM      2  C   UNL     1       1.783   9.202  18.527  0.00  0.00    +0.000 C 
ATOM      3  O   UNL     1       1.696   9.791  17.464  0.00  0.00    +0.000 OA
ATOM      4  N   UNL     1       2.515   8.037  18.730  0.00  0.00    +0.000 N 
ATOM      5  C   UNL     1       3.159   7.522  17.515  0.00  0.00    +0.000 C 
ATOM      6  C   UNL     1       4.112   6.326  17.746  0.00  0.00    +0.000 C 
ATOM      7  N   UNL     1       3.554   5.232  18.588  0.00  0.00    +0.000 NA
ATOM      8  C   UNL     1       3.124   5.867  19.852  0.00  0.00    +0.000 C 
ATOM      9  C   UNL     1       2.097   7.011  19.693  0.00  0.00    +0.000 C 
ATOM     10  H   UNL     1       1.511   9.417  20.602  0.00  0.00    +0.000 HD
ENDROOT
BRANCH   1  16
ATOM     11  C   UNL     1       1.740  12.804  19.637  0.00  0.00    +0.000 C 
ATOM     12  N   UNL     1       0.468  12.125  19.679  0.00  0.00    +0.000 N 
ATOM     13  N   UNL     1      -0.649  12.873  19.681  0.00  0.00    +0.000 NA
ATOM     14  C   UNL     1      -1.655  11.983  19.668  0.00  0.00    +0.000 A 
ATOM     15  C   UNL     1      -1.138  10.657  19.668  0.00  0.00    +0.000 A 
ATOM     16  C   UNL     1       0.235  10.770  19.674  0.00  0.00    +0.000 A 
BRANCH  14  17
ATOM     17  C   UNL     1      -3.072  12.374  19.662  0.00  0.00    +0.000 A 
ATOM     18  C   UNL     1      -3.578  13.291  20.582  0.00  0.00    +0.000 A 
ATOM     19  C   UNL     1      -4.929  13.621  20.526  0.00  0.00    +0.000 A 
ATOM     20  C   UNL     1      -5.734  13.033  19.558  0.00  0.00    +0.000 A 
ATOM     21  C   UNL     1      -5.148  12.132  18.682  0.00  0.00    +0.000 A 
ATOM     22  N   UNL     1      -3.842  11.791  18.705  0.00  0.00    +0.000 NA
ENDBRANCH  14  17
ENDBRANCH   1  16
BRANCH   7  23
ATOM     23  C   UNL     1       2.514   4.442  17.873  0.00  0.00    +0.000 C 
ATOM     24  C   UNL     1       3.138   3.284  17.052  0.00  0.00    +0.000 C 
ATOM     25  C   UNL     1       3.643   2.129  17.914  0.00  0.00    +0.000 C 
ATOM     26  C   UNL     1       2.535   1.536  18.771  0.00  0.00    +0.000 C 
ATOM     27  C   UNL     1       1.754   2.589  19.553  0.00  0.00    +0.000 C 
ATOM     28  C   UNL     1       1.379   3.823  18.731  0.00  0.00    +0.000 C 
ENDBRANCH   7  23
TORSDOF 3
ENDMDL
MODEL 4
REMARK VINA RESULT:      -7.9      2.254      2.757
REMARK  Name = 
REMARK  4 active torsions:
REMARK  status: ('A' for Active; 'I' for Inactive)
REMARK    1  A    between atoms: C_1  and  N_2
REMARK    2  A    between atoms: C_4  and  C_5
REMARK    3  A    between atoms: C_12  and  N_13
REMARK    4  A    between atoms: N_19  and  C_20
REMARK                            x       y       z     vdW  Elec       q    Type
REMARK                         _______ _______ _______ _____ _____    ______ ____
ROOT
ATOM      1  N   UNL     1       1.084   9.869  20.782  0.00  0.00    +0.000 N 
ATOM      2  C   UNL     1       1.253   9.370  19.454  0.00  0.00    +0.000 C 
ATOM      3  O   UNL     1       0.807   9.981  18.500  0.00  0.00    +0.000 OA
ATOM      4  N   UNL     1       2.018   8.211  19.366  0.00  0.00    +0.000 N 
ATOM      5  C   UNL     1       2.214   7.733  17.991  0.00  0.00    +0.000 C 
ATOM      6  C   UNL     1       3.196   6.547  17.853  0.00  0.00    +0.000 C 
ATOM      7  N   UNL     1       2.964   5.426  18.805  0.00  0.00    +0.000 NA
ATOM      8  C   UNL     1       2.985   6.025  20.156  0.00  0.00    +0.000 C 
ATOM      9  C   UNL     1       1.958   7.157  20.386  0.00  0.00    +0.000 C 
ATOM     10  H   UNL     1       1.701   9.533  21.503  0.00  0.00    +0.000 HD
ENDROOT
BRANCH   1  16
ATOM     11  C   UNL     1       1.478  12.935  20.378  0.00  0.00    +0.000 C 
ATOM     12  N   UNL     1       0.353  12.244  20.960  0.00  0.00    +0.000 N 
ATOM     13  N   UNL     1      -0.688  12.979  21.389  0.00  0.00    +0.000 NA
ATOM     14  C   UNL     1      -1.586  12.078  21.820  0.00  0.00    +0.000 A 
ATOM     15  C   UNL     1      -1.076  10.759  21.658  0.00  0.00    +0.000 A 
ATOM     16  C   UNL     1       0.178  10.888  21.100  0.00  0.00    +0.000 A 
BRANCH  14  17
ATOM     17  C   UNL     1      -2.893  12.452  22.377  0.00  0.00    +0.000 A 
ATOM     18  C   UNL     1      -3.173  12.310  23.736  0.00  0.00    +0.000 A 
ATOM     19  C   UNL     1      -4.431  12.681  24.204  0.00  0.00    +0.000 A 
ATOM     20  C   UNL     1      -5.369  13.184  23.310  0.00  0.00    +0.000 A 
ATOM     21  C   UNL     1      -5.005  13.294  21.976  0.00  0.00    +0.000 A 
ATOM     22  N   UNL     1      -3.795  12.946  21.488  0.00  0.00    +0.000 NA
ENDBRANCH  14  17
ENDBRANCH   1  16
BRANCH   7  23
ATOM     23  C   UNL     1       1.747   4.637  18.465  0.00  0.00    +0.000 C 
ATOM     24  C   UNL     1       2.023   3.621  17.327  0.00  0.00    +0.000 C 
ATOM     25  C   UNL     1       2.863   2.425  17.768  0.00  0.00    +0.000 C 
ATOM     26  C   UNL     1       2.209   1.664  18.911  0.00  0.00    +0.000 C 
ATOM     27  C   UNL     1       1.776   2.568  20.062  0.00  0.00    +0.000 C 
ATOM     28  C   UNL     1       1.069   3.848  19.616  0.00  0.00    +0.000 C 
ENDBRANCH   7  23
TORSDOF 3
ENDMDL
MODEL 5
REMARK VINA RESULT:      -7.7      1.080      1.302
REMARK  Name = 
REMARK  4 active torsions:
REMARK  status: ('A' for Active; 'I' for Inactive)
REMARK    1  A    between atoms: C_1  and  N_2
REMARK    2  A    between atoms: C_4  and  C_5
REMARK    3  A    between atoms: C_12  and  N_13
REMARK    4  A    between atoms: N_19  and  C_20
REMARK                            x       y       z     vdW  Elec       q    Type
REMARK                         _______ _______ _______ _____ _____    ______ ____
ROOT
ATOM      1  N   UNL     1       0.972   9.935  20.071  0.00  0.00    +0.000 N 
ATOM      2  C   UNL     1       1.445   9.352  18.857  0.00  0.00    +0.000 C 
ATOM      3  O   UNL     1       1.257   9.905  17.788  0.00  0.00    +0.000 OA
ATOM      4  N   UNL     1       2.183   8.184  19.026  0.00  0.00    +0.000 N 
ATOM      5  C   UNL     1       2.695   7.619  17.770  0.00  0.00    +0.000 C 
ATOM      6  C   UNL     1       3.654   6.420  17.946  0.00  0.00    +0.000 C 
ATOM      7  N   UNL     1       3.175   5.363  18.878  0.00  0.00    +0.000 NA
ATOM      8  C   UNL     1       2.882   6.046  20.156  0.00  0.00    +0.000 C 
ATOM      9  C   UNL     1       1.855   7.198  20.062  0.00  0.00    +0.000 C 
ATOM     10  H   UNL     1       1.389   9.641  20.939  0.00  0.00    +0.000 HD
ENDROOT
BRANCH   1  16
ATOM     11  C   UNL     1       1.541  12.961  20.563  0.00  0.00    +0.000 C 
ATOM     12  N   UNL     1       0.271  12.310  20.350  0.00  0.00    +0.000 N 
ATOM     13  N   UNL     1      -0.837  13.071  20.345  0.00  0.00    +0.000 NA
ATOM     14  C   UNL     1      -1.837  12.215  20.073  0.00  0.00    +0.000 A 
ATOM     15  C   UNL     1      -1.325  10.896  19.918  0.00  0.00    +0.000 A 
ATOM     16  C   UNL     1       0.038  10.978  20.099  0.00  0.00    +0.000 A 
BRANCH  14  17
ATOM     17  C   UNL     1      -3.242  12.631  19.969  0.00  0.00    +0.000 A 
ATOM     18  C   UNL     1      -4.125  12.003  19.092  0.00  0.00    +0.000 A 
ATOM     19  C   UNL     1      -5.445  12.443  19.039  0.00  0.00    +0.000 A 
ATOM     20  C   UNL     1      -5.846  13.491  19.859  0.00  0.00    +0.000 A 
ATOM     21  C   UNL     1      -4.903  14.057  20.704  0.00  0.00    +0.000 A 
ATOM     22  N   UNL     1      -3.617  13.654  20.783  0.00  0.00    +0.000 NA
ENDBRANCH  14  17
ENDBRANCH   1  16
BRANCH   7  23
ATOM     23  C   UNL     1       2.059   4.562  18.301  0.00  0.00    +0.000 C 
ATOM     24  C   UNL     1       2.567   3.558  17.235  0.00  0.00    +0.000 C 
ATOM     25  C   UNL     1       3.318   2.368  17.828  0.00  0.00    +0.000 C 
ATOM     26  C   UNL     1       2.461   1.592  18.816  0.00  0.00    +0.000 C 
ATOM     27  C   UNL     1       1.798   2.483  19.863  0.00  0.00    +0.000 C 
ATOM     28  C   UNL     1       1.177   3.758  19.292  0.00  0.00    +0.000 C 
ENDBRANCH   7  23
TORSDOF 3
ENDMDL
MODEL 6
REMARK VINA RESULT:      -7.6      2.241      2.948
REMARK  Name = 
REMARK  4 active torsions:
REMARK  status: ('A' for Active; 'I' for Inactive)
REMARK    1  A    between atoms: C_1  and  N_2
REMARK    2  A    between atoms: C_4  and  C_5
REMARK    3  A    between atoms: C_12  and  N_13
REMARK    4  A    between atoms: N_19  and  C_20
REMARK                            x       y       z     vdW  Elec       q    Type
REMARK                         _______ _______ _______ _____ _____    ______ ____
ROOT
ATOM      1  N   UNL     1       1.120  10.027  19.612  0.00  0.00    +0.000 N 
ATOM      2  C   UNL     1       1.786   9.349  18.546  0.00  0.00    +0.000 C 
ATOM      3  O   UNL     1       1.870   9.859  17.443  0.00  0.00    +0.000 OA
ATOM      4  N   UNL     1       2.375   8.141  18.907  0.00  0.00    +0.000 N 
ATOM      5  C   UNL     1       3.088   7.477  17.809  0.00  0.00    +0.000 C 
ATOM      6  C   UNL     1       3.889   6.221  18.224  0.00  0.00    +0.000 C 
ATOM      7  N   UNL     1       3.141   5.251  19.070  0.00  0.00    +0.000 NA
ATOM      8  C   UNL     1       2.647   6.018  20.233  0.00  0.00    +0.000 C 
ATOM      9  C   UNL     1       1.759   7.235  19.884  0.00  0.00    +0.000 C 
ATOM     10  H   UNL     1       1.323   9.748  20.558  0.00  0.00    +0.000 HD
ENDROOT
BRANCH   1  16
ATOM     11  C   UNL     1      -1.662  10.060  18.206  0.00  0.00    +0.000 C 
ATOM     12  N   UNL     1      -0.922  11.169  18.757  0.00  0.00    +0.000 N 
ATOM     13  N   UNL     1      -1.470  12.394  18.684  0.00  0.00    +0.000 NA
ATOM     14  C   UNL     1      -0.596  13.197  19.314  0.00  0.00    +0.000 A 
ATOM     15  C   UNL     1       0.519  12.442  19.774  0.00  0.00    +0.000 A 
ATOM     16  C   UNL     1       0.290  11.135  19.406  0.00  0.00    +0.000 A 
BRANCH  14  17
ATOM     17  C   UNL     1      -0.805  14.642  19.472  0.00  0.00    +0.000 A 
ATOM     18  C   UNL     1      -0.132  15.567  18.675  0.00  0.00    +0.000 A 
ATOM     19  C   UNL     1      -0.371  16.924  18.874  0.00  0.00    +0.000 A 
ATOM     20  C   UNL     1      -1.273  17.320  19.854  0.00  0.00    +0.000 A 
ATOM     21  C   UNL     1      -1.900  16.333  20.600  0.00  0.00    +0.000 A 
ATOM     22  N   UNL     1      -1.694  15.010  20.433  0.00  0.00    +0.000 NA
ENDBRANCH  14  17
ENDBRANCH   1  16
BRANCH   7  23
ATOM     23  C   UNL     1       2.108   4.505  18.299  0.00  0.00    +0.000 C 
ATOM     24  C   UNL     1       2.745   3.603  17.212  0.00  0.00    +0.000 C 
ATOM     25  C   UNL     1       3.438   2.365  17.776  0.00  0.00    +0.000 C 
ATOM     26  C   UNL     1       2.483   1.500  18.585  0.00  0.00    +0.000 C 
ATOM     27  C   UNL     1       1.695   2.291  19.625  0.00  0.00    +0.000 C 
ATOM     28  C   UNL     1       1.128   3.613  19.105  0.00  0.00    +0.000 C 
ENDBRANCH   7  23
TORSDOF 3
ENDMDL
MODEL 7
REMARK VINA RESULT:      -7.6      3.289      4.398
REMARK  Name = 
REMARK  4 active torsions:
REMARK  status: ('A' for Active; 'I' for Inactive)
REMARK    1  A    between atoms: C_1  and  N_2
REMARK    2  A    between atoms: C_4  and  C_5
REMARK    3  A    between atoms: C_12  and  N_13
REMARK    4  A    between atoms: N_19  and  C_20
REMARK                            x       y       z     vdW  Elec       q    Type
REMARK                         _______ _______ _______ _____ _____    ______ ____
ROOT
ATOM      1  N   UNL     1       0.477  10.174  20.229  0.00  0.00    +0.000 N 
ATOM      2  C   UNL     1       1.114   9.028  20.795  0.00  0.00    +0.000 C 
ATOM      3  O   UNL     1       1.233   8.918  22.002  0.00  0.00    +0.000 OA
ATOM      4  N   UNL     1       1.488   8.058  19.870  0.00  0.00    +0.000 N 
ATOM      5  C   UNL     1       2.106   6.870  20.473  0.00  0.00    +0.000 C 
ATOM      6  C   UNL     1       2.378   5.712  19.486  0.00  0.00    +0.000 C 
ATOM      7  N   UNL     1       3.054   6.110  18.220  0.00  0.00    +0.000 NA
ATOM      8  C   UNL     1       2.218   7.176  17.628  0.00  0.00    +0.000 C 
ATOM      9  C   UNL     1       1.988   8.407  18.534  0.00  0.00    +0.000 C 
ATOM     10  H   UNL     1       0.119  10.108  19.290  0.00  0.00    +0.000 HD
ENDROOT
BRANCH   1  16
ATOM     11  C   UNL     1       2.102  12.833  20.147  0.00  0.00    +0.000 C 
ATOM     12  N   UNL     1       0.955  12.507  20.958  0.00  0.00    +0.000 N 
ATOM     13  N   UNL     1       0.486  13.448  21.797  0.00  0.00    +0.000 NA
ATOM     14  C   UNL     1      -0.595  12.888  22.366  0.00  0.00    +0.000 A 
ATOM     15  C   UNL     1      -0.785  11.569  21.868  0.00  0.00    +0.000 A 
ATOM     16  C   UNL     1       0.226  11.342  20.959  0.00  0.00    +0.000 A 
BRANCH  14  17
ATOM     17  C   UNL     1      -1.426  13.580  23.361  0.00  0.00    +0.000 A 
ATOM     18  C   UNL     1      -2.754  13.216  23.581  0.00  0.00    +0.000 A 
ATOM     19  C   UNL     1      -3.490  13.910  24.537  0.00  0.00    +0.000 A 
ATOM     20  C   UNL     1      -2.884  14.941  25.246  0.00  0.00    +0.000 A 
ATOM     21  C   UNL     1      -1.559  15.235  24.965  0.00  0.00    +0.000 A 
ATOM     22  N   UNL     1      -0.815  14.582  24.047  0.00  0.00    +0.000 NA
ENDBRANCH  14  17
ENDBRANCH   1  16
BRANCH   7  23
ATOM     23  C   UNL     1       4.489   6.452  18.428  0.00  0.00    +0.000 C 
ATOM     24  C   UNL     1       5.269   5.279  19.073  0.00  0.00    +0.000 C 
ATOM     25  C   UNL     1       5.525   4.117  18.115  0.00  0.00    +0.000 C 
ATOM     26  C   UNL     1       6.301   4.560  16.883  0.00  0.00    +0.000 C 
ATOM     27  C   UNL     1       5.702   5.791  16.209  0.00  0.00    +0.000 C 
ATOM     28  C   UNL     1       5.298   6.900  17.182  0.00  0.00    +0.000 C 
ENDBRANCH   7  23
TORSDOF 3
ENDMDL
MODEL 8
REMARK VINA RESULT:      -7.5      2.656      9.773
REMARK  Name = 
REMARK  4 active torsions:
REMARK  status: ('A' for Active; 'I' for Inactive)
REMARK    1  A    between atoms: C_1  and  N_2
REMARK    2  A    between atoms: C_4  and  C_5
REMARK    3  A    between atoms: C_12  and  N_13
REMARK    4  A    between atoms: N_19  and  C_20
REMARK                            x       y       z     vdW  Elec       q    Type
REMARK                         _______ _______ _______ _____ _____    ______ ____
ROOT
ATOM      1  N   UNL     1       0.886   9.897  20.561  0.00  0.00    +0.000 N 
ATOM      2  C   UNL     1       0.024   9.954  21.698  0.00  0.00    +0.000 C 
ATOM      3  O   UNL     1      -0.057   9.010  22.463  0.00  0.00    +0.000 OA
ATOM      4  N   UNL     1      -0.616  11.177  21.876  0.00  0.00    +0.000 N 
ATOM      5  C   UNL     1      -1.468  11.231  23.071  0.00  0.00    +0.000 C 
ATOM      6  C   UNL     1      -2.057  12.626  23.382  0.00  0.00    +0.000 C 
ATOM      7  N   UNL     1      -2.681  13.317  22.221  0.00  0.00    +0.000 NA
ATOM      8  C   UNL     1      -1.646  13.361  21.166  0.00  0.00    +0.000 C 
ATOM      9  C   UNL     1      -1.085  11.984  20.743  0.00  0.00    +0.000 C 
ATOM     10  H   UNL     1       1.171  10.762  20.130  0.00  0.00    +0.000 HD
ENDROOT
BRANCH   1  16
ATOM     11  C   UNL     1       2.032   9.344  17.714  0.00  0.00    +0.000 C 
ATOM     12  N   UNL     1       1.920   8.435  18.828  0.00  0.00    +0.000 N 
ATOM     13  N   UNL     1       2.364   7.176  18.665  0.00  0.00    +0.000 NA
ATOM     14  C   UNL     1       2.184   6.593  19.863  0.00  0.00    +0.000 A 
ATOM     15  C   UNL     1       1.606   7.518  20.777  0.00  0.00    +0.000 A 
ATOM     16  C   UNL     1       1.444   8.702  20.091  0.00  0.00    +0.000 A 
BRANCH  14  17
ATOM     17  C   UNL     1       2.543   5.195  20.135  0.00  0.00    +0.000 A 
ATOM     18  C   UNL     1       1.901   4.459  21.130  0.00  0.00    +0.000 A 
ATOM     19  C   UNL     1       2.287   3.138  21.342  0.00  0.00    +0.000 A 
ATOM     20  C   UNL     1       3.294   2.589  20.557  0.00  0.00    +0.000 A 
ATOM     21  C   UNL     1       3.877   3.392  19.588  0.00  0.00    +0.000 A 
ATOM     22  N   UNL     1       3.527   4.674  19.355  0.00  0.00    +0.000 NA
ENDBRANCH  14  17
ENDBRANCH   1  16
BRANCH   7  23
ATOM     23  C   UNL     1      -3.981  12.705  21.829  0.00  0.00    +0.000 C 
ATOM     24  C   UNL     1      -5.063  12.911  22.920  0.00  0.00    +0.000 C 
ATOM     25  C   UNL     1      -5.586  14.343  22.998  0.00  0.00    +0.000 C 
ATOM     26  C   UNL     1      -6.178  14.803  21.674  0.00  0.00    +0.000 C 
ATOM     27  C   UNL     1      -5.256  14.550  20.485  0.00  0.00    +0.000 C 
ATOM     28  C   UNL     1      -4.605  13.165  20.485  0.00  0.00    +0.000 C 
ENDBRANCH   7  23
TORSDOF 3
ENDMDL
MODEL 9
REMARK VINA RESULT:      -7.5      2.644      9.708
REMARK  Name = 
REMARK  4 active torsions:
REMARK  status: ('A' for Active; 'I' for Inactive)
REMARK    1  A    between atoms: C_1  and  N_2
REMARK    2  A    between atoms: C_4  and  C_5
REMARK    3  A    between atoms: C_12  and  N_13
REMARK    4  A    between atoms: N_19  and  C_20
REMARK                            x       y       z     vdW  Elec       q    Type
REMARK                         _______ _______ _______ _____ _____    ______ ____
ROOT
ATOM      1  N   UNL     1       1.652   8.141  19.729  0.00  0.00    +0.000 N 
ATOM      2  C   UNL     1       1.149   9.178  18.884  0.00  0.00    +0.000 C 
ATOM      3  O   UNL     1       1.224   9.081  17.672  0.00  0.00    +0.000 OA
ATOM      4  N   UNL     1       0.519  10.219  19.559  0.00  0.00    +0.000 N 
ATOM      5  C   UNL     1      -0.025  11.256  18.673  0.00  0.00    +0.000 C 
ATOM      6  C   UNL     1      -0.872  12.335  19.386  0.00  0.00    +0.000 C 
ATOM      7  N   UNL     1      -0.251  12.915  20.608  0.00  0.00    +0.000 NA
ATOM      8  C   UNL     1       0.068  11.771  21.488  0.00  0.00    +0.000 C 
ATOM      9  C   UNL     1       0.992  10.702  20.862  0.00  0.00    +0.000 C 
ATOM     10  H   UNL     1       1.316   8.090  20.677  0.00  0.00    +0.000 HD
ENDROOT
BRANCH   1  16
ATOM     11  C   UNL     1       1.821   5.206  20.766  0.00  0.00    +0.000 C 
ATOM     12  N   UNL     1       2.608   5.841  19.737  0.00  0.00    +0.000 N 
ATOM     13  N   UNL     1       3.543   5.105  19.110  0.00  0.00    +0.000 NA
ATOM     14  C   UNL     1       4.063   5.930  18.186  0.00  0.00    +0.000 A 
ATOM     15  C   UNL     1       3.437   7.205  18.258  0.00  0.00    +0.000 A 
ATOM     16  C   UNL     1       2.499   7.128  19.265  0.00  0.00    +0.000 A 
BRANCH  14  17
ATOM     17  C   UNL     1       5.132   5.526  17.262  0.00  0.00    +0.000 A 
ATOM     18  C   UNL     1       5.017   5.721  15.886  0.00  0.00    +0.000 A 
ATOM     19  C   UNL     1       6.064   5.316  15.062  0.00  0.00    +0.000 A 
ATOM     20  C   UNL     1       7.191   4.734  15.629  0.00  0.00    +0.000 A 
ATOM     21  C   UNL     1       7.222   4.580  17.007  0.00  0.00    +0.000 A 
ATOM     22  N   UNL     1       6.228   4.962  17.836  0.00  0.00    +0.000 NA
ENDBRANCH  14  17
ENDBRANCH   1  16
BRANCH   7  23
ATOM     23  C   UNL     1       0.886  13.823  20.288  0.00  0.00    +0.000 C 
ATOM     24  C   UNL     1       0.449  14.979  19.352  0.00  0.00    +0.000 C 
ATOM     25  C   UNL     1      -0.402  16.039  20.048  0.00  0.00    +0.000 C 
ATOM     26  C   UNL     1       0.323  16.659  21.233  0.00  0.00    +0.000 C 
ATOM     27  C   UNL     1       0.911  15.621  22.185  0.00  0.00    +0.000 C 
ATOM     28  C   UNL     1       1.634  14.471  21.483  0.00  0.00    +0.000 C 
ENDBRANCH   7  23
TORSDOF 3
ENDMDL
