MODEL 1
REMARK VINA RESULT:      -7.6      0.000      0.000
REMARK  Name = 
REMARK  2 active torsions:
REMARK  status: ('A' for Active; 'I' for Inactive)
REMARK    1  A    between atoms: N_10  and  C_11
REMARK    2  A    between atoms: C_14  and  C_15
REMARK                            x       y       z     vdW  Elec       q    Type
REMARK                         _______ _______ _______ _____ _____    ______ ____
ROOT
ATOM      1  O   UNL     1       3.212   7.290  17.788  0.00  0.00    +0.000 OA
ATOM      2  C   UNL     1       3.033   6.281  18.464  0.00  0.00    +0.000 A 
ATOM      3  N   UNL     1       1.930   6.060  19.316  0.00  0.00    +0.000 N 
ATOM      4  C   UNL     1       2.083   4.828  19.945  0.00  0.00    +0.000 A 
ATOM      5  C   UNL     1       1.304   4.259  20.926  0.00  0.00    +0.000 A 
ATOM      6  C   UNL     1       1.755   3.049  21.463  0.00  0.00    +0.000 A 
ATOM      7  C   UNL     1       2.949   2.450  21.008  0.00  0.00    +0.000 A 
ATOM      8  C   UNL     1       3.710   3.036  19.991  0.00  0.00    +0.000 A 
ATOM      9  C   UNL     1       3.251   4.227  19.466  0.00  0.00    +0.000 A 
ATOM     10  N   UNL     1       3.820   5.110  18.547  0.00  0.00    +0.000 N 
ATOM     11  H   UNL     1       1.187   6.728  19.453  0.00  0.00    +0.000 HD
ENDROOT
BRANCH  10  12
ATOM     12  C   UNL     1       4.986   4.875  17.851  0.00  0.00    +0.000 A 
ATOM     13  C   UNL     1       6.243   5.004  18.389  0.00  0.00    +0.000 A 
ATOM     14  S   UNL     1       7.423   4.717  17.190  0.00  0.00    +0.000 S 
ATOM     15  C   UNL     1       6.175   4.558  16.006  0.00  0.00    +0.000 A 
ATOM     16  N   UNL     1       4.953   4.517  16.510  0.00  0.00    +0.000 NA
BRANCH  15  17
ATOM     17  C   UNL     1       6.494   4.455  14.569  0.00  0.00    +0.000 A 
ATOM     18  C   UNL     1       7.537   5.216  14.036  0.00  0.00    +0.000 A 
ATOM     19  C   UNL     1       7.823   5.108  12.683  0.00  0.00    +0.000 A 
ATOM     20  N   UNL     1       7.159   4.294  11.837  0.00  0.00    +0.000 NA
ATOM     21  C   UNL     1       6.174   3.544  12.369  0.00  0.00    +0.000 A 
ATOM     22  C   UNL     1       5.812   3.586  13.705  0.00  0.00    +0.000 A 
ENDBRANCH  15  17
ENDBRANCH  10  12
TORSDOF 2
ENDMDL
MODEL 2
REMARK VINA RESULT:      -7.6      0.077      1.026
REMARK  Name = 
REMARK  2 active torsions:
REMARK  status: ('A' for Active; 'I' for Inactive)
REMARK    1  A    between atoms: N_10  and  C_11
REMARK    2  A    between atoms: C_14  and  C_15
REMARK                            x       y       z     vdW  Elec       q    Type
REMARK                         _______ _______ _______ _____ _____    ______ ____
ROOT
ATOM      1  O   UNL     1       3.232   7.235  17.815  0.00  0.00    +0.000 OA
ATOM      2  C   UNL     1       3.048   6.227  18.490  0.00  0.00    +0.000 A 
ATOM      3  N   UNL     1       1.935   6.003  19.328  0.00  0.00    +0.000 N 
ATOM      4  C   UNL     1       2.084   4.773  19.961  0.00  0.00    +0.000 A 
ATOM      5  C   UNL     1       1.295   4.202  20.933  0.00  0.00    +0.000 A 
ATOM      6  C   UNL     1       1.744   2.995  21.478  0.00  0.00    +0.000 A 
ATOM      7  C   UNL     1       2.945   2.399  21.040  0.00  0.00    +0.000 A 
ATOM      8  C   UNL     1       3.717   2.987  20.031  0.00  0.00    +0.000 A 
ATOM      9  C   UNL     1       3.261   4.176  19.498  0.00  0.00    +0.000 A 
ATOM     10  N   UNL     1       3.838   5.058  18.585  0.00  0.00    +0.000 N 
ATOM     11  H   UNL     1       1.188   6.669  19.454  0.00  0.00    +0.000 HD
ENDROOT
BRANCH  10  12
ATOM     12  C   UNL     1       5.013   4.827  17.904  0.00  0.00    +0.000 A 
ATOM     13  C   UNL     1       6.262   4.933  18.466  0.00  0.00    +0.000 A 
ATOM     14  S   UNL     1       7.460   4.659  17.282  0.00  0.00    +0.000 S 
ATOM     15  C   UNL     1       6.231   4.535  16.074  0.00  0.00    +0.000 A 
ATOM     16  N   UNL     1       5.000   4.495  16.556  0.00  0.00    +0.000 NA
BRANCH  15  17
ATOM     17  C   UNL     1       6.574   4.458  14.641  0.00  0.00    +0.000 A 
ATOM     18  C   UNL     1       5.870   3.584  13.808  0.00  0.00    +0.000 A 
ATOM     19  C   UNL     1       6.205   3.524  12.463  0.00  0.00    +0.000 A 
ATOM     20  N   UNL     1       7.171   4.275  11.894  0.00  0.00    +0.000 NA
ATOM     21  C   UNL     1       7.822   5.133  12.702  0.00  0.00    +0.000 A 
ATOM     22  C   UNL     1       7.563   5.262  14.057  0.00  0.00    +0.000 A 
ENDBRANCH  15  17
ENDBRANCH  10  12
TORSDOF 2
ENDMDL
MODEL 3
REMARK VINA RESULT:      -7.5      3.948      7.262
REMARK  Name = 
REMARK  2 active torsions:
REMARK  status: ('A' for Active; 'I' for Inactive)
REMARK    1  A    between atoms: N_10  and  C_11
REMARK    2  A    between atoms: C_14  and  C_15
REMARK                            x       y       z     vdW  Elec       q    Type
REMARK                         _______ _______ _______ _____ _____    ______ ____
ROOT
ATOM      1  O   UNL     1       5.879   5.954  18.839  0.00  0.00    +0.000 OA
ATOM      2  C   UNL     1       4.968   5.132  18.851  0.00  0.00    +0.000 A 
ATOM      3  N   UNL     1       5.138   3.734  18.934  0.00  0.00    +0.000 N 
ATOM      4  C   UNL     1       3.889   3.122  18.883  0.00  0.00    +0.000 A 
ATOM      5  C   UNL     1       3.587   1.781  18.831  0.00  0.00    +0.000 A 
ATOM      6  C   UNL     1       2.239   1.445  18.672  0.00  0.00    +0.000 A 
ATOM      7  C   UNL     1       1.246   2.443  18.578  0.00  0.00    +0.000 A 
ATOM      8  C   UNL     1       1.575   3.800  18.660  0.00  0.00    +0.000 A 
ATOM      9  C   UNL     1       2.909   4.118  18.821  0.00  0.00    +0.000 A 
ATOM     10  N   UNL     1       3.571   5.347  18.820  0.00  0.00    +0.000 N 
ATOM     11  H   UNL     1       6.037   3.282  18.981  0.00  0.00    +0.000 HD
ENDROOT
BRANCH  10  12
ATOM     12  C   UNL     1       2.948   6.574  18.771  0.00  0.00    +0.000 A 
ATOM     13  C   UNL     1       3.088   7.468  17.738  0.00  0.00    +0.000 A 
ATOM     14  S   UNL     1       2.236   8.904  18.089  0.00  0.00    +0.000 S 
ATOM     15  C   UNL     1       1.836   8.280  19.649  0.00  0.00    +0.000 A 
ATOM     16  N   UNL     1       2.143   7.005  19.817  0.00  0.00    +0.000 NA
BRANCH  15  17
ATOM     17  C   UNL     1       1.186   9.128  20.667  0.00  0.00    +0.000 A 
ATOM     18  C   UNL     1       1.044   8.653  21.973  0.00  0.00    +0.000 A 
ATOM     19  C   UNL     1       0.429   9.462  22.918  0.00  0.00    +0.000 A 
ATOM     20  N   UNL     1      -0.035  10.702  22.659  0.00  0.00    +0.000 NA
ATOM     21  C   UNL     1       0.134  11.159  21.403  0.00  0.00    +0.000 A 
ATOM     22  C   UNL     1       0.730  10.425  20.391  0.00  0.00    +0.000 A 
ENDBRANCH  15  17
ENDBRANCH  10  12
TORSDOF 2
ENDMDL
MODEL 4
REMARK VINA RESULT:      -7.5      1.742      2.258
REMARK  Name = 
REMARK  2 active torsions:
REMARK  status: ('A' for Active; 'I' for Inactive)
REMARK    1  A    between atoms: N_10  and  C_11
REMARK    2  A    between atoms: C_14  and  C_15
REMARK                            x       y       z     vdW  Elec       q    Type
REMARK                         _______ _______ _______ _____ _____    ______ ____
ROOT
ATOM      1  O   UNL     1       3.724   1.270  18.137  0.00  0.00    +0.000 OA
ATOM      2  C   UNL     1       3.363   2.328  18.641  0.00  0.00    +0.000 A 
ATOM      3  N   UNL     1       2.251   2.482  19.496  0.00  0.00    +0.000 N 
ATOM      4  C   UNL     1       2.127   3.825  19.842  0.00  0.00    +0.000 A 
ATOM      5  C   UNL     1       1.134   4.440  20.568  0.00  0.00    +0.000 A 
ATOM      6  C   UNL     1       1.202   5.833  20.671  0.00  0.00    +0.000 A 
ATOM      7  C   UNL     1       2.247   6.559  20.061  0.00  0.00    +0.000 A 
ATOM      8  C   UNL     1       3.260   5.908  19.349  0.00  0.00    +0.000 A 
ATOM      9  C   UNL     1       3.183   4.532  19.258  0.00  0.00    +0.000 A 
ATOM     10  N   UNL     1       3.948   3.611  18.540  0.00  0.00    +0.000 N 
ATOM     11  H   UNL     1       1.641   1.725  19.761  0.00  0.00    +0.000 HD
ENDROOT
BRANCH  10  12
ATOM     12  C   UNL     1       5.084   3.922  17.825  0.00  0.00    +0.000 A 
ATOM     13  C   UNL     1       6.169   4.579  18.352  0.00  0.00    +0.000 A 
ATOM     14  S   UNL     1       7.331   4.857  17.133  0.00  0.00    +0.000 S 
ATOM     15  C   UNL     1       6.253   4.188  15.960  0.00  0.00    +0.000 A 
ATOM     16  N   UNL     1       5.183   3.608  16.477  0.00  0.00    +0.000 NA
BRANCH  15  17
ATOM     17  C   UNL     1       6.554   4.259  14.517  0.00  0.00    +0.000 A 
ATOM     18  C   UNL     1       7.529   5.148  14.057  0.00  0.00    +0.000 A 
ATOM     19  C   UNL     1       7.800   5.202  12.698  0.00  0.00    +0.000 A 
ATOM     20  N   UNL     1       7.183   4.433  11.777  0.00  0.00    +0.000 NA
ATOM     21  C   UNL     1       6.265   3.560  12.236  0.00  0.00    +0.000 A 
ATOM     22  C   UNL     1       5.924   3.436  13.573  0.00  0.00    +0.000 A 
ENDBRANCH  15  17
ENDBRANCH  10  12
TORSDOF 2
ENDMDL
MODEL 5
REMARK VINA RESULT:      -7.4      1.738      2.472
REMARK  Name = 
REMARK  2 active torsions:
REMARK  status: ('A' for Active; 'I' for Inactive)
REMARK    1  A    between atoms: N_10  and  C_11
REMARK    2  A    between atoms: C_14  and  C_15
REMARK                            x       y       z     vdW  Elec       q    Type
REMARK                         _______ _______ _______ _____ _____    ______ ____
ROOT
ATOM      1  O   UNL     1       3.698   1.290  18.087  0.00  0.00    +0.000 OA
ATOM      2  C   UNL     1       3.343   2.343  18.607  0.00  0.00    +0.000 A 
ATOM      3  N   UNL     1       2.226   2.493  19.456  0.00  0.00    +0.000 N 
ATOM      4  C   UNL     1       2.111   3.830  19.823  0.00  0.00    +0.000 A 
ATOM      5  C   UNL     1       1.118   4.442  20.553  0.00  0.00    +0.000 A 
ATOM      6  C   UNL     1       1.197   5.832  20.680  0.00  0.00    +0.000 A 
ATOM      7  C   UNL     1       2.253   6.559  20.091  0.00  0.00    +0.000 A 
ATOM      8  C   UNL     1       3.266   5.911  19.375  0.00  0.00    +0.000 A 
ATOM      9  C   UNL     1       3.178   4.538  19.260  0.00  0.00    +0.000 A 
ATOM     10  N   UNL     1       3.940   3.623  18.532  0.00  0.00    +0.000 N 
ATOM     11  H   UNL     1       1.607   1.736  19.703  0.00  0.00    +0.000 HD
ENDROOT
BRANCH  10  12
ATOM     12  C   UNL     1       5.084   3.935  17.832  0.00  0.00    +0.000 A 
ATOM     13  C   UNL     1       6.160   4.598  18.370  0.00  0.00    +0.000 A 
ATOM     14  S   UNL     1       7.337   4.877  17.166  0.00  0.00    +0.000 S 
ATOM     15  C   UNL     1       6.277   4.200  15.982  0.00  0.00    +0.000 A 
ATOM     16  N   UNL     1       5.203   3.617  16.486  0.00  0.00    +0.000 NA
BRANCH  15  17
ATOM     17  C   UNL     1       6.598   4.267  14.543  0.00  0.00    +0.000 A 
ATOM     18  C   UNL     1       5.919   3.440  13.644  0.00  0.00    +0.000 A 
ATOM     19  C   UNL     1       6.233   3.515  12.294  0.00  0.00    +0.000 A 
ATOM     20  N   UNL     1       7.154   4.357  11.783  0.00  0.00    +0.000 NA
ATOM     21  C   UNL     1       7.781   5.169  12.656  0.00  0.00    +0.000 A 
ATOM     22  C   UNL     1       7.540   5.164  14.020  0.00  0.00    +0.000 A 
ENDBRANCH  15  17
ENDBRANCH  10  12
TORSDOF 2
ENDMDL
MODEL 6
REMARK VINA RESULT:      -7.4      3.957      7.214
REMARK  Name = 
REMARK  2 active torsions:
REMARK  status: ('A' for Active; 'I' for Inactive)
REMARK    1  A    between atoms: N_10  and  C_11
REMARK    2  A    between atoms: C_14  and  C_15
REMARK                            x       y       z     vdW  Elec       q    Type
REMARK                         _______ _______ _______ _____ _____    ______ ____
ROOT
ATOM      1  O   UNL     1       5.954   5.992  18.902  0.00  0.00    +0.000 OA
ATOM      2  C   UNL     1       5.057   5.155  18.885  0.00  0.00    +0.000 A 
ATOM      3  N   UNL     1       5.247   3.760  18.967  0.00  0.00    +0.000 N 
ATOM      4  C   UNL     1       4.011   3.127  18.878  0.00  0.00    +0.000 A 
ATOM      5  C   UNL     1       3.733   1.782  18.812  0.00  0.00    +0.000 A 
ATOM      6  C   UNL     1       2.396   1.425  18.613  0.00  0.00    +0.000 A 
ATOM      7  C   UNL     1       1.389   2.407  18.494  0.00  0.00    +0.000 A 
ATOM      8  C   UNL     1       1.694   3.769  18.590  0.00  0.00    +0.000 A 
ATOM      9  C   UNL     1       3.017   4.107  18.791  0.00  0.00    +0.000 A 
ATOM     10  N   UNL     1       3.658   5.347  18.814  0.00  0.00    +0.000 N 
ATOM     11  H   UNL     1       6.153   3.322  19.039  0.00  0.00    +0.000 HD
ENDROOT
BRANCH  10  12
ATOM     12  C   UNL     1       3.017   6.564  18.752  0.00  0.00    +0.000 A 
ATOM     13  C   UNL     1       3.155   7.456  17.716  0.00  0.00    +0.000 A 
ATOM     14  S   UNL     1       2.277   8.880  18.050  0.00  0.00    +0.000 S 
ATOM     15  C   UNL     1       1.869   8.257  19.608  0.00  0.00    +0.000 A 
ATOM     16  N   UNL     1       2.193   6.988  19.786  0.00  0.00    +0.000 NA
BRANCH  15  17
ATOM     17  C   UNL     1       1.193   9.099  20.614  0.00  0.00    +0.000 A 
ATOM     18  C   UNL     1       0.669  10.339  20.240  0.00  0.00    +0.000 A 
ATOM     19  C   UNL     1       0.038  11.118  21.198  0.00  0.00    +0.000 A 
ATOM     20  N   UNL     1      -0.118  10.747  22.486  0.00  0.00    +0.000 NA
ATOM     21  C   UNL     1       0.367   9.537  22.828  0.00  0.00    +0.000 A 
ATOM     22  C   UNL     1       1.016   8.691  21.944  0.00  0.00    +0.000 A 
ENDBRANCH  15  17
ENDBRANCH  10  12
TORSDOF 2
ENDMDL
MODEL 7
REMARK VINA RESULT:      -7.3      3.932      7.693
REMARK  Name = 
REMARK  2 active torsions:
REMARK  status: ('A' for Active; 'I' for Inactive)
REMARK    1  A    between atoms: N_10  and  C_11
REMARK    2  A    between atoms: C_14  and  C_15
REMARK                            x       y       z     vdW  Elec       q    Type
REMARK                         _______ _______ _______ _____ _____    ______ ____
ROOT
ATOM      1  O   UNL     1       5.006   6.486  17.795  0.00  0.00    +0.000 OA
ATOM      2  C   UNL     1       4.355   5.762  18.542  0.00  0.00    +0.000 A 
ATOM      3  N   UNL     1       4.728   4.461  18.938  0.00  0.00    +0.000 N 
ATOM      4  C   UNL     1       3.731   3.932  19.754  0.00  0.00    +0.000 A 
ATOM      5  C   UNL     1       3.630   2.665  20.280  0.00  0.00    +0.000 A 
ATOM      6  C   UNL     1       2.456   2.368  20.980  0.00  0.00    +0.000 A 
ATOM      7  C   UNL     1       1.438   3.331  21.138  0.00  0.00    +0.000 A 
ATOM      8  C   UNL     1       1.576   4.622  20.616  0.00  0.00    +0.000 A 
ATOM      9  C   UNL     1       2.741   4.904  19.931  0.00  0.00    +0.000 A 
ATOM     10  N   UNL     1       3.134   6.029  19.203  0.00  0.00    +0.000 N 
ATOM     11  H   UNL     1       5.570   4.002  18.629  0.00  0.00    +0.000 HD
ENDROOT
BRANCH  10  12
ATOM     12  C   UNL     1       2.420   7.204  19.129  0.00  0.00    +0.000 A 
ATOM     13  C   UNL     1       2.416   8.035  18.034  0.00  0.00    +0.000 A 
ATOM     14  S   UNL     1       1.489   9.429  18.363  0.00  0.00    +0.000 S 
ATOM     15  C   UNL     1       1.255   8.885  19.985  0.00  0.00    +0.000 A 
ATOM     16  N   UNL     1       1.667   7.648  20.207  0.00  0.00    +0.000 NA
BRANCH  15  17
ATOM     17  C   UNL     1       0.622   9.752  20.998  0.00  0.00    +0.000 A 
ATOM     18  C   UNL     1       0.163   9.196  22.195  0.00  0.00    +0.000 A 
ATOM     19  C   UNL     1      -0.430  10.025  23.136  0.00  0.00    +0.000 A 
ATOM     20  N   UNL     1      -0.583  11.356  22.975  0.00  0.00    +0.000 NA
ATOM     21  C   UNL     1      -0.111  11.884  21.830  0.00  0.00    +0.000 A 
ATOM     22  C   UNL     1       0.492  11.138  20.830  0.00  0.00    +0.000 A 
ENDBRANCH  15  17
ENDBRANCH  10  12
TORSDOF 2
ENDMDL
MODEL 8
REMARK VINA RESULT:      -7.3      2.903      7.125
REMARK  Name = 
REMARK  2 active torsions:
REMARK  status: ('A' for Active; 'I' for Inactive)
REMARK    1  A    between atoms: N_10  and  C_11
REMARK    2  A    between atoms: C_14  and  C_15
REMARK                            x       y       z     vdW  Elec       q    Type
REMARK                         _______ _______ _______ _____ _____    ______ ____
ROOT
ATOM      1  O   UNL     1       7.182   5.367  20.118  0.00  0.00    +0.000 OA
ATOM      2  C   UNL     1       6.837   5.110  18.968  0.00  0.00    +0.000 A 
ATOM      3  N   UNL     1       7.712   4.762  17.917  0.00  0.00    +0.000 N 
ATOM      4  C   UNL     1       6.971   4.580  16.753  0.00  0.00    +0.000 A 
ATOM      5  C   UNL     1       7.419   4.333  15.476  0.00  0.00    +0.000 A 
ATOM      6  C   UNL     1       6.453   4.304  14.465  0.00  0.00    +0.000 A 
ATOM      7  C   UNL     1       5.088   4.511  14.756  0.00  0.00    +0.000 A 
ATOM      8  C   UNL     1       4.653   4.734  16.068  0.00  0.00    +0.000 A 
ATOM      9  C   UNL     1       5.617   4.756  17.056  0.00  0.00    +0.000 A 
ATOM     10  N   UNL     1       5.537   5.063  18.416  0.00  0.00    +0.000 N 
ATOM     11  H   UNL     1       8.712   4.703  18.020  0.00  0.00    +0.000 HD
ENDROOT
BRANCH  10  12
ATOM     12  C   UNL     1       4.365   5.304  19.098  0.00  0.00    +0.000 A 
ATOM     13  C   UNL     1       3.545   4.318  19.592  0.00  0.00    +0.000 A 
ATOM     14  S   UNL     1       2.151   5.014  20.290  0.00  0.00    +0.000 S 
ATOM     15  C   UNL     1       2.681   6.577  19.778  0.00  0.00    +0.000 A 
ATOM     16  N   UNL     1       3.914   6.601  19.301  0.00  0.00    +0.000 NA
BRANCH  15  17
ATOM     17  C   UNL     1       1.808   7.759  19.905  0.00  0.00    +0.000 A 
ATOM     18  C   UNL     1       1.131   7.993  21.105  0.00  0.00    +0.000 A 
ATOM     19  C   UNL     1       0.313   9.109  21.207  0.00  0.00    +0.000 A 
ATOM     20  N   UNL     1       0.136  10.005  20.214  0.00  0.00    +0.000 NA
ATOM     21  C   UNL     1       0.816   9.784  19.073  0.00  0.00    +0.000 A 
ATOM     22  C   UNL     1       1.652   8.696  18.874  0.00  0.00    +0.000 A 
ENDBRANCH  15  17
ENDBRANCH  10  12
TORSDOF 2
ENDMDL
MODEL 9
REMARK VINA RESULT:      -7.3      2.914      7.088
REMARK  Name = 
REMARK  2 active torsions:
REMARK  status: ('A' for Active; 'I' for Inactive)
REMARK    1  A    between atoms: N_10  and  C_11
REMARK    2  A    between atoms: C_14  and  C_15
REMARK                            x       y       z     vdW  Elec       q    Type
REMARK                         _______ _______ _______ _____ _____    ______ ____
ROOT
ATOM      1  O   UNL     1       7.152   5.338  20.134  0.00  0.00    +0.000 OA
ATOM      2  C   UNL     1       6.811   5.090  18.982  0.00  0.00    +0.000 A 
ATOM      3  N   UNL     1       7.686   4.727  17.936  0.00  0.00    +0.000 N 
ATOM      4  C   UNL     1       6.951   4.561  16.767  0.00  0.00    +0.000 A 
ATOM      5  C   UNL     1       7.403   4.309  15.492  0.00  0.00    +0.000 A 
ATOM      6  C   UNL     1       6.444   4.299  14.475  0.00  0.00    +0.000 A 
ATOM      7  C   UNL     1       5.081   4.530  14.756  0.00  0.00    +0.000 A 
ATOM      8  C   UNL     1       4.641   4.759  16.065  0.00  0.00    +0.000 A 
ATOM      9  C   UNL     1       5.598   4.761  17.060  0.00  0.00    +0.000 A 
ATOM     10  N   UNL     1       5.513   5.067  18.420  0.00  0.00    +0.000 N 
ATOM     11  H   UNL     1       8.685   4.649  18.046  0.00  0.00    +0.000 HD
ENDROOT
BRANCH  10  12
ATOM     12  C   UNL     1       4.341   5.328  19.095  0.00  0.00    +0.000 A 
ATOM     13  C   UNL     1       3.502   4.357  19.584  0.00  0.00    +0.000 A 
ATOM     14  S   UNL     1       2.116   5.077  20.272  0.00  0.00    +0.000 S 
ATOM     15  C   UNL     1       2.675   6.629  19.763  0.00  0.00    +0.000 A 
ATOM     16  N   UNL     1       3.911   6.633  19.293  0.00  0.00    +0.000 NA
BRANCH  15  17
ATOM     17  C   UNL     1       1.820   7.826  19.883  0.00  0.00    +0.000 A 
ATOM     18  C   UNL     1       1.670   8.681  18.788  0.00  0.00    +0.000 A 
ATOM     19  C   UNL     1       0.863   9.803  18.918  0.00  0.00    +0.000 A 
ATOM     20  N   UNL     1       0.193  10.120  20.045  0.00  0.00    +0.000 NA
ATOM     21  C   UNL     1       0.324   9.273  21.084  0.00  0.00    +0.000 A 
ATOM     22  C   UNL     1       1.109   8.132  21.052  0.00  0.00    +0.000 A 
ENDBRANCH  15  17
ENDBRANCH  10  12
TORSDOF 2
ENDMDL
