MODEL 1
REMARK VINA RESULT:      -7.8      0.000      0.000
REMARK  Name = 
REMARK  8 active torsions:
REMARK  status: ('A' for Active; 'I' for Inactive)
REMARK    1  A    between atoms: C_1  and  C_2
REMARK    2  A    between atoms: N_4  and  C_5
REMARK    3  A    between atoms: C_5  and  C_6
REMARK    4  A    between atoms: C_5  and  C_7
REMARK    5  A    between atoms: C_10  and  O_11
REMARK    6  A    between atoms: O_11  and  C_12
REMARK    7  A    between atoms: N_15  and  C_16
REMARK    8  A    between atoms: C_20  and  C_21
REMARK                            x       y       z     vdW  Elec       q    Type
REMARK                         _______ _______ _______ _____ _____    ______ ____
ROOT
ATOM      1  C   UNL     1       1.817   6.469  19.823  0.00  0.00    +0.000 C 
ATOM      2  C   UNL     1       1.872   5.018  20.304  0.00  0.00    +0.000 C 
ATOM      3  C   UNL     1       3.349   4.635  20.254  0.00  0.00    +0.000 C 
ATOM      4  N   UNL     1       3.888   5.432  19.162  0.00  0.00    +0.000 N 
ATOM      5  C   UNL     1       3.026   6.585  18.878  0.00  0.00    +0.000 C 
ENDROOT
BRANCH   4   6
ATOM      6  C   UNL     1       5.079   5.203  18.499  0.00  0.00    +0.000 A 
ATOM      7  C   UNL     1       6.313   5.507  19.078  0.00  0.00    +0.000 A 
ATOM      8  C   UNL     1       7.495   5.229  18.396  0.00  0.00    +0.000 A 
ATOM      9  N   UNL     1       7.551   4.685  17.164  0.00  0.00    +0.000 NA
ATOM     10  C   UNL     1       6.371   4.387  16.564  0.00  0.00    +0.000 A 
ATOM     11  C   UNL     1       5.148   4.633  17.211  0.00  0.00    +0.000 A 
ATOM     12  F   UNL     1       4.023   4.311  16.549  0.00  0.00    +0.000 F 
BRANCH  10  13
ATOM     13  C   UNL     1       6.376   3.805  15.166  0.00  0.00    +0.000 C 
ATOM     14  C   UNL     1       5.472   4.336  14.081  0.00  0.00    +0.000 C 
ATOM     15  C   UNL     1       6.943   4.621  14.028  0.00  0.00    +0.000 C 
ENDBRANCH  10  13
ENDBRANCH   4   6
BRANCH   1  16
ATOM     16  O   UNL     1       1.913   7.337  20.964  0.00  0.00    +0.000 OA
BRANCH  16  20
ATOM     17  C   UNL     1      -0.108  11.021  20.966  0.00  0.00    +0.000 A 
ATOM     18  C   UNL     1       0.039  10.248  22.125  0.00  0.00    +0.000 A 
ATOM     19  C   UNL     1       0.715   9.019  22.082  0.00  0.00    +0.000 A 
ATOM     20  C   UNL     1       1.237   8.530  20.881  0.00  0.00    +0.000 A 
ATOM     21  C   UNL     1       1.089   9.290  19.723  0.00  0.00    +0.000 A 
ATOM     22  C   UNL     1       0.425  10.523  19.766  0.00  0.00    +0.000 A 
BRANCH  17  23
ATOM     23  C   UNL     1      -0.811  12.373  21.007  0.00  0.00    +0.000 C 
ATOM     24  C   UNL     1      -2.217  12.263  20.404  0.00  0.00    +0.000 C 
BRANCH  23  28
ATOM     25  C   UNL     1       1.707  15.046  20.035  0.00  0.00    +0.000 C 
ATOM     26  C   UNL     1       0.958  14.126  20.962  0.00  0.00    +0.000 C 
ATOM     27  O   UNL     1       1.189  14.076  22.164  0.00  0.00    +0.000 OA
ATOM     28  N   UNL     1       0.010  13.364  20.319  0.00  0.00    +0.000 N 
ATOM     29  H   UNL     1       0.106  13.259  19.317  0.00  0.00    +0.000 HD
ENDBRANCH  23  28
ENDBRANCH  17  23
ENDBRANCH  16  20
ENDBRANCH   1  16
TORSDOF 6
ENDMDL
MODEL 2
REMARK VINA RESULT:      -7.8      1.855      2.508
REMARK  Name = 
REMARK  8 active torsions:
REMARK  status: ('A' for Active; 'I' for Inactive)
REMARK    1  A    between atoms: C_1  and  C_2
REMARK    2  A    between atoms: N_4  and  C_5
REMARK    3  A    between atoms: C_5  and  C_6
REMARK    4  A    between atoms: C_5  and  C_7
REMARK    5  A    between atoms: C_10  and  O_11
REMARK    6  A    between atoms: O_11  and  C_12
REMARK    7  A    between atoms: N_15  and  C_16
REMARK    8  A    between atoms: C_20  and  C_21
REMARK                            x       y       z     vdW  Elec       q    Type
REMARK                         _______ _______ _______ _____ _____    ______ ____
ROOT
ATOM      1  C   UNL     1       1.912   6.789  19.312  0.00  0.00    +0.000 C 
ATOM      2  C   UNL     1       2.039   5.515  20.148  0.00  0.00    +0.000 C 
ATOM      3  C   UNL     1       3.530   5.188  20.160  0.00  0.00    +0.000 C 
ATOM      4  N   UNL     1       4.017   5.696  18.886  0.00  0.00    +0.000 N 
ATOM      5  C   UNL     1       3.101   6.703  18.337  0.00  0.00    +0.000 C 
ENDROOT
BRANCH   4   6
ATOM      6  C   UNL     1       5.207   5.350  18.274  0.00  0.00    +0.000 A 
ATOM      7  C   UNL     1       6.439   5.535  18.903  0.00  0.00    +0.000 A 
ATOM      8  C   UNL     1       7.615   5.141  18.272  0.00  0.00    +0.000 A 
ATOM      9  N   UNL     1       7.669   4.587  17.043  0.00  0.00    +0.000 NA
ATOM     10  C   UNL     1       6.491   4.401  16.395  0.00  0.00    +0.000 A 
ATOM     11  C   UNL     1       5.273   4.769  16.991  0.00  0.00    +0.000 A 
ATOM     12  F   UNL     1       4.150   4.554  16.283  0.00  0.00    +0.000 F 
BRANCH  10  13
ATOM     13  C   UNL     1       6.498   3.814  15.000  0.00  0.00    +0.000 C 
ATOM     14  C   UNL     1       5.562   4.309  13.925  0.00  0.00    +0.000 C 
ATOM     15  C   UNL     1       7.021   4.645  13.851  0.00  0.00    +0.000 C 
ENDBRANCH  10  13
ENDBRANCH   4   6
BRANCH   1  16
ATOM     16  O   UNL     1       1.988   7.925  20.188  0.00  0.00    +0.000 OA
BRANCH  16  20
ATOM     17  C   UNL     1      -0.485  11.239  19.444  0.00  0.00    +0.000 A 
ATOM     18  C   UNL     1      -0.645  10.425  20.574  0.00  0.00    +0.000 A 
ATOM     19  C   UNL     1       0.197   9.323  20.783  0.00  0.00    +0.000 A 
ATOM     20  C   UNL     1       1.198   9.000  19.861  0.00  0.00    +0.000 A 
ATOM     21  C   UNL     1       1.358   9.801  18.733  0.00  0.00    +0.000 A 
ATOM     22  C   UNL     1       0.526  10.909  18.528  0.00  0.00    +0.000 A 
BRANCH  17  23
ATOM     23  C   UNL     1      -1.373  12.459  19.223  0.00  0.00    +0.000 C 
ATOM     24  C   UNL     1      -1.222  13.448  20.385  0.00  0.00    +0.000 C 
BRANCH  23  28
ATOM     25  C   UNL     1      -4.672  11.096  17.925  0.00  0.00    +0.000 C 
ATOM     26  C   UNL     1      -3.228  11.517  17.854  0.00  0.00    +0.000 C 
ATOM     27  O   UNL     1      -2.563  11.407  16.832  0.00  0.00    +0.000 OA
ATOM     28  N   UNL     1      -2.753  12.023  19.042  0.00  0.00    +0.000 N 
ATOM     29  H   UNL     1      -3.272  11.793  19.881  0.00  0.00    +0.000 HD
ENDBRANCH  23  28
ENDBRANCH  17  23
ENDBRANCH  16  20
ENDBRANCH   1  16
TORSDOF 6
ENDMDL
MODEL 3
REMARK VINA RESULT:      -7.7      1.464      1.590
REMARK  Name = 
REMARK  8 active torsions:
REMARK  status: ('A' for Active; 'I' for Inactive)
REMARK    1  A    between atoms: C_1  and  C_2
REMARK    2  A    between atoms: N_4  and  C_5
REMARK    3  A    between atoms: C_5  and  C_6
REMARK    4  A    between atoms: C_5  and  C_7
REMARK    5  A    between atoms: C_10  and  O_11
REMARK    6  A    between atoms: O_11  and  C_12
REMARK    7  A    between atoms: N_15  and  C_16
REMARK    8  A    between atoms: C_20  and  C_21
REMARK                            x       y       z     vdW  Elec       q    Type
REMARK                         _______ _______ _______ _____ _____    ______ ____
ROOT
ATOM      1  C   UNL     1       1.940   6.838  19.550  0.00  0.00    +0.000 C 
ATOM      2  C   UNL     1       1.895   5.420  20.119  0.00  0.00    +0.000 C 
ATOM      3  C   UNL     1       3.346   4.948  20.139  0.00  0.00    +0.000 C 
ATOM      4  N   UNL     1       3.963   5.642  19.018  0.00  0.00    +0.000 N 
ATOM      5  C   UNL     1       3.180   6.824  18.638  0.00  0.00    +0.000 C 
ENDROOT
BRANCH   4   6
ATOM      6  C   UNL     1       5.157   5.304  18.409  0.00  0.00    +0.000 A 
ATOM      7  C   UNL     1       6.385   5.475  19.051  0.00  0.00    +0.000 A 
ATOM      8  C   UNL     1       7.565   5.089  18.422  0.00  0.00    +0.000 A 
ATOM      9  N   UNL     1       7.626   4.556  17.184  0.00  0.00    +0.000 NA
ATOM     10  C   UNL     1       6.453   4.384  16.524  0.00  0.00    +0.000 A 
ATOM     11  C   UNL     1       5.231   4.745  17.117  0.00  0.00    +0.000 A 
ATOM     12  F   UNL     1       4.113   4.545  16.397  0.00  0.00    +0.000 F 
BRANCH  10  13
ATOM     13  C   UNL     1       6.468   3.821  15.119  0.00  0.00    +0.000 C 
ATOM     14  C   UNL     1       5.499   4.293  14.064  0.00  0.00    +0.000 C 
ATOM     15  C   UNL     1       6.941   4.693  13.978  0.00  0.00    +0.000 C 
ENDBRANCH  10  13
ENDBRANCH   4   6
BRANCH   1  16
ATOM     16  O   UNL     1       2.057   7.769  20.638  0.00  0.00    +0.000 OA
BRANCH  16  20
ATOM     17  C   UNL     1      -0.722  10.900  21.003  0.00  0.00    +0.000 A 
ATOM     18  C   UNL     1      -0.359  10.092  22.089  0.00  0.00    +0.000 A 
ATOM     19  C   UNL     1       0.568   9.051  21.925  0.00  0.00    +0.000 A 
ATOM     20  C   UNL     1       1.132   8.785  20.674  0.00  0.00    +0.000 A 
ATOM     21  C   UNL     1       0.771   9.580  19.589  0.00  0.00    +0.000 A 
ATOM     22  C   UNL     1      -0.145  10.627  19.753  0.00  0.00    +0.000 A 
BRANCH  17  23
ATOM     23  C   UNL     1      -1.702  12.054  21.177  0.00  0.00    +0.000 C 
ATOM     24  C   UNL     1      -1.905  12.788  19.846  0.00  0.00    +0.000 C 
BRANCH  23  28
ATOM     25  C   UNL     1      -1.328  14.425  24.121  0.00  0.00    +0.000 C 
ATOM     26  C   UNL     1      -2.061  13.602  23.095  0.00  0.00    +0.000 C 
ATOM     27  O   UNL     1      -3.283  13.540  23.057  0.00  0.00    +0.000 OA
ATOM     28  N   UNL     1      -1.219  12.942  22.230  0.00  0.00    +0.000 N 
ATOM     29  H   UNL     1      -0.259  12.816  22.526  0.00  0.00    +0.000 HD
ENDBRANCH  23  28
ENDBRANCH  17  23
ENDBRANCH  16  20
ENDBRANCH   1  16
TORSDOF 6
ENDMDL
MODEL 4
REMARK VINA RESULT:      -7.7      3.121      9.819
REMARK  Name = 
REMARK  8 active torsions:
REMARK  status: ('A' for Active; 'I' for Inactive)
REMARK    1  A    between atoms: C_1  and  C_2
REMARK    2  A    between atoms: N_4  and  C_5
REMARK    3  A    between atoms: C_5  and  C_6
REMARK    4  A    between atoms: C_5  and  C_7
REMARK    5  A    between atoms: C_10  and  O_11
REMARK    6  A    between atoms: O_11  and  C_12
REMARK    7  A    between atoms: N_15  and  C_16
REMARK    8  A    between atoms: C_20  and  C_21
REMARK                            x       y       z     vdW  Elec       q    Type
REMARK                         _______ _______ _______ _____ _____    ______ ____
ROOT
ATOM      1  C   UNL     1       2.648   5.951  19.106  0.00  0.00    +0.000 C 
ATOM      2  C   UNL     1       2.271   6.892  17.962  0.00  0.00    +0.000 C 
ATOM      3  C   UNL     1       2.131   8.270  18.604  0.00  0.00    +0.000 C 
ATOM      4  N   UNL     1       1.685   7.988  19.961  0.00  0.00    +0.000 N 
ATOM      5  C   UNL     1       2.007   6.607  20.342  0.00  0.00    +0.000 C 
ENDROOT
BRANCH   4   6
ATOM      6  C   UNL     1       1.094   8.888  20.827  0.00  0.00    +0.000 A 
ATOM      7  C   UNL     1       1.016   8.645  22.199  0.00  0.00    +0.000 A 
ATOM      8  C   UNL     1       0.446   9.591  23.047  0.00  0.00    +0.000 A 
ATOM      9  N   UNL     1      -0.075  10.765  22.635  0.00  0.00    +0.000 NA
ATOM     10  C   UNL     1      -0.027  11.031  21.305  0.00  0.00    +0.000 A 
ATOM     11  C   UNL     1       0.549  10.118  20.406  0.00  0.00    +0.000 A 
ATOM     12  F   UNL     1       0.556  10.455  19.104  0.00  0.00    +0.000 F 
BRANCH  10  13
ATOM     13  C   UNL     1      -0.627  12.320  20.785  0.00  0.00    +0.000 C 
ATOM     14  C   UNL     1      -1.734  12.324  19.761  0.00  0.00    +0.000 C 
ATOM     15  C   UNL     1      -2.038  12.691  21.183  0.00  0.00    +0.000 C 
ENDBRANCH  10  13
ENDBRANCH   4   6
BRANCH   1  16
ATOM     16  O   UNL     1       4.080   5.877  19.191  0.00  0.00    +0.000 OA
BRANCH  16  20
ATOM     17  C   UNL     1       5.897   4.639  15.611  0.00  0.00    +0.000 A 
ATOM     18  C   UNL     1       4.914   3.875  16.254  0.00  0.00    +0.000 A 
ATOM     19  C   UNL     1       4.336   4.319  17.452  0.00  0.00    +0.000 A 
ATOM     20  C   UNL     1       4.742   5.521  18.041  0.00  0.00    +0.000 A 
ATOM     21  C   UNL     1       5.722   6.282  17.411  0.00  0.00    +0.000 A 
ATOM     22  C   UNL     1       6.293   5.847  16.208  0.00  0.00    +0.000 A 
BRANCH  17  23
ATOM     23  C   UNL     1       6.508   4.183  14.291  0.00  0.00    +0.000 C 
ATOM     24  C   UNL     1       7.550   5.197  13.804  0.00  0.00    +0.000 C 
BRANCH  23  28
ATOM     25  C   UNL     1       4.368   3.126  11.336  0.00  0.00    +0.000 C 
ATOM     26  C   UNL     1       5.621   3.240  12.163  0.00  0.00    +0.000 C 
ATOM     27  O   UNL     1       6.678   2.722  11.825  0.00  0.00    +0.000 OA
ATOM     28  N   UNL     1       5.444   3.971  13.315  0.00  0.00    +0.000 N 
ATOM     29  H   UNL     1       4.494   4.090  13.645  0.00  0.00    +0.000 HD
ENDBRANCH  23  28
ENDBRANCH  17  23
ENDBRANCH  16  20
ENDBRANCH   1  16
TORSDOF 6
ENDMDL
MODEL 5
REMARK VINA RESULT:      -7.7      1.385      1.471
REMARK  Name = 
REMARK  8 active torsions:
REMARK  status: ('A' for Active; 'I' for Inactive)
REMARK    1  A    between atoms: C_1  and  C_2
REMARK    2  A    between atoms: N_4  and  C_5
REMARK    3  A    between atoms: C_5  and  C_6
REMARK    4  A    between atoms: C_5  and  C_7
REMARK    5  A    between atoms: C_10  and  O_11
REMARK    6  A    between atoms: O_11  and  C_12
REMARK    7  A    between atoms: N_15  and  C_16
REMARK    8  A    between atoms: C_20  and  C_21
REMARK                            x       y       z     vdW  Elec       q    Type
REMARK                         _______ _______ _______ _____ _____    ______ ____
ROOT
ATOM      1  C   UNL     1       2.067   6.611  19.268  0.00  0.00    +0.000 C 
ATOM      2  C   UNL     1       2.673   5.447  20.053  0.00  0.00    +0.000 C 
ATOM      3  C   UNL     1       4.153   5.437  19.679  0.00  0.00    +0.000 C 
ATOM      4  N   UNL     1       4.181   5.952  18.318  0.00  0.00    +0.000 N 
ATOM      5  C   UNL     1       2.961   6.710  18.018  0.00  0.00    +0.000 C 
ENDROOT
BRANCH   4   6
ATOM      6  C   UNL     1       5.224   5.821  17.420  0.00  0.00    +0.000 A 
ATOM      7  C   UNL     1       6.369   6.614  17.502  0.00  0.00    +0.000 A 
ATOM      8  C   UNL     1       7.416   6.430  16.604  0.00  0.00    +0.000 A 
ATOM      9  N   UNL     1       7.410   5.522  15.606  0.00  0.00    +0.000 NA
ATOM     10  C   UNL     1       6.308   4.739  15.487  0.00  0.00    +0.000 A 
ATOM     11  C   UNL     1       5.227   4.874  16.375  0.00  0.00    +0.000 A 
ATOM     12  F   UNL     1       4.171   4.062  16.190  0.00  0.00    +0.000 F 
BRANCH  10  13
ATOM     13  C   UNL     1       6.235   3.727  14.364  0.00  0.00    +0.000 C 
ATOM     14  C   UNL     1       5.264   3.878  13.220  0.00  0.00    +0.000 C 
ATOM     15  C   UNL     1       6.726   4.113  12.988  0.00  0.00    +0.000 C 
ENDBRANCH  10  13
ENDBRANCH   4   6
BRANCH   1  16
ATOM     16  O   UNL     1       2.113   7.792  20.084  0.00  0.00    +0.000 OA
BRANCH  16  20
ATOM     17  C   UNL     1      -0.710  10.840  19.457  0.00  0.00    +0.000 A 
ATOM     18  C   UNL     1      -0.573  10.190  20.691  0.00  0.00    +0.000 A 
ATOM     19  C   UNL     1       0.378   9.171  20.858  0.00  0.00    +0.000 A 
ATOM     20  C   UNL     1       1.192   8.769  19.796  0.00  0.00    +0.000 A 
ATOM     21  C   UNL     1       1.057   9.407  18.565  0.00  0.00    +0.000 A 
ATOM     22  C   UNL     1       0.117  10.432  18.398  0.00  0.00    +0.000 A 
BRANCH  17  23
ATOM     23  C   UNL     1      -1.716  11.971  19.273  0.00  0.00    +0.000 C 
ATOM     24  C   UNL     1      -2.859  11.524  18.354  0.00  0.00    +0.000 C 
BRANCH  23  28
ATOM     25  C   UNL     1       0.221  15.208  18.829  0.00  0.00    +0.000 C 
ATOM     26  C   UNL     1      -0.475  14.108  19.585  0.00  0.00    +0.000 C 
ATOM     27  O   UNL     1      -0.530  14.087  20.808  0.00  0.00    +0.000 OA
ATOM     28  N   UNL     1      -1.025  13.151  18.764  0.00  0.00    +0.000 N 
ATOM     29  H   UNL     1      -0.672  13.098  17.816  0.00  0.00    +0.000 HD
ENDBRANCH  23  28
ENDBRANCH  17  23
ENDBRANCH  16  20
ENDBRANCH   1  16
TORSDOF 6
ENDMDL
MODEL 6
REMARK VINA RESULT:      -7.6      1.648      1.739
REMARK  Name = 
REMARK  8 active torsions:
REMARK  status: ('A' for Active; 'I' for Inactive)
REMARK    1  A    between atoms: C_1  and  C_2
REMARK    2  A    between atoms: N_4  and  C_5
REMARK    3  A    between atoms: C_5  and  C_6
REMARK    4  A    between atoms: C_5  and  C_7
REMARK    5  A    between atoms: C_10  and  O_11
REMARK    6  A    between atoms: O_11  and  C_12
REMARK    7  A    between atoms: N_15  and  C_16
REMARK    8  A    between atoms: C_20  and  C_21
REMARK                            x       y       z     vdW  Elec       q    Type
REMARK                         _______ _______ _______ _____ _____    ______ ____
ROOT
ATOM      1  C   UNL     1       2.113   6.321  19.479  0.00  0.00    +0.000 C 
ATOM      2  C   UNL     1       2.672   5.029  20.076  0.00  0.00    +0.000 C 
ATOM      3  C   UNL     1       4.149   5.014  19.689  0.00  0.00    +0.000 C 
ATOM      4  N   UNL     1       4.192   5.724  18.419  0.00  0.00    +0.000 N 
ATOM      5  C   UNL     1       3.004   6.568  18.248  0.00  0.00    +0.000 C 
ENDROOT
BRANCH   4   6
ATOM      6  C   UNL     1       5.224   5.685  17.500  0.00  0.00    +0.000 A 
ATOM      7  C   UNL     1       6.318   6.549  17.586  0.00  0.00    +0.000 A 
ATOM      8  C   UNL     1       7.358   6.457  16.665  0.00  0.00    +0.000 A 
ATOM      9  N   UNL     1       7.391   5.578  15.642  0.00  0.00    +0.000 NA
ATOM     10  C   UNL     1       6.339   4.729  15.520  0.00  0.00    +0.000 A 
ATOM     11  C   UNL     1       5.269   4.769  16.429  0.00  0.00    +0.000 A 
ATOM     12  F   UNL     1       4.264   3.895  16.239  0.00  0.00    +0.000 F 
BRANCH  10  13
ATOM     13  C   UNL     1       6.311   3.745  14.370  0.00  0.00    +0.000 C 
ATOM     14  C   UNL     1       5.349   3.897  13.218  0.00  0.00    +0.000 C 
ATOM     15  C   UNL     1       6.806   4.182  13.010  0.00  0.00    +0.000 C 
ENDBRANCH  10  13
ENDBRANCH   4   6
BRANCH   1  16
ATOM     16  O   UNL     1       2.212   7.364  20.461  0.00  0.00    +0.000 OA
BRANCH  16  20
ATOM     17  C   UNL     1      -0.457  10.606  20.307  0.00  0.00    +0.000 A 
ATOM     18  C   UNL     1      -0.322   9.801  21.446  0.00  0.00    +0.000 A 
ATOM     19  C   UNL     1       0.576   8.723  21.456  0.00  0.00    +0.000 A 
ATOM     20  C   UNL     1       1.338   8.415  20.325  0.00  0.00    +0.000 A 
ATOM     21  C   UNL     1       1.205   9.206  19.187  0.00  0.00    +0.000 A 
ATOM     22  C   UNL     1       0.318  10.291  19.179  0.00  0.00    +0.000 A 
BRANCH  17  23
ATOM     23  C   UNL     1      -1.404  11.800  20.295  0.00  0.00    +0.000 C 
ATOM     24  C   UNL     1      -1.375  12.493  18.928  0.00  0.00    +0.000 C 
BRANCH  23  28
ATOM     25  C   UNL     1      -1.227  13.812  23.512  0.00  0.00    +0.000 C 
ATOM     26  C   UNL     1      -1.819  12.854  22.514  0.00  0.00    +0.000 C 
ATOM     27  O   UNL     1      -2.879  12.273  22.712  0.00  0.00    +0.000 OA
ATOM     28  N   UNL     1      -1.050  12.706  21.383  0.00  0.00    +0.000 N 
ATOM     29  H   UNL     1      -0.077  12.980  21.448  0.00  0.00    +0.000 HD
ENDBRANCH  23  28
ENDBRANCH  17  23
ENDBRANCH  16  20
ENDBRANCH   1  16
TORSDOF 6
ENDMDL
MODEL 7
REMARK VINA RESULT:      -7.6      2.639      3.962
REMARK  Name = 
REMARK  8 active torsions:
REMARK  status: ('A' for Active; 'I' for Inactive)
REMARK    1  A    between atoms: C_1  and  C_2
REMARK    2  A    between atoms: N_4  and  C_5
REMARK    3  A    between atoms: C_5  and  C_6
REMARK    4  A    between atoms: C_5  and  C_7
REMARK    5  A    between atoms: C_10  and  O_11
REMARK    6  A    between atoms: O_11  and  C_12
REMARK    7  A    between atoms: N_15  and  C_16
REMARK    8  A    between atoms: C_20  and  C_21
REMARK                            x       y       z     vdW  Elec       q    Type
REMARK                         _______ _______ _______ _____ _____    ______ ____
ROOT
ATOM      1  C   UNL     1       1.401   9.269  20.001  0.00  0.00    +0.000 C 
ATOM      2  C   UNL     1       1.792   9.832  18.635  0.00  0.00    +0.000 C 
ATOM      3  C   UNL     1       1.832   8.626  17.700  0.00  0.00    +0.000 C 
ATOM      4  N   UNL     1       2.218   7.519  18.562  0.00  0.00    +0.000 N 
ATOM      5  C   UNL     1       1.943   7.829  19.970  0.00  0.00    +0.000 C 
ENDROOT
BRANCH   4   6
ATOM      6  C   UNL     1       2.718   6.300  18.145  0.00  0.00    +0.000 A 
ATOM      7  C   UNL     1       2.022   5.108  18.355  0.00  0.00    +0.000 A 
ATOM      8  C   UNL     1       2.538   3.902  17.889  0.00  0.00    +0.000 A 
ATOM      9  N   UNL     1       3.714   3.780  17.240  0.00  0.00    +0.000 NA
ATOM     10  C   UNL     1       4.425   4.916  17.027  0.00  0.00    +0.000 A 
ATOM     11  C   UNL     1       3.945   6.162  17.464  0.00  0.00    +0.000 A 
ATOM     12  F   UNL     1       4.710   7.241  17.216  0.00  0.00    +0.000 F 
BRANCH  10  13
ATOM     13  C   UNL     1       5.768   4.831  16.331  0.00  0.00    +0.000 C 
ATOM     14  C   UNL     1       6.077   3.745  15.332  0.00  0.00    +0.000 C 
ATOM     15  C   UNL     1       5.857   5.149  14.856  0.00  0.00    +0.000 C 
ENDBRANCH  10  13
ENDBRANCH   4   6
BRANCH   1  16
ATOM     16  O   UNL     1      -0.029   9.326  20.133  0.00  0.00    +0.000 OA
BRANCH  16  20
ATOM     17  C   UNL     1      -1.717  12.527  22.268  0.00  0.00    +0.000 A 
ATOM     18  C   UNL     1      -1.674  12.502  20.868  0.00  0.00    +0.000 A 
ATOM     19  C   UNL     1      -1.094  11.418  20.191  0.00  0.00    +0.000 A 
ATOM     20  C   UNL     1      -0.531  10.351  20.897  0.00  0.00    +0.000 A 
ATOM     21  C   UNL     1      -0.565  10.372  22.289  0.00  0.00    +0.000 A 
ATOM     22  C   UNL     1      -1.152  11.448  22.967  0.00  0.00    +0.000 A 
BRANCH  17  23
ATOM     23  C   UNL     1      -2.373  13.683  23.014  0.00  0.00    +0.000 C 
ATOM     24  C   UNL     1      -1.364  14.355  23.953  0.00  0.00    +0.000 C 
BRANCH  23  28
ATOM     25  C   UNL     1      -5.866  12.667  24.107  0.00  0.00    +0.000 C 
ATOM     26  C   UNL     1      -4.823  13.279  23.211  0.00  0.00    +0.000 C 
ATOM     27  O   UNL     1      -5.104  13.793  22.135  0.00  0.00    +0.000 OA
ATOM     28  N   UNL     1      -3.549  13.193  23.724  0.00  0.00    +0.000 N 
ATOM     29  H   UNL     1      -3.389  12.502  24.446  0.00  0.00    +0.000 HD
ENDBRANCH  23  28
ENDBRANCH  17  23
ENDBRANCH  16  20
ENDBRANCH   1  16
TORSDOF 6
ENDMDL
MODEL 8
REMARK VINA RESULT:      -7.5      3.260      8.595
REMARK  Name = 
REMARK  8 active torsions:
REMARK  status: ('A' for Active; 'I' for Inactive)
REMARK    1  A    between atoms: C_1  and  C_2
REMARK    2  A    between atoms: N_4  and  C_5
REMARK    3  A    between atoms: C_5  and  C_6
REMARK    4  A    between atoms: C_5  and  C_7
REMARK    5  A    between atoms: C_10  and  O_11
REMARK    6  A    between atoms: O_11  and  C_12
REMARK    7  A    between atoms: N_15  and  C_16
REMARK    8  A    between atoms: C_20  and  C_21
REMARK                            x       y       z     vdW  Elec       q    Type
REMARK                         _______ _______ _______ _____ _____    ______ ____
ROOT
ATOM      1  C   UNL     1       2.667   3.393  21.005  0.00  0.00    +0.000 C 
ATOM      2  C   UNL     1       1.227   3.254  20.510  0.00  0.00    +0.000 C 
ATOM      3  C   UNL     1       1.042   4.377  19.493  0.00  0.00    +0.000 C 
ATOM      4  N   UNL     1       1.925   5.435  19.963  0.00  0.00    +0.000 N 
ATOM      5  C   UNL     1       2.960   4.897  20.854  0.00  0.00    +0.000 C 
ENDROOT
BRANCH   4   6
ATOM      6  C   UNL     1       1.869   6.765  19.594  0.00  0.00    +0.000 A 
ATOM      7  C   UNL     1       2.291   7.198  18.336  0.00  0.00    +0.000 A 
ATOM      8  C   UNL     1       2.186   8.541  17.984  0.00  0.00    +0.000 A 
ATOM      9  N   UNL     1       1.706   9.504  18.798  0.00  0.00    +0.000 NA
ATOM     10  C   UNL     1       1.296   9.123  20.034  0.00  0.00    +0.000 A 
ATOM     11  C   UNL     1       1.367   7.778  20.437  0.00  0.00    +0.000 A 
ATOM     12  F   UNL     1       0.942   7.482  21.678  0.00  0.00    +0.000 F 
BRANCH  10  13
ATOM     13  C   UNL     1       0.779  10.169  20.999  0.00  0.00    +0.000 C 
ATOM     14  C   UNL     1       0.701  11.627  20.622  0.00  0.00    +0.000 C 
ATOM     15  C   UNL     1      -0.558  10.821  20.735  0.00  0.00    +0.000 C 
ENDBRANCH  10  13
ENDBRANCH   4   6
BRANCH   1  16
ATOM     16  O   UNL     1       3.517   2.572  20.189  0.00  0.00    +0.000 OA
BRANCH  16  20
ATOM     17  C   UNL     1       5.306   4.489  16.906  0.00  0.00    +0.000 A 
ATOM     18  C   UNL     1       4.226   3.607  16.760  0.00  0.00    +0.000 A 
ATOM     19  C   UNL     1       3.661   2.981  17.881  0.00  0.00    +0.000 A 
ATOM     20  C   UNL     1       4.173   3.205  19.162  0.00  0.00    +0.000 A 
ATOM     21  C   UNL     1       5.250   4.075  19.314  0.00  0.00    +0.000 A 
ATOM     22  C   UNL     1       5.810   4.711  18.198  0.00  0.00    +0.000 A 
BRANCH  17  23
ATOM     23  C   UNL     1       5.908   5.201  15.700  0.00  0.00    +0.000 C 
ATOM     24  C   UNL     1       5.229   6.559  15.487  0.00  0.00    +0.000 C 
BRANCH  23  28
ATOM     25  C   UNL     1       6.371   3.399  12.388  0.00  0.00    +0.000 C 
ATOM     26  C   UNL     1       6.656   4.422  13.455  0.00  0.00    +0.000 C 
ATOM     27  O   UNL     1       7.567   5.234  13.358  0.00  0.00    +0.000 OA
ATOM     28  N   UNL     1       5.799   4.337  14.528  0.00  0.00    +0.000 N 
ATOM     29  H   UNL     1       5.296   3.467  14.649  0.00  0.00    +0.000 HD
ENDBRANCH  23  28
ENDBRANCH  17  23
ENDBRANCH  16  20
ENDBRANCH   1  16
TORSDOF 6
ENDMDL
MODEL 9
REMARK VINA RESULT:      -7.5      3.572     10.376
REMARK  Name = 
REMARK  8 active torsions:
REMARK  status: ('A' for Active; 'I' for Inactive)
REMARK    1  A    between atoms: C_1  and  C_2
REMARK    2  A    between atoms: N_4  and  C_5
REMARK    3  A    between atoms: C_5  and  C_6
REMARK    4  A    between atoms: C_5  and  C_7
REMARK    5  A    between atoms: C_10  and  O_11
REMARK    6  A    between atoms: O_11  and  C_12
REMARK    7  A    between atoms: N_15  and  C_16
REMARK    8  A    between atoms: C_20  and  C_21
REMARK                            x       y       z     vdW  Elec       q    Type
REMARK                         _______ _______ _______ _____ _____    ______ ____
ROOT
ATOM      1  C   UNL     1       1.086   9.745  18.100  0.00  0.00    +0.000 C 
ATOM      2  C   UNL     1       1.282  11.128  18.723  0.00  0.00    +0.000 C 
ATOM      3  C   UNL     1      -0.106  11.557  19.193  0.00  0.00    +0.000 C 
ATOM      4  N   UNL     1      -1.016  10.913  18.257  0.00  0.00    +0.000 N 
ATOM      5  C   UNL     1      -0.366   9.779  17.590  0.00  0.00    +0.000 C 
ENDROOT
BRANCH   4   6
ATOM      6  C   UNL     1      -2.338  11.254  18.043  0.00  0.00    +0.000 A 
ATOM      7  C   UNL     1      -2.963  11.039  16.813  0.00  0.00    +0.000 A 
ATOM      8  C   UNL     1      -4.306  11.360  16.643  0.00  0.00    +0.000 A 
ATOM      9  N   UNL     1      -5.085  11.901  17.603  0.00  0.00    +0.000 NA
ATOM     10  C   UNL     1      -4.510  12.134  18.810  0.00  0.00    +0.000 A 
ATOM     11  C   UNL     1      -3.160  11.817  19.040  0.00  0.00    +0.000 A 
ATOM     12  F   UNL     1      -2.664  12.080  20.262  0.00  0.00    +0.000 F 
BRANCH  10  13
ATOM     13  C   UNL     1      -5.330  12.770  19.912  0.00  0.00    +0.000 C 
ATOM     14  C   UNL     1      -6.815  12.991  19.769  0.00  0.00    +0.000 C 
ATOM     15  C   UNL     1      -6.310  11.919  20.688  0.00  0.00    +0.000 C 
ENDBRANCH  10  13
ENDBRANCH   4   6
BRANCH   1  16
ATOM     16  O   UNL     1       1.301   8.749  19.113  0.00  0.00    +0.000 OA
BRANCH  16  20
ATOM     17  C   UNL     1       4.194   5.765  18.498  0.00  0.00    +0.000 A 
ATOM     18  C   UNL     1       3.359   5.777  19.624  0.00  0.00    +0.000 A 
ATOM     19  C   UNL     1       2.410   6.796  19.797  0.00  0.00    +0.000 A 
ATOM     20  C   UNL     1       2.290   7.829  18.863  0.00  0.00    +0.000 A 
ATOM     21  C   UNL     1       3.119   7.826  17.745  0.00  0.00    +0.000 A 
ATOM     22  C   UNL     1       4.060   6.804  17.564  0.00  0.00    +0.000 A 
BRANCH  17  23
ATOM     23  C   UNL     1       5.206   4.645  18.283  0.00  0.00    +0.000 C 
ATOM     24  C   UNL     1       6.183   5.016  17.161  0.00  0.00    +0.000 C 
BRANCH  23  28
ATOM     25  C   UNL     1       3.516   1.247  18.452  0.00  0.00    +0.000 C 
ATOM     26  C   UNL     1       4.316   2.419  18.957  0.00  0.00    +0.000 C 
ATOM     27  O   UNL     1       4.749   2.471  20.101  0.00  0.00    +0.000 OA
ATOM     28  N   UNL     1       4.496   3.400  18.010  0.00  0.00    +0.000 N 
ATOM     29  H   UNL     1       3.860   3.402  17.222  0.00  0.00    +0.000 HD
ENDBRANCH  23  28
ENDBRANCH  17  23
ENDBRANCH  16  20
ENDBRANCH   1  16
TORSDOF 6
ENDMDL
