MODEL 1
REMARK VINA RESULT:      -8.2      0.000      0.000
REMARK  Name = 
REMARK  3 active torsions:
REMARK  status: ('A' for Active; 'I' for Inactive)
REMARK    1  A    between atoms: C_2  and  C_3
REMARK    2  A    between atoms: C_4  and  N_5
REMARK    3  A    between atoms: C_13  and  C_14
REMARK                            x       y       z     vdW  Elec       q    Type
REMARK                         _______ _______ _______ _____ _____    ______ ____
ROOT
ATOM      1  C   UNL     1       2.215   7.581  19.331  0.00  0.00    +0.000 C 
ATOM      2  C   UNL     1       2.247   8.463  18.312  0.00  0.00    +0.000 C 
ATOM      3  O   UNL     1       3.085   8.296  17.218  0.00  0.00    +0.000 OA
ATOM      4  C   UNL     1       3.954   7.232  17.175  0.00  0.00    +0.000 A 
ATOM      5  C   UNL     1       4.714   7.100  16.009  0.00  0.00    +0.000 A 
ATOM      6  C   UNL     1       5.570   6.020  15.904  0.00  0.00    +0.000 A 
ATOM      7  C   UNL     1       5.739   5.141  16.968  0.00  0.00    +0.000 A 
ATOM      8  C   UNL     1       5.016   5.273  18.139  0.00  0.00    +0.000 A 
ATOM      9  C   UNL     1       4.067   6.305  18.225  0.00  0.00    +0.000 A 
ATOM     10  C   UNL     1       3.133   6.391  19.411  0.00  0.00    +0.000 C 
ATOM     11  C   UNL     1       6.785   4.142  16.632  0.00  0.00    +0.000 C 
ATOM     12  C   UNL     1       6.948   4.387  15.122  0.00  0.00    +0.000 C 
ATOM     13  N   UNL     1       6.333   5.680  14.764  0.00  0.00    +0.000 N 
ATOM     14  H   UNL     1       7.007   6.416  14.560  0.00  0.00    +0.000 HD
ENDROOT
BRANCH  10  15
ATOM     15  C   UNL     1       2.345   5.096  19.600  0.00  0.00    +0.000 A 
ATOM     16  C   UNL     1       1.702   4.469  18.513  0.00  0.00    +0.000 A 
ATOM     17  C   UNL     1       0.990   3.283  18.697  0.00  0.00    +0.000 A 
ATOM     18  C   UNL     1       0.908   2.711  19.963  0.00  0.00    +0.000 A 
ATOM     19  C   UNL     1       1.543   3.326  21.037  0.00  0.00    +0.000 A 
ATOM     20  F   UNL     1       1.469   2.769  22.252  0.00  0.00    +0.000 F 
ATOM     21  C   UNL     1       2.255   4.507  20.870  0.00  0.00    +0.000 A 
ENDBRANCH  10  15
BRANCH   2  22
ATOM     22  N   UNL     1       1.484   9.606  18.229  0.00  0.00    +0.000 N 
ATOM     23  H   UNL     1       1.928  10.472  18.521  0.00  0.00    +0.000 HD
ATOM     24  H   UNL     1       0.548   9.478  18.604  0.00  0.00    +0.000 HD
ENDBRANCH   2  22
BRANCH   1  26
ATOM     25  N   UNL     1       0.478   8.005  21.461  0.00  0.00    +0.000 NA
ATOM     26  C   UNL     1       1.266   7.813  20.495  0.00  0.00    +0.000 C 
ENDBRANCH   1  26
TORSDOF 3
ENDMDL
MODEL 2
REMARK VINA RESULT:      -8.1      0.919      1.361
REMARK  Name = 
REMARK  3 active torsions:
REMARK  status: ('A' for Active; 'I' for Inactive)
REMARK    1  A    between atoms: C_2  and  C_3
REMARK    2  A    between atoms: C_4  and  N_5
REMARK    3  A    between atoms: C_13  and  C_14
REMARK                            x       y       z     vdW  Elec       q    Type
REMARK                         _______ _______ _______ _____ _____    ______ ____
ROOT
ATOM      1  C   UNL     1       2.144   7.708  19.290  0.00  0.00    +0.000 C 
ATOM      2  C   UNL     1       2.102   8.464  18.176  0.00  0.00    +0.000 C 
ATOM      3  O   UNL     1       2.939   8.230  17.093  0.00  0.00    +0.000 OA
ATOM      4  C   UNL     1       3.882   7.231  17.158  0.00  0.00    +0.000 A 
ATOM      5  C   UNL     1       4.638   7.018  16.001  0.00  0.00    +0.000 A 
ATOM      6  C   UNL     1       5.568   5.996  16.007  0.00  0.00    +0.000 A 
ATOM      7  C   UNL     1       5.811   5.263  17.162  0.00  0.00    +0.000 A 
ATOM      8  C   UNL     1       5.092   5.479  18.323  0.00  0.00    +0.000 A 
ATOM      9  C   UNL     1       4.072   6.445  18.307  0.00  0.00    +0.000 A 
ATOM     10  C   UNL     1       3.146   6.603  19.491  0.00  0.00    +0.000 C 
ATOM     11  C   UNL     1       6.923   4.308  16.926  0.00  0.00    +0.000 C 
ATOM     12  C   UNL     1       7.053   4.385  15.394  0.00  0.00    +0.000 C 
ATOM     13  N   UNL     1       6.343   5.580  14.900  0.00  0.00    +0.000 N 
ATOM     14  H   UNL     1       6.960   6.333  14.600  0.00  0.00    +0.000 HD
ENDROOT
BRANCH  10  15
ATOM     15  C   UNL     1       2.456   5.286  19.843  0.00  0.00    +0.000 A 
ATOM     16  C   UNL     1       2.499   4.769  21.154  0.00  0.00    +0.000 A 
ATOM     17  C   UNL     1       1.860   3.567  21.465  0.00  0.00    +0.000 A 
ATOM     18  C   UNL     1       1.175   2.868  20.475  0.00  0.00    +0.000 A 
ATOM     19  C   UNL     1       1.129   3.378  19.181  0.00  0.00    +0.000 A 
ATOM     20  F   UNL     1       0.462   2.707  18.234  0.00  0.00    +0.000 F 
ATOM     21  C   UNL     1       1.761   4.571  18.856  0.00  0.00    +0.000 A 
ENDBRANCH  10  15
BRANCH   2  22
ATOM     22  N   UNL     1       1.257   9.532  17.974  0.00  0.00    +0.000 N 
ATOM     23  H   UNL     1       0.333   9.465  18.392  0.00  0.00    +0.000 HD
ATOM     24  H   UNL     1       1.248   9.846  17.008  0.00  0.00    +0.000 HD
ENDBRANCH   2  22
BRANCH   1  26
ATOM     25  N   UNL     1       0.402   8.254  21.389  0.00  0.00    +0.000 NA
ATOM     26  C   UNL     1       1.192   8.006  20.437  0.00  0.00    +0.000 C 
ENDBRANCH   1  26
TORSDOF 3
ENDMDL
MODEL 3
REMARK VINA RESULT:      -6.5      3.242      4.591
REMARK  Name = 
REMARK  3 active torsions:
REMARK  status: ('A' for Active; 'I' for Inactive)
REMARK    1  A    between atoms: C_2  and  C_3
REMARK    2  A    between atoms: C_4  and  N_5
REMARK    3  A    between atoms: C_13  and  C_14
REMARK                            x       y       z     vdW  Elec       q    Type
REMARK                         _______ _______ _______ _____ _____    ______ ____
ROOT
ATOM      1  C   UNL     1       3.620   4.524  18.185  0.00  0.00    +0.000 C 
ATOM      2  C   UNL     1       4.568   3.765  18.769  0.00  0.00    +0.000 C 
ATOM      3  O   UNL     1       5.850   4.241  19.008  0.00  0.00    +0.000 OA
ATOM      4  C   UNL     1       6.200   5.506  18.599  0.00  0.00    +0.000 A 
ATOM      5  C   UNL     1       7.488   5.932  18.937  0.00  0.00    +0.000 A 
ATOM      6  C   UNL     1       7.868   7.213  18.583  0.00  0.00    +0.000 A 
ATOM      7  C   UNL     1       7.026   8.021  17.829  0.00  0.00    +0.000 A 
ATOM      8  C   UNL     1       5.759   7.605  17.462  0.00  0.00    +0.000 A 
ATOM      9  C   UNL     1       5.317   6.346  17.899  0.00  0.00    +0.000 A 
ATOM     10  C   UNL     1       3.886   5.914  17.672  0.00  0.00    +0.000 C 
ATOM     11  C   UNL     1       7.714   9.294  17.500  0.00  0.00    +0.000 C 
ATOM     12  C   UNL     1       8.931   9.219  18.439  0.00  0.00    +0.000 C 
ATOM     13  N   UNL     1       9.088   7.837  18.931  0.00  0.00    +0.000 N 
ATOM     14  H   UNL     1       9.870   7.335  18.514  0.00  0.00    +0.000 HD
ENDROOT
BRANCH  10  15
ATOM     15  C   UNL     1       2.896   6.919  18.257  0.00  0.00    +0.000 A 
ATOM     16  C   UNL     1       2.325   7.930  17.457  0.00  0.00    +0.000 A 
ATOM     17  C   UNL     1       1.417   8.840  18.002  0.00  0.00    +0.000 A 
ATOM     18  C   UNL     1       1.072   8.755  19.347  0.00  0.00    +0.000 A 
ATOM     19  C   UNL     1       1.633   7.758  20.139  0.00  0.00    +0.000 A 
ATOM     20  F   UNL     1       1.292   7.674  21.431  0.00  0.00    +0.000 F 
ATOM     21  C   UNL     1       2.538   6.846  19.611  0.00  0.00    +0.000 A 
ENDBRANCH  10  15
BRANCH   2  22
ATOM     22  N   UNL     1       4.396   2.465  19.186  0.00  0.00    +0.000 N 
ATOM     23  H   UNL     1       4.010   2.333  20.118  0.00  0.00    +0.000 HD
ATOM     24  H   UNL     1       5.206   1.882  18.993  0.00  0.00    +0.000 HD
ENDBRANCH   2  22
BRANCH   1  26
ATOM     25  N   UNL     1       1.077   3.473  17.777  0.00  0.00    +0.000 NA
ATOM     26  C   UNL     1       2.230   3.950  17.962  0.00  0.00    +0.000 C 
ENDBRANCH   1  26
TORSDOF 3
ENDMDL
MODEL 4
REMARK VINA RESULT:      -6.3      3.511      4.844
REMARK  Name = 
REMARK  3 active torsions:
REMARK  status: ('A' for Active; 'I' for Inactive)
REMARK    1  A    between atoms: C_2  and  C_3
REMARK    2  A    between atoms: C_4  and  N_5
REMARK    3  A    between atoms: C_13  and  C_14
REMARK                            x       y       z     vdW  Elec       q    Type
REMARK                         _______ _______ _______ _____ _____    ______ ____
ROOT
ATOM      1  C   UNL     1       3.525   4.378  18.298  0.00  0.00    +0.000 C 
ATOM      2  C   UNL     1       4.489   3.606  18.839  0.00  0.00    +0.000 C 
ATOM      3  O   UNL     1       5.781   4.073  19.042  0.00  0.00    +0.000 OA
ATOM      4  C   UNL     1       6.123   5.342  18.640  0.00  0.00    +0.000 A 
ATOM      5  C   UNL     1       7.424   5.758  18.941  0.00  0.00    +0.000 A 
ATOM      6  C   UNL     1       7.797   7.042  18.594  0.00  0.00    +0.000 A 
ATOM      7  C   UNL     1       6.934   7.866  17.881  0.00  0.00    +0.000 A 
ATOM      8  C   UNL     1       5.654   7.461  17.551  0.00  0.00    +0.000 A 
ATOM      9  C   UNL     1       5.221   6.197  17.984  0.00  0.00    +0.000 A 
ATOM     10  C   UNL     1       3.781   5.774  17.798  0.00  0.00    +0.000 C 
ATOM     11  C   UNL     1       7.617   9.141  17.548  0.00  0.00    +0.000 C 
ATOM     12  C   UNL     1       8.865   9.046  18.444  0.00  0.00    +0.000 C 
ATOM     13  N   UNL     1       9.031   7.655  18.910  0.00  0.00    +0.000 N 
ATOM     14  H   UNL     1       9.797   7.157  18.459  0.00  0.00    +0.000 HD
ENDROOT
BRANCH  10  15
ATOM     15  C   UNL     1       2.816   6.775  18.432  0.00  0.00    +0.000 A 
ATOM     16  C   UNL     1       2.504   6.717  19.805  0.00  0.00    +0.000 A 
ATOM     17  C   UNL     1       1.625   7.641  20.374  0.00  0.00    +0.000 A 
ATOM     18  C   UNL     1       1.047   8.628  19.582  0.00  0.00    +0.000 A 
ATOM     19  C   UNL     1       1.355   8.688  18.226  0.00  0.00    +0.000 A 
ATOM     20  F   UNL     1       0.802   9.645  17.469  0.00  0.00    +0.000 F 
ATOM     21  C   UNL     1       2.226   7.776  17.646  0.00  0.00    +0.000 A 
ENDBRANCH  10  15
BRANCH   2  22
ATOM     22  N   UNL     1       4.326   2.300  19.242  0.00  0.00    +0.000 N 
ATOM     23  H   UNL     1       3.737   1.714  18.656  0.00  0.00    +0.000 HD
ATOM     24  H   UNL     1       4.125   2.220  20.235  0.00  0.00    +0.000 HD
ENDBRANCH   2  22
BRANCH   1  26
ATOM     25  N   UNL     1       0.966   3.344  17.961  0.00  0.00    +0.000 NA
ATOM     26  C   UNL     1       2.126   3.813  18.114  0.00  0.00    +0.000 C 
ENDBRANCH   1  26
TORSDOF 3
ENDMDL
MODEL 5
REMARK VINA RESULT:      -6.2      8.128     10.912
REMARK  Name = 
REMARK  3 active torsions:
REMARK  status: ('A' for Active; 'I' for Inactive)
REMARK    1  A    between atoms: C_2  and  C_3
REMARK    2  A    between atoms: C_4  and  N_5
REMARK    3  A    between atoms: C_13  and  C_14
REMARK                            x       y       z     vdW  Elec       q    Type
REMARK                         _______ _______ _______ _____ _____    ______ ____
ROOT
ATOM      1  C   UNL     1      -2.775  14.174  23.113  0.00  0.00    +0.000 C 
ATOM      2  C   UNL     1      -3.957  14.250  23.757  0.00  0.00    +0.000 C 
ATOM      3  O   UNL     1      -5.123  13.716  23.226  0.00  0.00    +0.000 OA
ATOM      4  C   UNL     1      -5.105  13.132  21.981  0.00  0.00    +0.000 A 
ATOM      5  C   UNL     1      -6.306  12.561  21.548  0.00  0.00    +0.000 A 
ATOM      6  C   UNL     1      -6.323  11.925  20.322  0.00  0.00    +0.000 A 
ATOM      7  C   UNL     1      -5.202  11.935  19.499  0.00  0.00    +0.000 A 
ATOM      8  C   UNL     1      -4.015  12.520  19.900  0.00  0.00    +0.000 A 
ATOM      9  C   UNL     1      -3.948  13.082  21.185  0.00  0.00    +0.000 A 
ATOM     10  C   UNL     1      -2.631  13.581  21.737  0.00  0.00    +0.000 C 
ATOM     11  C   UNL     1      -5.522  11.279  18.207  0.00  0.00    +0.000 C 
ATOM     12  C   UNL     1      -6.872  10.620  18.540  0.00  0.00    +0.000 C 
ATOM     13  N   UNL     1      -7.416  11.212  19.778  0.00  0.00    +0.000 N 
ATOM     14  H   UNL     1      -8.204  11.840  19.624  0.00  0.00    +0.000 HD
ENDROOT
BRANCH  10  15
ATOM     15  C   UNL     1      -1.563  12.489  21.713  0.00  0.00    +0.000 A 
ATOM     16  C   UNL     1      -0.569  12.464  20.714  0.00  0.00    +0.000 A 
ATOM     17  C   UNL     1       0.405  11.463  20.706  0.00  0.00    +0.000 A 
ATOM     18  C   UNL     1       0.397  10.479  21.689  0.00  0.00    +0.000 A 
ATOM     19  C   UNL     1      -0.582  10.502  22.677  0.00  0.00    +0.000 A 
ATOM     20  F   UNL     1      -0.581   9.558  23.626  0.00  0.00    +0.000 F 
ATOM     21  C   UNL     1      -1.558  11.490  22.698  0.00  0.00    +0.000 A 
ENDBRANCH  10  15
BRANCH   2  22
ATOM     22  N   UNL     1      -4.155  14.848  24.981  0.00  0.00    +0.000 N 
ATOM     23  H   UNL     1      -3.718  15.755  25.120  0.00  0.00    +0.000 HD
ATOM     24  H   UNL     1      -4.018  14.205  25.756  0.00  0.00    +0.000 HD
ENDBRANCH   2  22
BRANCH   1  26
ATOM     25  N   UNL     1      -0.498  15.257  24.286  0.00  0.00    +0.000 NA
ATOM     26  C   UNL     1      -1.531  14.766  23.754  0.00  0.00    +0.000 C 
ENDBRANCH   1  26
TORSDOF 3
ENDMDL
MODEL 6
REMARK VINA RESULT:      -6.2      8.293     11.017
REMARK  Name = 
REMARK  3 active torsions:
REMARK  status: ('A' for Active; 'I' for Inactive)
REMARK    1  A    between atoms: C_2  and  C_3
REMARK    2  A    between atoms: C_4  and  N_5
REMARK    3  A    between atoms: C_13  and  C_14
REMARK                            x       y       z     vdW  Elec       q    Type
REMARK                         _______ _______ _______ _____ _____    ______ ____
ROOT
ATOM      1  C   UNL     1      -2.747  14.270  23.216  0.00  0.00    +0.000 C 
ATOM      2  C   UNL     1      -3.960  14.490  23.762  0.00  0.00    +0.000 C 
ATOM      3  O   UNL     1      -5.129  14.032  23.169  0.00  0.00    +0.000 OA
ATOM      4  C   UNL     1      -5.076  13.376  21.962  0.00  0.00    +0.000 A 
ATOM      5  C   UNL     1      -6.290  12.891  21.467  0.00  0.00    +0.000 A 
ATOM      6  C   UNL     1      -6.278  12.187  20.278  0.00  0.00    +0.000 A 
ATOM      7  C   UNL     1      -5.104  12.048  19.547  0.00  0.00    +0.000 A 
ATOM      8  C   UNL     1      -3.899  12.546  20.008  0.00  0.00    +0.000 A 
ATOM      9  C   UNL     1      -3.873  13.176  21.263  0.00  0.00    +0.000 A 
ATOM     10  C   UNL     1      -2.559  13.586  21.889  0.00  0.00    +0.000 C 
ATOM     11  C   UNL     1      -5.388  11.347  18.269  0.00  0.00    +0.000 C 
ATOM     12  C   UNL     1      -6.815  10.833  18.530  0.00  0.00    +0.000 C 
ATOM     13  N   UNL     1      -7.390  11.544  19.689  0.00  0.00    +0.000 N 
ATOM     14  H   UNL     1      -8.102  12.230  19.441  0.00  0.00    +0.000 HD
ENDROOT
BRANCH  10  15
ATOM     15  C   UNL     1      -1.600  12.403  22.006  0.00  0.00    +0.000 A 
ATOM     16  C   UNL     1      -1.767  11.426  23.008  0.00  0.00    +0.000 A 
ATOM     17  C   UNL     1      -0.887  10.346  23.101  0.00  0.00    +0.000 A 
ATOM     18  C   UNL     1       0.168  10.230  22.201  0.00  0.00    +0.000 A 
ATOM     19  C   UNL     1       0.334  11.193  21.210  0.00  0.00    +0.000 A 
ATOM     20  F   UNL     1       1.346  11.073  20.341  0.00  0.00    +0.000 F 
ATOM     21  C   UNL     1      -0.532  12.272  21.105  0.00  0.00    +0.000 A 
ENDBRANCH  10  15
BRANCH   2  22
ATOM     22  N   UNL     1      -4.190  15.175  24.933  0.00  0.00    +0.000 N 
ATOM     23  H   UNL     1      -3.674  16.042  25.062  0.00  0.00    +0.000 HD
ATOM     24  H   UNL     1      -4.180  14.568  25.749  0.00  0.00    +0.000 HD
ENDBRANCH   2  22
BRANCH   1  26
ATOM     25  N   UNL     1      -0.470  15.212  24.505  0.00  0.00    +0.000 NA
ATOM     26  C   UNL     1      -1.503  14.785  23.921  0.00  0.00    +0.000 C 
ENDBRANCH   1  26
TORSDOF 3
ENDMDL
MODEL 7
REMARK VINA RESULT:      -6.2      4.776      7.457
REMARK  Name = 
REMARK  3 active torsions:
REMARK  status: ('A' for Active; 'I' for Inactive)
REMARK    1  A    between atoms: C_2  and  C_3
REMARK    2  A    between atoms: C_4  and  N_5
REMARK    3  A    between atoms: C_13  and  C_14
REMARK                            x       y       z     vdW  Elec       q    Type
REMARK                         _______ _______ _______ _____ _____    ______ ____
ROOT
ATOM      1  C   UNL     1      -0.743  11.862  21.151  0.00  0.00    +0.000 C 
ATOM      2  C   UNL     1      -0.899  10.973  22.152  0.00  0.00    +0.000 C 
ATOM      3  O   UNL     1      -0.299   9.721  22.126  0.00  0.00    +0.000 OA
ATOM      4  C   UNL     1       0.440   9.336  21.032  0.00  0.00    +0.000 A 
ATOM      5  C   UNL     1       1.064   8.088  21.115  0.00  0.00    +0.000 A 
ATOM      6  C   UNL     1       1.853   7.679  20.057  0.00  0.00    +0.000 A 
ATOM      7  C   UNL     1       1.947   8.447  18.902  0.00  0.00    +0.000 A 
ATOM      8  C   UNL     1       1.313   9.671  18.792  0.00  0.00    +0.000 A 
ATOM      9  C   UNL     1       0.590  10.150  19.897  0.00  0.00    +0.000 A 
ATOM     10  C   UNL     1       0.021  11.552  19.893  0.00  0.00    +0.000 C 
ATOM     11  C   UNL     1       2.764   7.734  17.889  0.00  0.00    +0.000 C 
ATOM     12  C   UNL     1       3.378   6.612  18.747  0.00  0.00    +0.000 C 
ATOM     13  N   UNL     1       2.632   6.500  20.016  0.00  0.00    +0.000 N 
ATOM     14  H   UNL     1       2.030   5.680  20.070  0.00  0.00    +0.000 HD
ENDROOT
BRANCH  10  15
ATOM     15  C   UNL     1       1.105  12.596  19.631  0.00  0.00    +0.000 A 
ATOM     16  C   UNL     1       1.153  13.308  18.415  0.00  0.00    +0.000 A 
ATOM     17  C   UNL     1       2.145  14.264  18.190  0.00  0.00    +0.000 A 
ATOM     18  C   UNL     1       3.100  14.518  19.170  0.00  0.00    +0.000 A 
ATOM     19  C   UNL     1       3.055  13.817  20.371  0.00  0.00    +0.000 A 
ATOM     20  F   UNL     1       3.971  14.070  21.314  0.00  0.00    +0.000 F 
ATOM     21  C   UNL     1       2.075  12.863  20.609  0.00  0.00    +0.000 A 
ENDBRANCH  10  15
BRANCH   2  22
ATOM     22  N   UNL     1      -1.650  11.180  23.287  0.00  0.00    +0.000 N 
ATOM     23  H   UNL     1      -1.140  11.442  24.127  0.00  0.00    +0.000 HD
ATOM     24  H   UNL     1      -2.340  10.451  23.437  0.00  0.00    +0.000 HD
ENDBRANCH   2  22
BRANCH   1  26
ATOM     25  N   UNL     1      -1.973  14.351  21.321  0.00  0.00    +0.000 NA
ATOM     26  C   UNL     1      -1.415  13.223  21.244  0.00  0.00    +0.000 C 
ENDBRANCH   1  26
TORSDOF 3
ENDMDL
MODEL 8
REMARK VINA RESULT:      -6.2      5.535      9.447
REMARK  Name = 
REMARK  3 active torsions:
REMARK  status: ('A' for Active; 'I' for Inactive)
REMARK    1  A    between atoms: C_2  and  C_3
REMARK    2  A    between atoms: C_4  and  N_5
REMARK    3  A    between atoms: C_13  and  C_14
REMARK                            x       y       z     vdW  Elec       q    Type
REMARK                         _______ _______ _______ _____ _____    ______ ____
ROOT
ATOM      1  C   UNL     1       0.522  10.130  19.805  0.00  0.00    +0.000 C 
ATOM      2  C   UNL     1       0.738   9.563  21.008  0.00  0.00    +0.000 C 
ATOM      3  O   UNL     1       0.034   9.945  22.142  0.00  0.00    +0.000 OA
ATOM      4  C   UNL     1      -0.882  10.968  22.068  0.00  0.00    +0.000 A 
ATOM      5  C   UNL     1      -1.594  11.246  23.239  0.00  0.00    +0.000 A 
ATOM      6  C   UNL     1      -2.556  12.238  23.199  0.00  0.00    +0.000 A 
ATOM      7  C   UNL     1      -2.743  13.002  22.053  0.00  0.00    +0.000 A 
ATOM      8  C   UNL     1      -2.027  12.759  20.895  0.00  0.00    +0.000 A 
ATOM      9  C   UNL     1      -1.117  11.688  20.885  0.00  0.00    +0.000 A 
ATOM     10  C   UNL     1      -0.436  11.273  19.600  0.00  0.00    +0.000 C 
ATOM     11  C   UNL     1      -3.753  14.058  22.313  0.00  0.00    +0.000 C 
ATOM     12  C   UNL     1      -4.336  13.580  23.655  0.00  0.00    +0.000 C 
ATOM     13  N   UNL     1      -3.432  12.579  24.255  0.00  0.00    +0.000 N 
ATOM     14  H   UNL     1      -2.903  12.925  25.053  0.00  0.00    +0.000 HD
ENDROOT
BRANCH  10  15
ATOM     15  C   UNL     1      -1.451  10.957  18.503  0.00  0.00    +0.000 A 
ATOM     16  C   UNL     1      -1.500  11.715  17.316  0.00  0.00    +0.000 A 
ATOM     17  C   UNL     1      -2.429  11.412  16.318  0.00  0.00    +0.000 A 
ATOM     18  C   UNL     1      -3.318  10.356  16.494  0.00  0.00    +0.000 A 
ATOM     19  C   UNL     1      -3.270   9.606  17.664  0.00  0.00    +0.000 A 
ATOM     20  F   UNL     1      -4.121   8.585  17.826  0.00  0.00    +0.000 F 
ATOM     21  C   UNL     1      -2.353   9.894  18.666  0.00  0.00    +0.000 A 
ENDBRANCH  10  15
BRANCH   2  22
ATOM     22  N   UNL     1       1.655   8.568  21.261  0.00  0.00    +0.000 N 
ATOM     23  H   UNL     1       1.621   7.753  20.654  0.00  0.00    +0.000 HD
ATOM     24  H   UNL     1       1.722   8.340  22.249  0.00  0.00    +0.000 HD
ENDBRANCH   2  22
BRANCH   1  26
ATOM     25  N   UNL     1       1.975   9.266  17.596  0.00  0.00    +0.000 NA
ATOM     26  C   UNL     1       1.316   9.658  18.598  0.00  0.00    +0.000 C 
ENDBRANCH   1  26
TORSDOF 3
ENDMDL
MODEL 9
REMARK VINA RESULT:      -6.2      8.972     11.325
REMARK  Name = 
REMARK  3 active torsions:
REMARK  status: ('A' for Active; 'I' for Inactive)
REMARK    1  A    between atoms: C_2  and  C_3
REMARK    2  A    between atoms: C_4  and  N_5
REMARK    3  A    between atoms: C_13  and  C_14
REMARK                            x       y       z     vdW  Elec       q    Type
REMARK                         _______ _______ _______ _____ _____    ______ ____
ROOT
ATOM      1  C   UNL     1       9.112  16.294  17.924  0.00  0.00    +0.000 C 
ATOM      2  C   UNL     1       8.681  17.499  18.348  0.00  0.00    +0.000 C 
ATOM      3  O   UNL     1       7.354  17.731  18.684  0.00  0.00    +0.000 OA
ATOM      4  C   UNL     1       6.424  16.729  18.539  0.00  0.00    +0.000 A 
ATOM      5  C   UNL     1       5.124  17.025  18.962  0.00  0.00    +0.000 A 
ATOM      6  C   UNL     1       4.166  16.033  18.876  0.00  0.00    +0.000 A 
ATOM      7  C   UNL     1       4.464  14.805  18.296  0.00  0.00    +0.000 A 
ATOM      8  C   UNL     1       5.737  14.506  17.847  0.00  0.00    +0.000 A 
ATOM      9  C   UNL     1       6.749  15.465  18.019  0.00  0.00    +0.000 A 
ATOM     10  C   UNL     1       8.189  15.127  17.703  0.00  0.00    +0.000 C 
ATOM     11  C   UNL     1       3.239  13.969  18.233  0.00  0.00    +0.000 C 
ATOM     12  C   UNL     1       2.292  14.771  19.143  0.00  0.00    +0.000 C 
ATOM     13  N   UNL     1       2.837  16.127  19.347  0.00  0.00    +0.000 N 
ATOM     14  H   UNL     1       2.335  16.855  18.841  0.00  0.00    +0.000 HD
ENDROOT
BRANCH  10  15
ATOM     15  C   UNL     1       8.658  13.895  18.474  0.00  0.00    +0.000 A 
ATOM     16  C   UNL     1       8.773  13.914  19.879  0.00  0.00    +0.000 A 
ATOM     17  C   UNL     1       9.198  12.780  20.573  0.00  0.00    +0.000 A 
ATOM     18  C   UNL     1       9.515  11.618  19.877  0.00  0.00    +0.000 A 
ATOM     19  C   UNL     1       9.401  11.595  18.491  0.00  0.00    +0.000 A 
ATOM     20  F   UNL     1       9.699  10.472  17.825  0.00  0.00    +0.000 F 
ATOM     21  C   UNL     1       8.981  12.715  17.786  0.00  0.00    +0.000 A 
ENDBRANCH  10  15
BRANCH   2  22
ATOM     22  N   UNL     1       9.471  18.617  18.494  0.00  0.00    +0.000 N 
ATOM     23  H   UNL     1      10.260  18.536  19.130  0.00  0.00    +0.000 HD
ATOM     24  H   UNL     1       8.927  19.465  18.623  0.00  0.00    +0.000 HD
ENDBRANCH   2  22
BRANCH   1  26
ATOM     25  N   UNL     1      11.799  15.937  17.302  0.00  0.00    +0.000 NA
ATOM     26  C   UNL     1      10.581  16.099  17.584  0.00  0.00    +0.000 C 
ENDBRANCH   1  26
TORSDOF 3
ENDMDL
