MODEL 1
REMARK VINA RESULT:      -7.8      0.000      0.000
REMARK  Name = 
REMARK  8 active torsions:
REMARK  status: ('A' for Active; 'I' for Inactive)
REMARK    1  A    between atoms: C_2  and  C_3
REMARK    2  A    between atoms: C_5  and  S_6
REMARK    3  A    between atoms: S_6  and  N_9
REMARK    4  A    between atoms: C_17  and  O_18
REMARK    5  A    between atoms: O_18  and  C_19
REMARK    6  A    between atoms: C_22  and  N_23
REMARK    7  A    between atoms: C_25  and  C_26
REMARK    8  A    between atoms: C_26  and  O_27
REMARK                            x       y       z     vdW  Elec       q    Type
REMARK                         _______ _______ _______ _____ _____    ______ ____
ROOT
ATOM      1  C   UNL     1       1.306   8.809  20.171  0.00  0.00    +0.000 A 
ATOM      2  C   UNL     1       1.930   7.552  20.140  0.00  0.00    +0.000 A 
ATOM      3  C   UNL     1       2.529   7.090  18.968  0.00  0.00    +0.000 A 
ATOM      4  C   UNL     1       2.513   7.871  17.812  0.00  0.00    +0.000 A 
ATOM      5  C   UNL     1       1.923   9.138  17.849  0.00  0.00    +0.000 A 
ATOM      6  C   UNL     1       1.335   9.627  19.026  0.00  0.00    +0.000 A 
ENDROOT
BRANCH   3   7
ATOM      7  S   UNL     1       3.164   5.435  18.916  0.00  0.00    +0.000 S 
ATOM      8  O   UNL     1       4.396   5.423  19.680  0.00  0.00    +0.000 OA
ATOM      9  O   UNL     1       2.099   4.514  19.235  0.00  0.00    +0.000 OA
BRANCH   7  10
ATOM     10  N   UNL     1       3.651   5.260  17.312  0.00  0.00    +0.000 N 
ATOM     11  C   UNL     1       5.052   5.337  17.184  0.00  0.00    +0.000 A 
ATOM     12  N   UNL     1       5.814   4.281  17.330  0.00  0.00    +0.000 NA
ATOM     13  C   UNL     1       7.109   4.663  17.009  0.00  0.00    +0.000 A 
ATOM     14  N   UNL     1       7.381   5.923  16.665  0.00  0.00    +0.000 NA
ATOM     15  S   UNL     1       5.914   6.730  16.685  0.00  0.00    +0.000 S 
ATOM     16  H   UNL     1       3.150   5.968  16.779  0.00  0.00    +0.000 HD
ENDBRANCH   7  10
ENDBRANCH   3   7
BRANCH   1  18
ATOM     17  N   UNL     1       0.156   9.560  22.368  0.00  0.00    +0.000 NA
ATOM     18  C   UNL     1       0.662   9.181  21.397  0.00  0.00    +0.000 C 
ENDBRANCH   1  18
BRANCH   6  19
ATOM     19  O   UNL     1       0.737  10.863  18.902  0.00  0.00    +0.000 OA
BRANCH  19  20
ATOM     20  C   UNL     1      -0.631  10.974  18.785  0.00  0.00    +0.000 A 
ATOM     21  C   UNL     1      -1.417  10.198  17.932  0.00  0.00    +0.000 A 
ATOM     22  C   UNL     1      -2.785  10.450  17.814  0.00  0.00    +0.000 A 
ATOM     23  C   UNL     1      -3.403  11.418  18.618  0.00  0.00    +0.000 A 
ATOM     24  C   UNL     1      -2.627  12.150  19.527  0.00  0.00    +0.000 A 
ATOM     25  C   UNL     1      -1.245  11.927  19.605  0.00  0.00    +0.000 A 
BRANCH  23  26
ATOM     26  N   UNL     1      -4.807  11.631  18.534  0.00  0.00    +0.000 N 
ATOM     27  C   UNL     1      -5.473  12.836  18.590  0.00  0.00    +0.000 A 
ATOM     28  C   UNL     1      -6.812  12.593  18.377  0.00  0.00    +0.000 A 
ATOM     29  C   UNL     1      -6.874  11.194  18.235  0.00  0.00    +0.000 A 
ATOM     30  N   UNL     1      -5.679  10.607  18.336  0.00  0.00    +0.000 NA
BRANCH  28  31
ATOM     31  C   UNL     1      -7.916  13.580  18.289  0.00  0.00    +0.000 C 
BRANCH  31  32
ATOM     32  O   UNL     1      -7.902  14.287  17.053  0.00  0.00    +0.000 OA
ATOM     33  H   UNL     1      -6.973  14.322  16.766  0.00  0.00    +0.000 HD
ENDBRANCH  31  32
ENDBRANCH  28  31
ENDBRANCH  23  26
ENDBRANCH  19  20
ENDBRANCH   6  19
TORSDOF 8
ENDMDL
MODEL 2
REMARK VINA RESULT:      -7.6      3.977     10.424
REMARK  Name = 
REMARK  8 active torsions:
REMARK  status: ('A' for Active; 'I' for Inactive)
REMARK    1  A    between atoms: C_2  and  C_3
REMARK    2  A    between atoms: C_5  and  S_6
REMARK    3  A    between atoms: S_6  and  N_9
REMARK    4  A    between atoms: C_17  and  O_18
REMARK    5  A    between atoms: O_18  and  C_19
REMARK    6  A    between atoms: C_22  and  N_23
REMARK    7  A    between atoms: C_25  and  C_26
REMARK    8  A    between atoms: C_26  and  O_27
REMARK                            x       y       z     vdW  Elec       q    Type
REMARK                         _______ _______ _______ _____ _____    ______ ____
ROOT
ATOM      1  C   UNL     1      -0.997  11.643  19.583  0.00  0.00    +0.000 A 
ATOM      2  C   UNL     1      -2.367  11.891  19.406  0.00  0.00    +0.000 A 
ATOM      3  C   UNL     1      -3.076  11.245  18.392  0.00  0.00    +0.000 A 
ATOM      4  C   UNL     1      -2.430  10.347  17.541  0.00  0.00    +0.000 A 
ATOM      5  C   UNL     1      -1.074  10.072  17.738  0.00  0.00    +0.000 A 
ATOM      6  C   UNL     1      -0.351  10.697  18.766  0.00  0.00    +0.000 A 
ENDROOT
BRANCH   3   7
ATOM      7  S   UNL     1      -4.763  11.701  18.092  0.00  0.00    +0.000 S 
ATOM      8  O   UNL     1      -4.837  12.209  16.736  0.00  0.00    +0.000 OA
ATOM      9  O   UNL     1      -5.623  10.620  18.514  0.00  0.00    +0.000 OA
BRANCH   7  10
ATOM     10  N   UNL     1      -4.975  13.057  19.072  0.00  0.00    +0.000 N 
ATOM     11  C   UNL     1      -5.947  12.830  20.067  0.00  0.00    +0.000 A 
ATOM     12  N   UNL     1      -5.636  12.286  21.218  0.00  0.00    +0.000 NA
ATOM     13  C   UNL     1      -6.773  12.329  22.011  0.00  0.00    +0.000 A 
ATOM     14  N   UNL     1      -7.915  12.834  21.539  0.00  0.00    +0.000 NA
ATOM     15  S   UNL     1      -7.575  13.355  19.983  0.00  0.00    +0.000 S 
ATOM     16  H   UNL     1      -5.198  13.830  18.448  0.00  0.00    +0.000 HD
ENDBRANCH   7  10
ENDBRANCH   3   7
BRANCH   1  18
ATOM     17  N   UNL     1       0.132  13.025  21.461  0.00  0.00    +0.000 NA
ATOM     18  C   UNL     1      -0.331  12.395  20.607  0.00  0.00    +0.000 C 
ENDBRANCH   1  18
BRANCH   6  19
ATOM     19  O   UNL     1       0.991  10.379  18.803  0.00  0.00    +0.000 OA
BRANCH  19  20
ATOM     20  C   UNL     1       1.402   9.097  19.095  0.00  0.00    +0.000 A 
ATOM     21  C   UNL     1       2.116   8.278  18.221  0.00  0.00    +0.000 A 
ATOM     22  C   UNL     1       2.404   6.958  18.573  0.00  0.00    +0.000 A 
ATOM     23  C   UNL     1       2.065   6.468  19.842  0.00  0.00    +0.000 A 
ATOM     24  C   UNL     1       1.410   7.313  20.749  0.00  0.00    +0.000 A 
ATOM     25  C   UNL     1       1.079   8.622  20.370  0.00  0.00    +0.000 A 
BRANCH  23  26
ATOM     26  N   UNL     1       2.412   5.140  20.215  0.00  0.00    +0.000 N 
ATOM     27  C   UNL     1       3.116   4.220  19.468  0.00  0.00    +0.000 A 
ATOM     28  C   UNL     1       3.306   3.098  20.244  0.00  0.00    +0.000 A 
ATOM     29  C   UNL     1       2.647   3.414  21.446  0.00  0.00    +0.000 A 
ATOM     30  N   UNL     1       2.101   4.632  21.437  0.00  0.00    +0.000 NA
BRANCH  28  31
ATOM     31  C   UNL     1       4.056   1.866  19.897  0.00  0.00    +0.000 C 
BRANCH  31  32
ATOM     32  O   UNL     1       5.461   2.093  19.843  0.00  0.00    +0.000 OA
ATOM     33  H   UNL     1       5.813   1.848  20.717  0.00  0.00    +0.000 HD
ENDBRANCH  31  32
ENDBRANCH  28  31
ENDBRANCH  23  26
ENDBRANCH  19  20
ENDBRANCH   6  19
TORSDOF 8
ENDMDL
MODEL 3
REMARK VINA RESULT:      -7.4      1.233      1.334
REMARK  Name = 
REMARK  8 active torsions:
REMARK  status: ('A' for Active; 'I' for Inactive)
REMARK    1  A    between atoms: C_2  and  C_3
REMARK    2  A    between atoms: C_5  and  S_6
REMARK    3  A    between atoms: S_6  and  N_9
REMARK    4  A    between atoms: C_17  and  O_18
REMARK    5  A    between atoms: O_18  and  C_19
REMARK    6  A    between atoms: C_22  and  N_23
REMARK    7  A    between atoms: C_25  and  C_26
REMARK    8  A    between atoms: C_26  and  O_27
REMARK                            x       y       z     vdW  Elec       q    Type
REMARK                         _______ _______ _______ _____ _____    ______ ____
ROOT
ATOM      1  C   UNL     1       1.696   8.194  20.026  0.00  0.00    +0.000 A 
ATOM      2  C   UNL     1       2.211   6.891  19.949  0.00  0.00    +0.000 A 
ATOM      3  C   UNL     1       2.799   6.432  18.769  0.00  0.00    +0.000 A 
ATOM      4  C   UNL     1       2.879   7.264  17.651  0.00  0.00    +0.000 A 
ATOM      5  C   UNL     1       2.399   8.574  17.736  0.00  0.00    +0.000 A 
ATOM      6  C   UNL     1       1.824   9.057  18.922  0.00  0.00    +0.000 A 
ENDROOT
BRANCH   3   7
ATOM      7  S   UNL     1       3.291   4.733  18.653  0.00  0.00    +0.000 S 
ATOM      8  O   UNL     1       2.613   4.015  19.715  0.00  0.00    +0.000 OA
ATOM      9  O   UNL     1       3.164   4.300  17.282  0.00  0.00    +0.000 OA
BRANCH   7  10
ATOM     10  N   UNL     1       4.910   4.768  19.125  0.00  0.00    +0.000 N 
ATOM     11  C   UNL     1       5.738   5.270  18.100  0.00  0.00    +0.000 A 
ATOM     12  N   UNL     1       5.951   6.555  17.958  0.00  0.00    +0.000 NA
ATOM     13  C   UNL     1       6.904   6.703  16.961  0.00  0.00    +0.000 A 
ATOM     14  N   UNL     1       7.399   5.638  16.327  0.00  0.00    +0.000 NA
ATOM     15  S   UNL     1       6.671   4.306  17.036  0.00  0.00    +0.000 S 
ATOM     16  H   UNL     1       5.145   3.822  19.417  0.00  0.00    +0.000 HD
ENDBRANCH   7  10
ENDBRANCH   3   7
BRANCH   1  18
ATOM     17  N   UNL     1       0.589   8.814  22.285  0.00  0.00    +0.000 NA
ATOM     18  C   UNL     1       1.054   8.564  21.253  0.00  0.00    +0.000 C 
ENDBRANCH   1  18
BRANCH   6  19
ATOM     19  O   UNL     1       1.337  10.345  18.843  0.00  0.00    +0.000 OA
BRANCH  19  20
ATOM     20  C   UNL     1      -0.007  10.578  18.647  0.00  0.00    +0.000 A 
ATOM     21  C   UNL     1      -0.784   9.947  17.675  0.00  0.00    +0.000 A 
ATOM     22  C   UNL     1      -2.116  10.320  17.490  0.00  0.00    +0.000 A 
ATOM     23  C   UNL     1      -2.717  11.262  18.337  0.00  0.00    +0.000 A 
ATOM     24  C   UNL     1      -1.956  11.845  19.361  0.00  0.00    +0.000 A 
ATOM     25  C   UNL     1      -0.605  11.502  19.509  0.00  0.00    +0.000 A 
BRANCH  23  26
ATOM     26  N   UNL     1      -4.091  11.596  18.180  0.00  0.00    +0.000 N 
ATOM     27  C   UNL     1      -4.970  11.994  19.164  0.00  0.00    +0.000 A 
ATOM     28  C   UNL     1      -6.170  12.304  18.562  0.00  0.00    +0.000 A 
ATOM     29  C   UNL     1      -5.936  12.028  17.202  0.00  0.00    +0.000 A 
ATOM     30  N   UNL     1      -4.696  11.595  16.963  0.00  0.00    +0.000 NA
BRANCH  28  31
ATOM     31  C   UNL     1      -7.401  12.832  19.199  0.00  0.00    +0.000 C 
BRANCH  31  32
ATOM     32  O   UNL     1      -7.917  13.965  18.507  0.00  0.00    +0.000 OA
ATOM     33  H   UNL     1      -7.321  14.707  18.711  0.00  0.00    +0.000 HD
ENDBRANCH  31  32
ENDBRANCH  28  31
ENDBRANCH  23  26
ENDBRANCH  19  20
ENDBRANCH   6  19
TORSDOF 8
ENDMDL
MODEL 4
REMARK VINA RESULT:      -7.3      4.143      5.003
REMARK  Name = 
REMARK  8 active torsions:
REMARK  status: ('A' for Active; 'I' for Inactive)
REMARK    1  A    between atoms: C_2  and  C_3
REMARK    2  A    between atoms: C_5  and  S_6
REMARK    3  A    between atoms: S_6  and  N_9
REMARK    4  A    between atoms: C_17  and  O_18
REMARK    5  A    between atoms: O_18  and  C_19
REMARK    6  A    between atoms: C_22  and  N_23
REMARK    7  A    between atoms: C_25  and  C_26
REMARK    8  A    between atoms: C_26  and  O_27
REMARK                            x       y       z     vdW  Elec       q    Type
REMARK                         _______ _______ _______ _____ _____    ______ ____
ROOT
ATOM      1  C   UNL     1       3.438   5.856  19.350  0.00  0.00    +0.000 A 
ATOM      2  C   UNL     1       4.793   5.491  19.334  0.00  0.00    +0.000 A 
ATOM      3  C   UNL     1       5.691   6.146  18.490  0.00  0.00    +0.000 A 
ATOM      4  C   UNL     1       5.251   7.171  17.651  0.00  0.00    +0.000 A 
ATOM      5  C   UNL     1       3.909   7.561  17.691  0.00  0.00    +0.000 A 
ATOM      6  C   UNL     1       2.998   6.926  18.549  0.00  0.00    +0.000 A 
ENDROOT
BRANCH   3   7
ATOM      7  S   UNL     1       7.358   5.554  18.375  0.00  0.00    +0.000 S 
ATOM      8  O   UNL     1       8.065   6.432  17.463  0.00  0.00    +0.000 OA
ATOM      9  O   UNL     1       7.867   5.322  19.707  0.00  0.00    +0.000 OA
BRANCH   7  10
ATOM     10  N   UNL     1       7.194   4.102  17.533  0.00  0.00    +0.000 N 
ATOM     11  C   UNL     1       6.691   4.311  16.233  0.00  0.00    +0.000 A 
ATOM     12  N   UNL     1       7.485   4.583  15.226  0.00  0.00    +0.000 NA
ATOM     13  C   UNL     1       6.703   4.593  14.080  0.00  0.00    +0.000 A 
ATOM     14  N   UNL     1       5.387   4.381  14.152  0.00  0.00    +0.000 NA
ATOM     15  S   UNL     1       5.058   4.093  15.768  0.00  0.00    +0.000 S 
ATOM     16  H   UNL     1       6.608   3.500  18.109  0.00  0.00    +0.000 HD
ENDBRANCH   7  10
ENDBRANCH   3   7
BRANCH   1  18
ATOM     17  N   UNL     1       1.924   4.409  20.875  0.00  0.00    +0.000 NA
ATOM     18  C   UNL     1       2.573   5.092  20.200  0.00  0.00    +0.000 C 
ENDBRANCH   1  18
BRANCH   6  19
ATOM     19  O   UNL     1       1.696   7.369  18.438  0.00  0.00    +0.000 OA
BRANCH  19  20
ATOM     20  C   UNL     1       1.296   8.536  19.052  0.00  0.00    +0.000 A 
ATOM     21  C   UNL     1       0.933   9.701  18.377  0.00  0.00    +0.000 A 
ATOM     22  C   UNL     1       0.634  10.863  19.091  0.00  0.00    +0.000 A 
ATOM     23  C   UNL     1       0.601  10.849  20.492  0.00  0.00    +0.000 A 
ATOM     24  C   UNL     1       0.896   9.660  21.172  0.00  0.00    +0.000 A 
ATOM     25  C   UNL     1       1.245   8.510  20.450  0.00  0.00    +0.000 A 
BRANCH  23  26
ATOM     26  N   UNL     1       0.240  12.022  21.213  0.00  0.00    +0.000 N 
ATOM     27  C   UNL     1      -0.821  12.174  22.079  0.00  0.00    +0.000 A 
ATOM     28  C   UNL     1      -0.747  13.437  22.624  0.00  0.00    +0.000 A 
ATOM     29  C   UNL     1       0.382  13.999  21.999  0.00  0.00    +0.000 A 
ATOM     30  N   UNL     1       0.976  13.162  21.145  0.00  0.00    +0.000 NA
BRANCH  28  31
ATOM     31  C   UNL     1      -1.632  14.042  23.650  0.00  0.00    +0.000 C 
BRANCH  31  32
ATOM     32  O   UNL     1      -0.914  14.882  24.547  0.00  0.00    +0.000 OA
ATOM     33  H   UNL     1      -0.123  15.185  24.068  0.00  0.00    +0.000 HD
ENDBRANCH  31  32
ENDBRANCH  28  31
ENDBRANCH  23  26
ENDBRANCH  19  20
ENDBRANCH   6  19
TORSDOF 8
ENDMDL
MODEL 5
REMARK VINA RESULT:      -7.3      1.193      1.513
REMARK  Name = 
REMARK  8 active torsions:
REMARK  status: ('A' for Active; 'I' for Inactive)
REMARK    1  A    between atoms: C_2  and  C_3
REMARK    2  A    between atoms: C_5  and  S_6
REMARK    3  A    between atoms: S_6  and  N_9
REMARK    4  A    between atoms: C_17  and  O_18
REMARK    5  A    between atoms: O_18  and  C_19
REMARK    6  A    between atoms: C_22  and  N_23
REMARK    7  A    between atoms: C_25  and  C_26
REMARK    8  A    between atoms: C_26  and  O_27
REMARK                            x       y       z     vdW  Elec       q    Type
REMARK                         _______ _______ _______ _____ _____    ______ ____
ROOT
ATOM      1  C   UNL     1       1.382   9.128  20.158  0.00  0.00    +0.000 A 
ATOM      2  C   UNL     1       1.893   7.821  20.159  0.00  0.00    +0.000 A 
ATOM      3  C   UNL     1       2.444   7.278  18.997  0.00  0.00    +0.000 A 
ATOM      4  C   UNL     1       2.492   8.029  17.821  0.00  0.00    +0.000 A 
ATOM      5  C   UNL     1       2.016   9.343  17.828  0.00  0.00    +0.000 A 
ATOM      6  C   UNL     1       1.478   9.911  18.993  0.00  0.00    +0.000 A 
ENDROOT
BRANCH   3   7
ATOM      7  S   UNL     1       2.932   5.574  18.987  0.00  0.00    +0.000 S 
ATOM      8  O   UNL     1       4.049   5.440  19.901  0.00  0.00    +0.000 OA
ATOM      9  O   UNL     1       1.757   4.749  19.144  0.00  0.00    +0.000 OA
BRANCH   7  10
ATOM     10  N   UNL     1       3.606   5.375  17.453  0.00  0.00    +0.000 N 
ATOM     11  C   UNL     1       5.014   5.408  17.498  0.00  0.00    +0.000 A 
ATOM     12  N   UNL     1       5.718   4.329  17.737  0.00  0.00    +0.000 NA
ATOM     13  C   UNL     1       7.053   4.668  17.576  0.00  0.00    +0.000 A 
ATOM     14  N   UNL     1       7.406   5.917  17.267  0.00  0.00    +0.000 NA
ATOM     15  S   UNL     1       5.974   6.771  17.107  0.00  0.00    +0.000 S 
ATOM     16  H   UNL     1       3.196   6.097  16.864  0.00  0.00    +0.000 HD
ENDBRANCH   7  10
ENDBRANCH   3   7
BRANCH   1  18
ATOM     17  N   UNL     1       0.362   9.988  22.379  0.00  0.00    +0.000 NA
ATOM     18  C   UNL     1       0.777   9.585  21.375  0.00  0.00    +0.000 C 
ENDBRANCH   1  18
BRANCH   6  19
ATOM     19  O   UNL     1       0.990  11.192  18.838  0.00  0.00    +0.000 OA
BRANCH  19  20
ATOM     20  C   UNL     1      -0.365  11.438  18.883  0.00  0.00    +0.000 A 
ATOM     21  C   UNL     1      -0.965  12.417  19.675  0.00  0.00    +0.000 A 
ATOM     22  C   UNL     1      -2.356  12.526  19.724  0.00  0.00    +0.000 A 
ATOM     23  C   UNL     1      -3.163  11.720  18.908  0.00  0.00    +0.000 A 
ATOM     24  C   UNL     1      -2.558  10.784  18.058  0.00  0.00    +0.000 A 
ATOM     25  C   UNL     1      -1.163  10.645  18.051  0.00  0.00    +0.000 A 
BRANCH  23  26
ATOM     26  N   UNL     1      -4.577  11.875  18.920  0.00  0.00    +0.000 N 
ATOM     27  C   UNL     1      -5.410  11.851  20.018  0.00  0.00    +0.000 A 
ATOM     28  C   UNL     1      -6.688  12.132  19.589  0.00  0.00    +0.000 A 
ATOM     29  C   UNL     1      -6.543  12.280  18.197  0.00  0.00    +0.000 A 
ATOM     30  N   UNL     1      -5.283  12.120  17.785  0.00  0.00    +0.000 NA
BRANCH  28  31
ATOM     31  C   UNL     1      -7.916  12.274  20.410  0.00  0.00    +0.000 C 
BRANCH  31  32
ATOM     32  O   UNL     1      -7.736  11.773  21.731  0.00  0.00    +0.000 OA
ATOM     33  H   UNL     1      -7.020  12.297  22.130  0.00  0.00    +0.000 HD
ENDBRANCH  31  32
ENDBRANCH  28  31
ENDBRANCH  23  26
ENDBRANCH  19  20
ENDBRANCH   6  19
TORSDOF 8
ENDMDL
MODEL 6
REMARK VINA RESULT:      -7.2      4.196      6.334
REMARK  Name = 
REMARK  8 active torsions:
REMARK  status: ('A' for Active; 'I' for Inactive)
REMARK    1  A    between atoms: C_2  and  C_3
REMARK    2  A    between atoms: C_5  and  S_6
REMARK    3  A    between atoms: S_6  and  N_9
REMARK    4  A    between atoms: C_17  and  O_18
REMARK    5  A    between atoms: O_18  and  C_19
REMARK    6  A    between atoms: C_22  and  N_23
REMARK    7  A    between atoms: C_25  and  C_26
REMARK    8  A    between atoms: C_26  and  O_27
REMARK                            x       y       z     vdW  Elec       q    Type
REMARK                         _______ _______ _______ _____ _____    ______ ____
ROOT
ATOM      1  C   UNL     1       1.332   8.658  20.341  0.00  0.00    +0.000 A 
ATOM      2  C   UNL     1       1.991   7.421  20.277  0.00  0.00    +0.000 A 
ATOM      3  C   UNL     1       2.553   6.981  19.078  0.00  0.00    +0.000 A 
ATOM      4  C   UNL     1       2.465   7.766  17.927  0.00  0.00    +0.000 A 
ATOM      5  C   UNL     1       1.840   9.015  17.997  0.00  0.00    +0.000 A 
ATOM      6  C   UNL     1       1.288   9.481  19.200  0.00  0.00    +0.000 A 
ENDROOT
BRANCH   3   7
ATOM      7  S   UNL     1       3.234   5.346  18.991  0.00  0.00    +0.000 S 
ATOM      8  O   UNL     1       4.510   5.374  19.680  0.00  0.00    +0.000 OA
ATOM      9  O   UNL     1       2.219   4.394  19.374  0.00  0.00    +0.000 OA
BRANCH   7  10
ATOM     10  N   UNL     1       3.630   5.181  17.360  0.00  0.00    +0.000 N 
ATOM     11  C   UNL     1       5.020   5.283  17.151  0.00  0.00    +0.000 A 
ATOM     12  N   UNL     1       5.807   4.239  17.251  0.00  0.00    +0.000 NA
ATOM     13  C   UNL     1       7.074   4.644  16.856  0.00  0.00    +0.000 A 
ATOM     14  N   UNL     1       7.305   5.909  16.499  0.00  0.00    +0.000 NA
ATOM     15  S   UNL     1       5.827   6.691  16.606  0.00  0.00    +0.000 S 
ATOM     16  H   UNL     1       3.087   5.881  16.859  0.00  0.00    +0.000 HD
ENDBRANCH   7  10
ENDBRANCH   3   7
BRANCH   1  18
ATOM     17  N   UNL     1       0.175   9.308  22.566  0.00  0.00    +0.000 NA
ATOM     18  C   UNL     1       0.729   9.005  21.595  0.00  0.00    +0.000 C 
ENDBRANCH   1  18
BRANCH   6  19
ATOM     19  O   UNL     1       0.649  10.699  19.108  0.00  0.00    +0.000 OA
BRANCH  19  20
ATOM     20  C   UNL     1       1.349  11.875  19.268  0.00  0.00    +0.000 A 
ATOM     21  C   UNL     1       2.103  12.488  18.267  0.00  0.00    +0.000 A 
ATOM     22  C   UNL     1       2.856  13.628  18.554  0.00  0.00    +0.000 A 
ATOM     23  C   UNL     1       2.791  14.225  19.820  0.00  0.00    +0.000 A 
ATOM     24  C   UNL     1       1.978  13.650  20.807  0.00  0.00    +0.000 A 
ATOM     25  C   UNL     1       1.264  12.477  20.527  0.00  0.00    +0.000 A 
BRANCH  23  26
ATOM     26  N   UNL     1       3.517  15.419  20.089  0.00  0.00    +0.000 N 
ATOM     27  C   UNL     1       4.839  15.676  19.797  0.00  0.00    +0.000 A 
ATOM     28  C   UNL     1       5.106  16.981  20.145  0.00  0.00    +0.000 A 
ATOM     29  C   UNL     1       3.885  17.435  20.679  0.00  0.00    +0.000 A 
ATOM     30  N   UNL     1       2.929  16.505  20.658  0.00  0.00    +0.000 NA
BRANCH  28  31
ATOM     31  C   UNL     1       6.373  17.732  19.966  0.00  0.00    +0.000 C 
BRANCH  31  32
ATOM     32  O   UNL     1       6.879  17.618  18.640  0.00  0.00    +0.000 OA
ATOM     33  H   UNL     1       6.122  17.756  18.044  0.00  0.00    +0.000 HD
ENDBRANCH  31  32
ENDBRANCH  28  31
ENDBRANCH  23  26
ENDBRANCH  19  20
ENDBRANCH   6  19
TORSDOF 8
ENDMDL
MODEL 7
REMARK VINA RESULT:      -7.2      0.865      1.043
REMARK  Name = 
REMARK  8 active torsions:
REMARK  status: ('A' for Active; 'I' for Inactive)
REMARK    1  A    between atoms: C_2  and  C_3
REMARK    2  A    between atoms: C_5  and  S_6
REMARK    3  A    between atoms: S_6  and  N_9
REMARK    4  A    between atoms: C_17  and  O_18
REMARK    5  A    between atoms: O_18  and  C_19
REMARK    6  A    between atoms: C_22  and  N_23
REMARK    7  A    between atoms: C_25  and  C_26
REMARK    8  A    between atoms: C_26  and  O_27
REMARK                            x       y       z     vdW  Elec       q    Type
REMARK                         _______ _______ _______ _____ _____    ______ ____
ROOT
ATOM      1  C   UNL     1       1.671   8.593  20.198  0.00  0.00    +0.000 A 
ATOM      2  C   UNL     1       2.115   7.273  20.022  0.00  0.00    +0.000 A 
ATOM      3  C   UNL     1       2.512   6.823  18.763  0.00  0.00    +0.000 A 
ATOM      4  C   UNL     1       2.471   7.680  17.662  0.00  0.00    +0.000 A 
ATOM      5  C   UNL     1       2.064   9.005  17.841  0.00  0.00    +0.000 A 
ATOM      6  C   UNL     1       1.681   9.480  19.105  0.00  0.00    +0.000 A 
ENDROOT
BRANCH   3   7
ATOM      7  S   UNL     1       2.911   5.110  18.543  0.00  0.00    +0.000 S 
ATOM      8  O   UNL     1       3.855   4.751  19.584  0.00  0.00    +0.000 OA
ATOM      9  O   UNL     1       1.687   4.360  18.379  0.00  0.00    +0.000 OA
BRANCH   7  10
ATOM     10  N   UNL     1       3.816   5.104  17.121  0.00  0.00    +0.000 N 
ATOM     11  C   UNL     1       5.194   5.241  17.383  0.00  0.00    +0.000 A 
ATOM     12  N   UNL     1       5.950   4.202  17.641  0.00  0.00    +0.000 NA
ATOM     13  C   UNL     1       7.259   4.657  17.714  0.00  0.00    +0.000 A 
ATOM     14  N   UNL     1       7.539   5.953  17.561  0.00  0.00    +0.000 NA
ATOM     15  S   UNL     1       6.074   6.704  17.251  0.00  0.00    +0.000 S 
ATOM     16  H   UNL     1       3.433   5.842  16.533  0.00  0.00    +0.000 HD
ENDBRANCH   7  10
ENDBRANCH   3   7
BRANCH   1  18
ATOM     17  N   UNL     1       0.927   9.296  22.577  0.00  0.00    +0.000 NA
ATOM     18  C   UNL     1       1.223   8.955  21.511  0.00  0.00    +0.000 C 
ENDBRANCH   1  18
BRANCH   6  19
ATOM     19  O   UNL     1       1.243  10.787  19.122  0.00  0.00    +0.000 OA
BRANCH  19  20
ATOM     20  C   UNL     1      -0.103  11.077  19.169  0.00  0.00    +0.000 A 
ATOM     21  C   UNL     1      -1.049  10.587  18.268  0.00  0.00    +0.000 A 
ATOM     22  C   UNL     1      -2.376  11.015  18.341  0.00  0.00    +0.000 A 
ATOM     23  C   UNL     1      -2.795  11.865  19.374  0.00  0.00    +0.000 A 
ATOM     24  C   UNL     1      -1.860  12.302  20.322  0.00  0.00    +0.000 A 
ATOM     25  C   UNL     1      -0.519  11.908  20.214  0.00  0.00    +0.000 A 
BRANCH  23  26
ATOM     26  N   UNL     1      -4.160  12.252  19.476  0.00  0.00    +0.000 N 
ATOM     27  C   UNL     1      -5.105  12.251  18.472  0.00  0.00    +0.000 A 
ATOM     28  C   UNL     1      -6.314  12.611  19.025  0.00  0.00    +0.000 A 
ATOM     29  C   UNL     1      -6.000  12.848  20.376  0.00  0.00    +0.000 A 
ATOM     30  N   UNL     1      -4.710  12.644  20.655  0.00  0.00    +0.000 NA
BRANCH  28  31
ATOM     31  C   UNL     1      -7.635  12.695  18.355  0.00  0.00    +0.000 C 
BRANCH  31  32
ATOM     32  O   UNL     1      -7.646  13.668  17.316  0.00  0.00    +0.000 OA
ATOM     33  H   UNL     1      -6.717  13.902  17.147  0.00  0.00    +0.000 HD
ENDBRANCH  31  32
ENDBRANCH  28  31
ENDBRANCH  23  26
ENDBRANCH  19  20
ENDBRANCH   6  19
TORSDOF 8
ENDMDL
MODEL 8
REMARK VINA RESULT:      -7.2      3.233      4.316
REMARK  Name = 
REMARK  8 active torsions:
REMARK  status: ('A' for Active; 'I' for Inactive)
REMARK    1  A    between atoms: C_2  and  C_3
REMARK    2  A    between atoms: C_5  and  S_6
REMARK    3  A    between atoms: S_6  and  N_9
REMARK    4  A    between atoms: C_17  and  O_18
REMARK    5  A    between atoms: O_18  and  C_19
REMARK    6  A    between atoms: C_22  and  N_23
REMARK    7  A    between atoms: C_25  and  C_26
REMARK    8  A    between atoms: C_26  and  O_27
REMARK                            x       y       z     vdW  Elec       q    Type
REMARK                         _______ _______ _______ _____ _____    ______ ____
ROOT
ATOM      1  C   UNL     1       3.318   5.931  19.250  0.00  0.00    +0.000 A 
ATOM      2  C   UNL     1       4.658   5.527  19.354  0.00  0.00    +0.000 A 
ATOM      3  C   UNL     1       5.645   6.151  18.590  0.00  0.00    +0.000 A 
ATOM      4  C   UNL     1       5.311   7.183  17.712  0.00  0.00    +0.000 A 
ATOM      5  C   UNL     1       3.983   7.611  17.633  0.00  0.00    +0.000 A 
ATOM      6  C   UNL     1       2.981   7.008  18.409  0.00  0.00    +0.000 A 
ENDROOT
BRANCH   3   7
ATOM      7  S   UNL     1       7.298   5.510  18.624  0.00  0.00    +0.000 S 
ATOM      8  O   UNL     1       8.116   6.385  17.806  0.00  0.00    +0.000 OA
ATOM      9  O   UNL     1       7.668   5.237  19.993  0.00  0.00    +0.000 OA
BRANCH   7  10
ATOM     10  N   UNL     1       7.176   4.081  17.737  0.00  0.00    +0.000 N 
ATOM     11  C   UNL     1       6.698   4.320  16.433  0.00  0.00    +0.000 A 
ATOM     12  N   UNL     1       7.508   4.634  15.452  0.00  0.00    +0.000 NA
ATOM     13  C   UNL     1       6.751   4.665  14.290  0.00  0.00    +0.000 A 
ATOM     14  N   UNL     1       5.437   4.430  14.327  0.00  0.00    +0.000 NA
ATOM     15  S   UNL     1       5.078   4.090  15.927  0.00  0.00    +0.000 S 
ATOM     16  H   UNL     1       6.588   3.454  18.283  0.00  0.00    +0.000 HD
ENDBRANCH   7  10
ENDBRANCH   3   7
BRANCH   1  18
ATOM     17  N   UNL     1       1.526   4.643  20.606  0.00  0.00    +0.000 NA
ATOM     18  C   UNL     1       2.360   5.196  20.023  0.00  0.00    +0.000 C 
ENDBRANCH   1  18
BRANCH   6  19
ATOM     19  O   UNL     1       1.708   7.488  18.183  0.00  0.00    +0.000 OA
BRANCH  19  20
ATOM     20  C   UNL     1       1.238   8.586  18.870  0.00  0.00    +0.000 A 
ATOM     21  C   UNL     1       1.221   8.700  20.261  0.00  0.00    +0.000 A 
ATOM     22  C   UNL     1       0.636   9.813  20.867  0.00  0.00    +0.000 A 
ATOM     23  C   UNL     1       0.145  10.871  20.090  0.00  0.00    +0.000 A 
ATOM     24  C   UNL     1       0.227  10.790  18.693  0.00  0.00    +0.000 A 
ATOM     25  C   UNL     1       0.770   9.647  18.090  0.00  0.00    +0.000 A 
BRANCH  23  26
ATOM     26  N   UNL     1      -0.398  12.028  20.715  0.00  0.00    +0.000 N 
ATOM     27  C   UNL     1      -1.549  12.702  20.366  0.00  0.00    +0.000 A 
ATOM     28  C   UNL     1      -1.750  13.706  21.288  0.00  0.00    +0.000 A 
ATOM     29  C   UNL     1      -0.643  13.588  22.149  0.00  0.00    +0.000 A 
ATOM     30  N   UNL     1       0.178  12.592  21.810  0.00  0.00    +0.000 NA
BRANCH  28  31
ATOM     31  C   UNL     1      -2.885  14.658  21.367  0.00  0.00    +0.000 C 
BRANCH  31  32
ATOM     32  O   UNL     1      -3.821  14.461  20.312  0.00  0.00    +0.000 OA
ATOM     33  H   UNL     1      -3.498  14.982  19.556  0.00  0.00    +0.000 HD
ENDBRANCH  31  32
ENDBRANCH  28  31
ENDBRANCH  23  26
ENDBRANCH  19  20
ENDBRANCH   6  19
TORSDOF 8
ENDMDL
MODEL 9
REMARK VINA RESULT:      -7.2      4.053      5.923
REMARK  Name = 
REMARK  8 active torsions:
REMARK  status: ('A' for Active; 'I' for Inactive)
REMARK    1  A    between atoms: C_2  and  C_3
REMARK    2  A    between atoms: C_5  and  S_6
REMARK    3  A    between atoms: S_6  and  N_9
REMARK    4  A    between atoms: C_17  and  O_18
REMARK    5  A    between atoms: O_18  and  C_19
REMARK    6  A    between atoms: C_22  and  N_23
REMARK    7  A    between atoms: C_25  and  C_26
REMARK    8  A    between atoms: C_26  and  O_27
REMARK                            x       y       z     vdW  Elec       q    Type
REMARK                         _______ _______ _______ _____ _____    ______ ____
ROOT
ATOM      1  C   UNL     1       1.064   8.981  20.394  0.00  0.00    +0.000 A 
ATOM      2  C   UNL     1       1.893   7.895  20.075  0.00  0.00    +0.000 A 
ATOM      3  C   UNL     1       2.325   7.699  18.763  0.00  0.00    +0.000 A 
ATOM      4  C   UNL     1       1.936   8.580  17.752  0.00  0.00    +0.000 A 
ATOM      5  C   UNL     1       1.140   9.682  18.074  0.00  0.00    +0.000 A 
ATOM      6  C   UNL     1       0.714   9.906  19.393  0.00  0.00    +0.000 A 
ENDROOT
BRANCH   3   7
ATOM      7  S   UNL     1       3.236   6.231  18.363  0.00  0.00    +0.000 S 
ATOM      8  O   UNL     1       4.048   5.900  19.518  0.00  0.00    +0.000 OA
ATOM      9  O   UNL     1       2.330   5.254  17.804  0.00  0.00    +0.000 OA
BRANCH   7  10
ATOM     10  N   UNL     1       4.337   6.764  17.202  0.00  0.00    +0.000 N 
ATOM     11  C   UNL     1       5.420   5.873  17.068  0.00  0.00    +0.000 A 
ATOM     12  N   UNL     1       5.365   4.841  16.263  0.00  0.00    +0.000 NA
ATOM     13  C   UNL     1       6.623   4.257  16.259  0.00  0.00    +0.000 A 
ATOM     14  N   UNL     1       7.605   4.750  17.017  0.00  0.00    +0.000 NA
ATOM     15  S   UNL     1       6.959   6.090  17.787  0.00  0.00    +0.000 S 
ATOM     16  H   UNL     1       4.610   7.706  17.476  0.00  0.00    +0.000 HD
ENDBRANCH   7  10
ENDBRANCH   3   7
BRANCH   1  18
ATOM     17  N   UNL     1       0.328   9.177  22.871  0.00  0.00    +0.000 NA
ATOM     18  C   UNL     1       0.615   9.074  21.753  0.00  0.00    +0.000 C 
ENDBRANCH   1  18
BRANCH   6  19
ATOM     19  O   UNL     1      -0.118  10.994  19.554  0.00  0.00    +0.000 OA
BRANCH  19  20
ATOM     20  C   UNL     1       0.403  12.264  19.681  0.00  0.00    +0.000 A 
ATOM     21  C   UNL     1       0.551  13.166  18.627  0.00  0.00    +0.000 A 
ATOM     22  C   UNL     1       1.179  14.395  18.839  0.00  0.00    +0.000 A 
ATOM     23  C   UNL     1       1.581  14.778  20.126  0.00  0.00    +0.000 A 
ATOM     24  C   UNL     1       1.368  13.901  21.198  0.00  0.00    +0.000 A 
ATOM     25  C   UNL     1       0.783  12.647  20.971  0.00  0.00    +0.000 A 
BRANCH  23  26
ATOM     26  N   UNL     1       2.168  16.056  20.345  0.00  0.00    +0.000 N 
ATOM     27  C   UNL     1       3.476  16.325  20.684  0.00  0.00    +0.000 A 
ATOM     28  C   UNL     1       3.636  17.694  20.706  0.00  0.00    +0.000 A 
ATOM     29  C   UNL     1       2.352  18.180  20.400  0.00  0.00    +0.000 A 
ATOM     30  N   UNL     1       1.462  17.207  20.190  0.00  0.00    +0.000 NA
BRANCH  28  31
ATOM     31  C   UNL     1       4.879  18.463  20.962  0.00  0.00    +0.000 C 
BRANCH  31  32
ATOM     32  O   UNL     1       5.820  18.325  19.902  0.00  0.00    +0.000 OA
ATOM     33  H   UNL     1       5.541  18.944  19.205  0.00  0.00    +0.000 HD
ENDBRANCH  31  32
ENDBRANCH  28  31
ENDBRANCH  23  26
ENDBRANCH  19  20
ENDBRANCH   6  19
TORSDOF 8
ENDMDL
