MODEL 1
REMARK VINA RESULT:      -8.4      0.000      0.000
REMARK  Name = 
REMARK  7 active torsions:
REMARK  status: ('A' for Active; 'I' for Inactive)
REMARK    1  A    between atoms: C_2  and  O_3
REMARK    2  A    between atoms: C_2  and  C_4
REMARK    3  A    between atoms: C_4  and  C_5
REMARK    4  A    between atoms: C_5  and  C_6
REMARK    5  A    between atoms: CA_7  and  C_8
REMARK    6  A    between atoms: C_8  and  OXT_10
REMARK    7  A    between atoms: C_14  and  C_15
REMARK                            x       y       z     vdW  Elec       q    Type
REMARK                         _______ _______ _______ _____ _____    ______ ____
ROOT
ATOM      1  C   UNL     1       3.663   4.744  18.142  0.00  0.00    +0.000 A 
ATOM      2  CA  UNL     1       3.503   3.764  19.124  0.00  0.00    +0.000 A 
ATOM      3  N   UNL     1       2.819   4.356  20.165  0.00  0.00    +0.000 N 
ATOM      4  C   UNL     1       2.506   5.662  19.877  0.00  0.00    +0.000 A 
ATOM      5  C   UNL     1       1.785   6.609  20.627  0.00  0.00    +0.000 A 
ATOM      6  C   UNL     1       1.626   7.916  20.119  0.00  0.00    +0.000 A 
ATOM      7  C   UNL     1       2.244   8.221  18.895  0.00  0.00    +0.000 A 
ATOM      8  C   UNL     1       2.947   7.262  18.148  0.00  0.00    +0.000 A 
ATOM      9  C   UNL     1       3.065   5.949  18.638  0.00  0.00    +0.000 A 
ATOM     10  H   UNL     1       2.612   3.919  21.053  0.00  0.00    +0.000 HD
ENDROOT
BRANCH   6  11
ATOM     11  C   UNL     1       0.810   8.930  20.838  0.00  0.00    +0.000 A 
ATOM     12  C   UNL     1       0.625   8.885  22.233  0.00  0.00    +0.000 A 
ATOM     13  C   UNL     1      -0.172   9.828  22.894  0.00  0.00    +0.000 A 
ATOM     14  C   UNL     1      -0.786  10.839  22.169  0.00  0.00    +0.000 A 
ATOM     15  F   UNL     1      -1.547  11.740  22.801  0.00  0.00    +0.000 F 
ATOM     16  C   UNL     1      -0.621  10.922  20.796  0.00  0.00    +0.000 A 
ATOM     17  C   UNL     1       0.165   9.971  20.138  0.00  0.00    +0.000 A 
ENDBRANCH   6  11
BRANCH   2  18
ATOM     18  C   UNL     1       4.005   2.406  19.111  0.00  0.00    +0.000 C 
ATOM     19  O   UNL     1       3.442   1.446  18.600  0.00  0.00    +0.000 OA
BRANCH  18  20
ATOM     20  OXT UNL     1       5.169   2.276  19.787  0.00  0.00    +0.000 OA
ATOM     21  HXT UNL     1       5.944   2.641  19.325  0.00  0.00    +0.000 HD
ENDBRANCH  18  20
ENDBRANCH   2  18
BRANCH   1  22
ATOM     22  C   UNL     1       4.344   4.575  16.809  0.00  0.00    +0.000 C 
BRANCH  22  23
ATOM     23  C   UNL     1       5.591   5.442  16.668  0.00  0.00    +0.000 C 
BRANCH  23  25
ATOM     24  O   UNL     1       7.699   4.450  16.076  0.00  0.00    +0.000 OA
ATOM     25  C   UNL     1       6.832   4.633  16.916  0.00  0.00    +0.000 C 
BRANCH  25  26
ATOM     26  O   UNL     1       6.914   4.138  18.170  0.00  0.00    +0.000 OA
ATOM     27  H   UNL     1       6.255   4.506  18.794  0.00  0.00    +0.000 HD
ENDBRANCH  25  26
ENDBRANCH  23  25
ENDBRANCH  22  23
ENDBRANCH   1  22
TORSDOF 7
ENDMDL
MODEL 2
REMARK VINA RESULT:      -8.3      0.142      1.183
REMARK  Name = 
REMARK  7 active torsions:
REMARK  status: ('A' for Active; 'I' for Inactive)
REMARK    1  A    between atoms: C_2  and  O_3
REMARK    2  A    between atoms: C_2  and  C_4
REMARK    3  A    between atoms: C_4  and  C_5
REMARK    4  A    between atoms: C_5  and  C_6
REMARK    5  A    between atoms: CA_7  and  C_8
REMARK    6  A    between atoms: C_8  and  OXT_10
REMARK    7  A    between atoms: C_14  and  C_15
REMARK                            x       y       z     vdW  Elec       q    Type
REMARK                         _______ _______ _______ _____ _____    ______ ____
ROOT
ATOM      1  C   UNL     1       3.674   4.736  18.154  0.00  0.00    +0.000 A 
ATOM      2  CA  UNL     1       3.526   3.765  19.145  0.00  0.00    +0.000 A 
ATOM      3  N   UNL     1       2.840   4.361  20.183  0.00  0.00    +0.000 N 
ATOM      4  C   UNL     1       2.513   5.662  19.883  0.00  0.00    +0.000 A 
ATOM      5  C   UNL     1       1.786   6.609  20.625  0.00  0.00    +0.000 A 
ATOM      6  C   UNL     1       1.613   7.909  20.105  0.00  0.00    +0.000 A 
ATOM      7  C   UNL     1       2.224   8.207  18.875  0.00  0.00    +0.000 A 
ATOM      8  C   UNL     1       2.934   7.248  18.136  0.00  0.00    +0.000 A 
ATOM      9  C   UNL     1       3.066   5.941  18.639  0.00  0.00    +0.000 A 
ATOM     10  H   UNL     1       2.640   3.932  21.076  0.00  0.00    +0.000 HD
ENDROOT
BRANCH   6  11
ATOM     11  C   UNL     1       0.790   8.923  20.815  0.00  0.00    +0.000 A 
ATOM     12  C   UNL     1       0.288  10.066  20.163  0.00  0.00    +0.000 A 
ATOM     13  C   UNL     1      -0.458  11.030  20.851  0.00  0.00    +0.000 A 
ATOM     14  C   UNL     1      -0.726  10.858  22.202  0.00  0.00    +0.000 A 
ATOM     15  F   UNL     1      -1.440  11.779  22.859  0.00  0.00    +0.000 F 
ATOM     16  C   UNL     1      -0.257   9.742  22.877  0.00  0.00    +0.000 A 
ATOM     17  C   UNL     1       0.500   8.788  22.189  0.00  0.00    +0.000 A 
ENDBRANCH   6  11
BRANCH   2  18
ATOM     18  C   UNL     1       4.041   2.412  19.145  0.00  0.00    +0.000 C 
ATOM     19  O   UNL     1       3.504   1.449  18.613  0.00  0.00    +0.000 OA
BRANCH  18  20
ATOM     20  OXT UNL     1       5.183   2.290  19.859  0.00  0.00    +0.000 OA
ATOM     21  HXT UNL     1       5.154   1.601  20.545  0.00  0.00    +0.000 HD
ENDBRANCH  18  20
ENDBRANCH   2  18
BRANCH   1  22
ATOM     22  C   UNL     1       4.352   4.560  16.820  0.00  0.00    +0.000 C 
BRANCH  22  23
ATOM     23  C   UNL     1       5.607   5.415  16.678  0.00  0.00    +0.000 C 
BRANCH  23  25
ATOM     24  O   UNL     1       6.879   4.374  18.431  0.00  0.00    +0.000 OA
ATOM     25  C   UNL     1       6.798   4.712  17.260  0.00  0.00    +0.000 C 
BRANCH  25  26
ATOM     26  O   UNL     1       7.775   4.464  16.360  0.00  0.00    +0.000 OA
ATOM     27  H   UNL     1       7.600   4.821  15.465  0.00  0.00    +0.000 HD
ENDBRANCH  25  26
ENDBRANCH  23  25
ENDBRANCH  22  23
ENDBRANCH   1  22
TORSDOF 7
ENDMDL
MODEL 3
REMARK VINA RESULT:      -8.1      1.133      1.275
REMARK  Name = 
REMARK  7 active torsions:
REMARK  status: ('A' for Active; 'I' for Inactive)
REMARK    1  A    between atoms: C_2  and  O_3
REMARK    2  A    between atoms: C_2  and  C_4
REMARK    3  A    between atoms: C_4  and  C_5
REMARK    4  A    between atoms: C_5  and  C_6
REMARK    5  A    between atoms: CA_7  and  C_8
REMARK    6  A    between atoms: C_8  and  OXT_10
REMARK    7  A    between atoms: C_14  and  C_15
REMARK                            x       y       z     vdW  Elec       q    Type
REMARK                         _______ _______ _______ _____ _____    ______ ____
ROOT
ATOM      1  C   UNL     1       3.777   5.699  18.064  0.00  0.00    +0.000 A 
ATOM      2  CA  UNL     1       3.768   4.897  19.207  0.00  0.00    +0.000 A 
ATOM      3  N   UNL     1       3.033   5.572  20.158  0.00  0.00    +0.000 N 
ATOM      4  C   UNL     1       2.543   6.757  19.662  0.00  0.00    +0.000 A 
ATOM      5  C   UNL     1       1.719   7.721  20.267  0.00  0.00    +0.000 A 
ATOM      6  C   UNL     1       1.377   8.887  19.548  0.00  0.00    +0.000 A 
ATOM      7  C   UNL     1       1.925   9.046  18.264  0.00  0.00    +0.000 A 
ATOM      8  C   UNL     1       2.733   8.067  17.664  0.00  0.00    +0.000 A 
ATOM      9  C   UNL     1       3.035   6.887  18.369  0.00  0.00    +0.000 A 
ATOM     10  H   UNL     1       2.904   5.278  21.117  0.00  0.00    +0.000 HD
ENDROOT
BRANCH   6  11
ATOM     11  C   UNL     1       0.449   9.901  20.114  0.00  0.00    +0.000 A 
ATOM     12  C   UNL     1       0.442  10.220  21.486  0.00  0.00    +0.000 A 
ATOM     13  C   UNL     1      -0.459  11.154  22.013  0.00  0.00    +0.000 A 
ATOM     14  C   UNL     1      -1.359  11.792  21.171  0.00  0.00    +0.000 A 
ATOM     15  F   UNL     1      -2.220  12.685  21.675  0.00  0.00    +0.000 F 
ATOM     16  C   UNL     1      -1.377  11.511  19.814  0.00  0.00    +0.000 A 
ATOM     17  C   UNL     1      -0.484  10.568  19.295  0.00  0.00    +0.000 A 
ENDBRANCH   6  11
BRANCH   2  18
ATOM     18  C   UNL     1       4.446   3.633  19.407  0.00  0.00    +0.000 C 
ATOM     19  O   UNL     1       3.903   2.578  19.710  0.00  0.00    +0.000 OA
BRANCH  18  20
ATOM     20  OXT UNL     1       5.788   3.737  19.282  0.00  0.00    +0.000 OA
ATOM     21  HXT UNL     1       6.139   3.399  18.439  0.00  0.00    +0.000 HD
ENDBRANCH  18  20
ENDBRANCH   2  18
BRANCH   1  22
ATOM     22  C   UNL     1       4.446   5.384  16.752  0.00  0.00    +0.000 C 
BRANCH  22  23
ATOM     23  C   UNL     1       5.751   6.150  16.555  0.00  0.00    +0.000 C 
BRANCH  23  25
ATOM     24  O   UNL     1       7.574   5.487  15.136  0.00  0.00    +0.000 OA
ATOM     25  C   UNL     1       6.839   5.232  16.078  0.00  0.00    +0.000 C 
BRANCH  25  26
ATOM     26  O   UNL     1       6.948   4.097  16.803  0.00  0.00    +0.000 OA
ATOM     27  H   UNL     1       6.585   3.301  16.363  0.00  0.00    +0.000 HD
ENDBRANCH  25  26
ENDBRANCH  23  25
ENDBRANCH  22  23
ENDBRANCH   1  22
TORSDOF 7
ENDMDL
MODEL 4
REMARK VINA RESULT:      -8.0      0.859      1.025
REMARK  Name = 
REMARK  7 active torsions:
REMARK  status: ('A' for Active; 'I' for Inactive)
REMARK    1  A    between atoms: C_2  and  O_3
REMARK    2  A    between atoms: C_2  and  C_4
REMARK    3  A    between atoms: C_4  and  C_5
REMARK    4  A    between atoms: C_5  and  C_6
REMARK    5  A    between atoms: CA_7  and  C_8
REMARK    6  A    between atoms: C_8  and  OXT_10
REMARK    7  A    between atoms: C_14  and  C_15
REMARK                            x       y       z     vdW  Elec       q    Type
REMARK                         _______ _______ _______ _____ _____    ______ ____
ROOT
ATOM      1  C   UNL     1       3.743   4.408  18.040  0.00  0.00    +0.000 A 
ATOM      2  CA  UNL     1       3.624   3.475  19.071  0.00  0.00    +0.000 A 
ATOM      3  N   UNL     1       2.990   4.118  20.114  0.00  0.00    +0.000 N 
ATOM      4  C   UNL     1       2.669   5.412  19.782  0.00  0.00    +0.000 A 
ATOM      5  C   UNL     1       1.987   6.396  20.519  0.00  0.00    +0.000 A 
ATOM      6  C   UNL     1       1.811   7.680  19.960  0.00  0.00    +0.000 A 
ATOM      7  C   UNL     1       2.374   7.925  18.697  0.00  0.00    +0.000 A 
ATOM      8  C   UNL     1       3.039   6.929  17.963  0.00  0.00    +0.000 A 
ATOM      9  C   UNL     1       3.174   5.639  18.506  0.00  0.00    +0.000 A 
ATOM     10  H   UNL     1       2.821   3.724  21.029  0.00  0.00    +0.000 HD
ENDROOT
BRANCH   6  11
ATOM     11  C   UNL     1       1.033   8.730  20.667  0.00  0.00    +0.000 A 
ATOM     12  C   UNL     1       0.844   8.706  22.063  0.00  0.00    +0.000 A 
ATOM     13  C   UNL     1       0.082   9.684  22.714  0.00  0.00    +0.000 A 
ATOM     14  C   UNL     1      -0.492  10.710  21.978  0.00  0.00    +0.000 A 
ATOM     15  F   UNL     1      -1.220  11.646  22.600  0.00  0.00    +0.000 F 
ATOM     16  C   UNL     1      -0.322  10.774  20.604  0.00  0.00    +0.000 A 
ATOM     17  C   UNL     1       0.428   9.788  19.956  0.00  0.00    +0.000 A 
ENDBRANCH   6  11
BRANCH   2  18
ATOM     18  C   UNL     1       4.119   2.115  19.097  0.00  0.00    +0.000 C 
ATOM     19  O   UNL     1       3.668   1.183  18.443  0.00  0.00    +0.000 OA
BRANCH  18  20
ATOM     20  OXT UNL     1       5.124   1.945  19.985  0.00  0.00    +0.000 OA
ATOM     21  HXT UNL     1       5.999   2.219  19.657  0.00  0.00    +0.000 HD
ENDBRANCH  18  20
ENDBRANCH   2  18
BRANCH   1  22
ATOM     22  C   UNL     1       4.362   4.175  16.686  0.00  0.00    +0.000 C 
BRANCH  22  23
ATOM     23  C   UNL     1       5.838   4.556  16.638  0.00  0.00    +0.000 C 
BRANCH  23  25
ATOM     24  O   UNL     1       5.708   4.224  14.261  0.00  0.00    +0.000 OA
ATOM     25  C   UNL     1       6.307   4.690  15.218  0.00  0.00    +0.000 C 
BRANCH  25  26
ATOM     26  O   UNL     1       7.451   5.397  15.089  0.00  0.00    +0.000 OA
ATOM     27  H   UNL     1       8.105   5.240  15.801  0.00  0.00    +0.000 HD
ENDBRANCH  25  26
ENDBRANCH  23  25
ENDBRANCH  22  23
ENDBRANCH   1  22
TORSDOF 7
ENDMDL
MODEL 5
REMARK VINA RESULT:      -8.0      5.434      8.180
REMARK  Name = 
REMARK  7 active torsions:
REMARK  status: ('A' for Active; 'I' for Inactive)
REMARK    1  A    between atoms: C_2  and  O_3
REMARK    2  A    between atoms: C_2  and  C_4
REMARK    3  A    between atoms: C_4  and  C_5
REMARK    4  A    between atoms: C_5  and  C_6
REMARK    5  A    between atoms: CA_7  and  C_8
REMARK    6  A    between atoms: C_8  and  OXT_10
REMARK    7  A    between atoms: C_14  and  C_15
REMARK                            x       y       z     vdW  Elec       q    Type
REMARK                         _______ _______ _______ _____ _____    ______ ____
ROOT
ATOM      1  C   UNL     1       0.665  10.050  20.569  0.00  0.00    +0.000 A 
ATOM      2  CA  UNL     1       0.586   9.327  21.761  0.00  0.00    +0.000 A 
ATOM      3  N   UNL     1       1.193   8.111  21.526  0.00  0.00    +0.000 N 
ATOM      4  C   UNL     1       1.685   8.038  20.245  0.00  0.00    +0.000 A 
ATOM      5  C   UNL     1       2.405   7.013  19.606  0.00  0.00    +0.000 A 
ATOM      6  C   UNL     1       2.774   7.167  18.253  0.00  0.00    +0.000 A 
ATOM      7  C   UNL     1       2.356   8.334  17.591  0.00  0.00    +0.000 A 
ATOM      8  C   UNL     1       1.652   9.359  18.245  0.00  0.00    +0.000 A 
ATOM      9  C   UNL     1       1.325   9.219  19.606  0.00  0.00    +0.000 A 
ATOM     10  H   UNL     1       1.233   7.340  22.179  0.00  0.00    +0.000 HD
ENDROOT
BRANCH   6  11
ATOM     11  C   UNL     1       3.598   6.146  17.555  0.00  0.00    +0.000 A 
ATOM     12  C   UNL     1       3.322   4.769  17.657  0.00  0.00    +0.000 A 
ATOM     13  C   UNL     1       4.127   3.815  17.021  0.00  0.00    +0.000 A 
ATOM     14  C   UNL     1       5.212   4.226  16.261  0.00  0.00    +0.000 A 
ATOM     15  F   UNL     1       5.979   3.314  15.652  0.00  0.00    +0.000 F 
ATOM     16  C   UNL     1       5.510   5.573  16.129  0.00  0.00    +0.000 A 
ATOM     17  C   UNL     1       4.713   6.522  16.777  0.00  0.00    +0.000 A 
ENDBRANCH   6  11
BRANCH   2  18
ATOM     18  C   UNL     1      -0.059   9.721  22.995  0.00  0.00    +0.000 C 
ATOM     19  O   UNL     1      -1.176  10.213  23.087  0.00  0.00    +0.000 OA
BRANCH  18  20
ATOM     20  OXT UNL     1       0.735   9.544  24.076  0.00  0.00    +0.000 OA
ATOM     21  HXT UNL     1       0.706  10.274  24.718  0.00  0.00    +0.000 HD
ENDBRANCH  18  20
ENDBRANCH   2  18
BRANCH   1  22
ATOM     22  C   UNL     1       0.148  11.445  20.330  0.00  0.00    +0.000 C 
BRANCH  22  23
ATOM     23  C   UNL     1      -1.053  11.476  19.390  0.00  0.00    +0.000 C 
BRANCH  23  25
ATOM     24  O   UNL     1      -0.244  13.579  18.552  0.00  0.00    +0.000 OA
ATOM     25  C   UNL     1      -0.901  12.566  18.368  0.00  0.00    +0.000 C 
BRANCH  25  26
ATOM     26  O   UNL     1      -1.545  12.315  17.207  0.00  0.00    +0.000 OA
ATOM     27  H   UNL     1      -1.580  11.367  16.961  0.00  0.00    +0.000 HD
ENDBRANCH  25  26
ENDBRANCH  23  25
ENDBRANCH  22  23
ENDBRANCH   1  22
TORSDOF 7
ENDMDL
MODEL 6
REMARK VINA RESULT:      -8.0      5.284      8.148
REMARK  Name = 
REMARK  7 active torsions:
REMARK  status: ('A' for Active; 'I' for Inactive)
REMARK    1  A    between atoms: C_2  and  O_3
REMARK    2  A    between atoms: C_2  and  C_4
REMARK    3  A    between atoms: C_4  and  C_5
REMARK    4  A    between atoms: C_5  and  C_6
REMARK    5  A    between atoms: CA_7  and  C_8
REMARK    6  A    between atoms: C_8  and  OXT_10
REMARK    7  A    between atoms: C_14  and  C_15
REMARK                            x       y       z     vdW  Elec       q    Type
REMARK                         _______ _______ _______ _____ _____    ______ ____
ROOT
ATOM      1  C   UNL     1       0.691   9.915  20.270  0.00  0.00    +0.000 A 
ATOM      2  CA  UNL     1       0.587   9.188  21.457  0.00  0.00    +0.000 A 
ATOM      3  N   UNL     1       1.248   7.996  21.250  0.00  0.00    +0.000 N 
ATOM      4  C   UNL     1       1.798   7.943  19.992  0.00  0.00    +0.000 A 
ATOM      5  C   UNL     1       2.584   6.947  19.386  0.00  0.00    +0.000 A 
ATOM      6  C   UNL     1       3.005   7.116  18.050  0.00  0.00    +0.000 A 
ATOM      7  C   UNL     1       2.573   8.267  17.370  0.00  0.00    +0.000 A 
ATOM      8  C   UNL     1       1.803   9.264  17.991  0.00  0.00    +0.000 A 
ATOM      9  C   UNL     1       1.423   9.110  19.337  0.00  0.00    +0.000 A 
ATOM     10  H   UNL     1       1.289   7.227  21.905  0.00  0.00    +0.000 HD
ENDROOT
BRANCH   6  11
ATOM     11  C   UNL     1       3.897   6.127  17.389  0.00  0.00    +0.000 A 
ATOM     12  C   UNL     1       4.913   6.520  16.496  0.00  0.00    +0.000 A 
ATOM     13  C   UNL     1       5.726   5.577  15.855  0.00  0.00    +0.000 A 
ATOM     14  C   UNL     1       5.543   4.225  16.109  0.00  0.00    +0.000 A 
ATOM     15  F   UNL     1       6.320   3.324  15.497  0.00  0.00    +0.000 F 
ATOM     16  C   UNL     1       4.560   3.800  16.988  0.00  0.00    +0.000 A 
ATOM     17  C   UNL     1       3.741   4.744  17.616  0.00  0.00    +0.000 A 
ENDBRANCH   6  11
BRANCH   2  18
ATOM     18  C   UNL     1      -0.126   9.557  22.663  0.00  0.00    +0.000 C 
ATOM     19  O   UNL     1       0.065  10.574  23.317  0.00  0.00    +0.000 OA
BRANCH  18  20
ATOM     20  OXT UNL     1      -1.015   8.614  23.048  0.00  0.00    +0.000 OA
ATOM     21  HXT UNL     1      -0.715   7.699  22.908  0.00  0.00    +0.000 HD
ENDBRANCH  18  20
ENDBRANCH   2  18
BRANCH   1  22
ATOM     22  C   UNL     1       0.132  11.289  20.007  0.00  0.00    +0.000 C 
BRANCH  22  23
ATOM     23  C   UNL     1      -1.324  11.258  19.553  0.00  0.00    +0.000 C 
BRANCH  23  25
ATOM     24  O   UNL     1      -1.564  10.276  17.372  0.00  0.00    +0.000 OA
ATOM     25  C   UNL     1      -1.414  11.278  18.054  0.00  0.00    +0.000 C 
BRANCH  25  26
ATOM     26  O   UNL     1      -1.333  12.517  17.522  0.00  0.00    +0.000 OA
ATOM     27  H   UNL     1      -1.997  12.702  16.826  0.00  0.00    +0.000 HD
ENDBRANCH  25  26
ENDBRANCH  23  25
ENDBRANCH  22  23
ENDBRANCH   1  22
TORSDOF 7
ENDMDL
MODEL 7
REMARK VINA RESULT:      -7.9      1.143      1.674
REMARK  Name = 
REMARK  7 active torsions:
REMARK  status: ('A' for Active; 'I' for Inactive)
REMARK    1  A    between atoms: C_2  and  O_3
REMARK    2  A    between atoms: C_2  and  C_4
REMARK    3  A    between atoms: C_4  and  C_5
REMARK    4  A    between atoms: C_5  and  C_6
REMARK    5  A    between atoms: CA_7  and  C_8
REMARK    6  A    between atoms: C_8  and  OXT_10
REMARK    7  A    between atoms: C_14  and  C_15
REMARK                            x       y       z     vdW  Elec       q    Type
REMARK                         _______ _______ _______ _____ _____    ______ ____
ROOT
ATOM      1  C   UNL     1       3.765   5.614  18.189  0.00  0.00    +0.000 A 
ATOM      2  CA  UNL     1       3.630   4.827  19.333  0.00  0.00    +0.000 A 
ATOM      3  N   UNL     1       2.844   5.541  20.214  0.00  0.00    +0.000 N 
ATOM      4  C   UNL     1       2.444   6.737  19.668  0.00  0.00    +0.000 A 
ATOM      5  C   UNL     1       1.610   7.740  20.192  0.00  0.00    +0.000 A 
ATOM      6  C   UNL     1       1.375   8.909  19.436  0.00  0.00    +0.000 A 
ATOM      7  C   UNL     1       2.034   9.031  18.201  0.00  0.00    +0.000 A 
ATOM      8  C   UNL     1       2.852   8.015  17.681  0.00  0.00    +0.000 A 
ATOM      9  C   UNL     1       3.047   6.833  18.419  0.00  0.00    +0.000 A 
ATOM     10  H   UNL     1       2.624   5.264  21.160  0.00  0.00    +0.000 HD
ENDROOT
BRANCH   6  11
ATOM     11  C   UNL     1       0.443   9.963  19.913  0.00  0.00    +0.000 A 
ATOM     12  C   UNL     1      -0.603  10.454  19.107  0.00  0.00    +0.000 A 
ATOM     13  C   UNL     1      -1.454  11.472  19.556  0.00  0.00    +0.000 A 
ATOM     14  C   UNL     1      -1.280  12.004  20.825  0.00  0.00    +0.000 A 
ATOM     15  F   UNL     1      -2.095  12.975  21.254  0.00  0.00    +0.000 F 
ATOM     16  C   UNL     1      -0.268  11.541  21.652  0.00  0.00    +0.000 A 
ATOM     17  C   UNL     1       0.588  10.535  21.194  0.00  0.00    +0.000 A 
ENDBRANCH   6  11
BRANCH   2  18
ATOM     18  C   UNL     1       4.239   3.541  19.602  0.00  0.00    +0.000 C 
ATOM     19  O   UNL     1       5.442   3.312  19.602  0.00  0.00    +0.000 OA
BRANCH  18  20
ATOM     20  OXT UNL     1       3.324   2.566  19.805  0.00  0.00    +0.000 OA
ATOM     21  HXT UNL     1       2.402   2.851  19.683  0.00  0.00    +0.000 HD
ENDBRANCH  18  20
ENDBRANCH   2  18
BRANCH   1  22
ATOM     22  C   UNL     1       4.530   5.258  16.940  0.00  0.00    +0.000 C 
BRANCH  22  23
ATOM     23  C   UNL     1       5.902   5.922  16.878  0.00  0.00    +0.000 C 
BRANCH  23  25
ATOM     24  O   UNL     1       7.560   4.701  15.637  0.00  0.00    +0.000 OA
ATOM     25  C   UNL     1       6.982   4.894  16.696  0.00  0.00    +0.000 C 
BRANCH  25  26
ATOM     26  O   UNL     1       7.275   4.209  17.823  0.00  0.00    +0.000 OA
ATOM     27  H   UNL     1       6.682   3.449  17.999  0.00  0.00    +0.000 HD
ENDBRANCH  25  26
ENDBRANCH  23  25
ENDBRANCH  22  23
ENDBRANCH   1  22
TORSDOF 7
ENDMDL
MODEL 8
REMARK VINA RESULT:      -7.8      0.842      1.107
REMARK  Name = 
REMARK  7 active torsions:
REMARK  status: ('A' for Active; 'I' for Inactive)
REMARK    1  A    between atoms: C_2  and  O_3
REMARK    2  A    between atoms: C_2  and  C_4
REMARK    3  A    between atoms: C_4  and  C_5
REMARK    4  A    between atoms: C_5  and  C_6
REMARK    5  A    between atoms: CA_7  and  C_8
REMARK    6  A    between atoms: C_8  and  OXT_10
REMARK    7  A    between atoms: C_14  and  C_15
REMARK                            x       y       z     vdW  Elec       q    Type
REMARK                         _______ _______ _______ _____ _____    ______ ____
ROOT
ATOM      1  C   UNL     1       3.912   5.154  17.902  0.00  0.00    +0.000 A 
ATOM      2  CA  UNL     1       3.626   4.242  18.920  0.00  0.00    +0.000 A 
ATOM      3  N   UNL     1       2.821   4.901  19.826  0.00  0.00    +0.000 N 
ATOM      4  C   UNL     1       2.553   6.184  19.414  0.00  0.00    +0.000 A 
ATOM      5  C   UNL     1       1.749   7.177  20.002  0.00  0.00    +0.000 A 
ATOM      6  C   UNL     1       1.662   8.446  19.392  0.00  0.00    +0.000 A 
ATOM      7  C   UNL     1       2.430   8.670  18.236  0.00  0.00    +0.000 A 
ATOM      8  C   UNL     1       3.215   7.665  17.649  0.00  0.00    +0.000 A 
ATOM      9  C   UNL     1       3.264   6.388  18.237  0.00  0.00    +0.000 A 
ATOM     10  H   UNL     1       2.503   4.525  20.708  0.00  0.00    +0.000 HD
ENDROOT
BRANCH   6  11
ATOM     11  C   UNL     1       0.769   9.504  19.933  0.00  0.00    +0.000 A 
ATOM     12  C   UNL     1       0.779   9.863  21.295  0.00  0.00    +0.000 A 
ATOM     13  C   UNL     1      -0.090  10.839  21.798  0.00  0.00    +0.000 A 
ATOM     14  C   UNL     1      -0.974  11.480  20.943  0.00  0.00    +0.000 A 
ATOM     15  F   UNL     1      -1.804  12.414  21.424  0.00  0.00    +0.000 F 
ATOM     16  C   UNL     1      -1.008  11.161  19.594  0.00  0.00    +0.000 A 
ATOM     17  C   UNL     1      -0.148  10.177  19.098  0.00  0.00    +0.000 A 
ENDBRANCH   6  11
BRANCH   2  18
ATOM     18  C   UNL     1       4.119   2.888  19.061  0.00  0.00    +0.000 C 
ATOM     19  O   UNL     1       3.539   1.879  18.680  0.00  0.00    +0.000 OA
BRANCH  18  20
ATOM     20  OXT UNL     1       5.294   2.830  19.728  0.00  0.00    +0.000 OA
ATOM     21  HXT UNL     1       5.261   3.192  20.630  0.00  0.00    +0.000 HD
ENDBRANCH  18  20
ENDBRANCH   2  18
BRANCH   1  22
ATOM     22  C   UNL     1       4.753   4.897  16.678  0.00  0.00    +0.000 C 
BRANCH  22  23
ATOM     23  C   UNL     1       6.093   5.624  16.719  0.00  0.00    +0.000 C 
BRANCH  23  25
ATOM     24  O   UNL     1       7.163   4.883  18.740  0.00  0.00    +0.000 OA
ATOM     25  C   UNL     1       7.096   4.846  17.522  0.00  0.00    +0.000 C 
BRANCH  25  26
ATOM     26  O   UNL     1       7.913   4.078  16.769  0.00  0.00    +0.000 OA
ATOM     27  H   UNL     1       7.593   3.162  16.630  0.00  0.00    +0.000 HD
ENDBRANCH  25  26
ENDBRANCH  23  25
ENDBRANCH  22  23
ENDBRANCH   1  22
TORSDOF 7
ENDMDL
MODEL 9
REMARK VINA RESULT:      -7.8      1.267      1.672
REMARK  Name = 
REMARK  7 active torsions:
REMARK  status: ('A' for Active; 'I' for Inactive)
REMARK    1  A    between atoms: C_2  and  O_3
REMARK    2  A    between atoms: C_2  and  C_4
REMARK    3  A    between atoms: C_4  and  C_5
REMARK    4  A    between atoms: C_5  and  C_6
REMARK    5  A    between atoms: CA_7  and  C_8
REMARK    6  A    between atoms: C_8  and  OXT_10
REMARK    7  A    between atoms: C_14  and  C_15
REMARK                            x       y       z     vdW  Elec       q    Type
REMARK                         _______ _______ _______ _____ _____    ______ ____
ROOT
ATOM      1  C   UNL     1       4.329   4.450  18.055  0.00  0.00    +0.000 A 
ATOM      2  CA  UNL     1       3.955   3.668  19.149  0.00  0.00    +0.000 A 
ATOM      3  N   UNL     1       3.122   4.447  19.925  0.00  0.00    +0.000 N 
ATOM      4  C   UNL     1       2.921   5.682  19.357  0.00  0.00    +0.000 A 
ATOM      5  C   UNL     1       2.120   6.757  19.780  0.00  0.00    +0.000 A 
ATOM      6  C   UNL     1       2.109   7.950  19.027  0.00  0.00    +0.000 A 
ATOM      7  C   UNL     1       2.949   8.020  17.902  0.00  0.00    +0.000 A 
ATOM      8  C   UNL     1       3.732   6.934  17.480  0.00  0.00    +0.000 A 
ATOM      9  C   UNL     1       3.705   5.731  18.209  0.00  0.00    +0.000 A 
ATOM     10  H   UNL     1       2.742   4.183  20.824  0.00  0.00    +0.000 HD
ENDROOT
BRANCH   6  11
ATOM     11  C   UNL     1       1.223   9.087  19.392  0.00  0.00    +0.000 A 
ATOM     12  C   UNL     1       0.890   9.373  20.730  0.00  0.00    +0.000 A 
ATOM     13  C   UNL     1       0.028  10.426  21.058  0.00  0.00    +0.000 A 
ATOM     14  C   UNL     1      -0.503  11.219  20.051  0.00  0.00    +0.000 A 
ATOM     15  F   UNL     1      -1.327  12.227  20.365  0.00  0.00    +0.000 F 
ATOM     16  C   UNL     1      -0.192  10.975  18.723  0.00  0.00    +0.000 A 
ATOM     17  C   UNL     1       0.658   9.913  18.398  0.00  0.00    +0.000 A 
ENDBRANCH   6  11
BRANCH   2  18
ATOM     18  C   UNL     1       4.393   2.326  19.471  0.00  0.00    +0.000 C 
ATOM     19  O   UNL     1       5.104   2.020  20.419  0.00  0.00    +0.000 OA
BRANCH  18  20
ATOM     20  OXT UNL     1       3.978   1.413  18.564  0.00  0.00    +0.000 OA
ATOM     21  HXT UNL     1       4.189   1.641  17.642  0.00  0.00    +0.000 HD
ENDBRANCH  18  20
ENDBRANCH   2  18
BRANCH   1  22
ATOM     22  C   UNL     1       5.228   4.033  16.920  0.00  0.00    +0.000 C 
BRANCH  22  23
ATOM     23  C   UNL     1       6.673   4.481  17.117  0.00  0.00    +0.000 C 
BRANCH  23  25
ATOM     24  O   UNL     1       7.518   6.678  16.628  0.00  0.00    +0.000 OA
ATOM     25  C   UNL     1       6.994   5.649  16.230  0.00  0.00    +0.000 C 
BRANCH  25  26
ATOM     26  O   UNL     1       6.666   5.452  14.934  0.00  0.00    +0.000 OA
ATOM     27  H   UNL     1       5.723   5.230  14.785  0.00  0.00    +0.000 HD
ENDBRANCH  25  26
ENDBRANCH  23  25
ENDBRANCH  22  23
ENDBRANCH   1  22
TORSDOF 7
ENDMDL
