MODEL 1
REMARK VINA RESULT:      -6.5      0.000      0.000
REMARK  Name = 
REMARK  3 active torsions:
REMARK  status: ('A' for Active; 'I' for Inactive)
REMARK    1  A    between atoms: C_2  and  C_3
REMARK    2  A    between atoms: C_3  and  N_4
REMARK    3  A    between atoms: N_10  and  C_11
REMARK                            x       y       z     vdW  Elec       q    Type
REMARK                         _______ _______ _______ _____ _____    ______ ____
ROOT
ATOM      1  O   UNL     1       4.622   5.622  17.755  0.00  0.00    +0.000 OA
ATOM      2  C   UNL     1       5.276   4.589  17.882  0.00  0.00    +0.000 C 
ATOM      3  N   UNL     1       4.821   3.416  18.467  0.00  0.00    +0.000 N 
ATOM      4  H   UNL     1       5.508   2.698  18.671  0.00  0.00    +0.000 HD
ENDROOT
BRANCH   3   5
ATOM      5  C   UNL     1       3.501   3.170  18.912  0.00  0.00    +0.000 A 
ATOM      6  C   UNL     1       2.419   2.953  18.060  0.00  0.00    +0.000 A 
ATOM      7  C   UNL     1       1.141   2.768  18.592  0.00  0.00    +0.000 A 
ATOM      8  C   UNL     1       0.987   2.794  19.967  0.00  0.00    +0.000 A 
ATOM      9  N   UNL     1       2.013   2.955  20.828  0.00  0.00    +0.000 NA
ATOM     10  C   UNL     1       3.241   3.128  20.280  0.00  0.00    +0.000 A 
ENDBRANCH   3   5
BRANCH   2  11
ATOM     11  C   UNL     1       6.700   4.525  17.381  0.00  0.00    +0.000 C 
BRANCH  11  12
ATOM     12  N   UNL     1       6.720   4.515  15.933  0.00  0.00    +0.000 N 
ATOM     13  C   UNL     1       5.971   3.727  15.106  0.00  0.00    +0.000 A 
ATOM     14  C   UNL     1       6.371   4.050  13.835  0.00  0.00    +0.000 A 
ATOM     15  I   UNL     1       5.701   3.222  12.134  0.00  0.00    +0.000 I 
ATOM     16  C   UNL     1       7.341   5.049  13.987  0.00  0.00    +0.000 A 
ATOM     17  N   UNL     1       7.564   5.340  15.274  0.00  0.00    +0.000 NA
ENDBRANCH  11  12
ENDBRANCH   2  11
TORSDOF 3
ENDMDL
MODEL 2
REMARK VINA RESULT:      -6.3      1.611      1.741
REMARK  Name = 
REMARK  3 active torsions:
REMARK  status: ('A' for Active; 'I' for Inactive)
REMARK    1  A    between atoms: C_2  and  C_3
REMARK    2  A    between atoms: C_3  and  N_4
REMARK    3  A    between atoms: N_10  and  C_11
REMARK                            x       y       z     vdW  Elec       q    Type
REMARK                         _______ _______ _______ _____ _____    ______ ____
ROOT
ATOM      1  O   UNL     1       6.793   5.287  19.861  0.00  0.00    +0.000 OA
ATOM      2  C   UNL     1       6.506   4.704  18.818  0.00  0.00    +0.000 C 
ATOM      3  N   UNL     1       5.327   4.011  18.583  0.00  0.00    +0.000 N 
ATOM      4  H   UNL     1       5.285   3.427  17.754  0.00  0.00    +0.000 HD
ENDROOT
BRANCH   3   5
ATOM      5  C   UNL     1       4.213   3.951  19.453  0.00  0.00    +0.000 A 
ATOM      6  C   UNL     1       3.359   5.025  19.700  0.00  0.00    +0.000 A 
ATOM      7  C   UNL     1       2.314   4.886  20.615  0.00  0.00    +0.000 A 
ATOM      8  C   UNL     1       2.147   3.666  21.248  0.00  0.00    +0.000 A 
ATOM      9  N   UNL     1       2.922   2.590  21.005  0.00  0.00    +0.000 NA
ATOM     10  C   UNL     1       3.925   2.756  20.109  0.00  0.00    +0.000 A 
ENDBRANCH   3   5
BRANCH   2  11
ATOM     11  C   UNL     1       7.472   4.703  17.657  0.00  0.00    +0.000 C 
BRANCH  11  12
ATOM     12  N   UNL     1       6.748   4.753  16.404  0.00  0.00    +0.000 N 
ATOM     13  C   UNL     1       6.877   3.899  15.346  0.00  0.00    +0.000 A 
ATOM     14  C   UNL     1       6.021   4.375  14.387  0.00  0.00    +0.000 A 
ATOM     15  I   UNL     1       5.752   3.611  12.550  0.00  0.00    +0.000 I 
ATOM     16  C   UNL     1       5.405   5.497  14.956  0.00  0.00    +0.000 A 
ATOM     17  N   UNL     1       5.847   5.738  16.195  0.00  0.00    +0.000 NA
ENDBRANCH  11  12
ENDBRANCH   2  11
TORSDOF 3
ENDMDL
MODEL 3
REMARK VINA RESULT:      -6.3      3.085      6.315
REMARK  Name = 
REMARK  3 active torsions:
REMARK  status: ('A' for Active; 'I' for Inactive)
REMARK    1  A    between atoms: C_2  and  C_3
REMARK    2  A    between atoms: C_3  and  N_4
REMARK    3  A    between atoms: N_10  and  C_11
REMARK                            x       y       z     vdW  Elec       q    Type
REMARK                         _______ _______ _______ _____ _____    ______ ____
ROOT
ATOM      1  O   UNL     1       8.141   4.247  17.100  0.00  0.00    +0.000 OA
ATOM      2  C   UNL     1       7.140   4.958  17.161  0.00  0.00    +0.000 C 
ATOM      3  N   UNL     1       6.352   5.330  16.081  0.00  0.00    +0.000 N 
ATOM      4  H   UNL     1       5.663   6.059  16.233  0.00  0.00    +0.000 HD
ENDROOT
BRANCH   3   5
ATOM      5  C   UNL     1       6.495   4.866  14.752  0.00  0.00    +0.000 A 
ATOM      6  C   UNL     1       5.681   3.894  14.174  0.00  0.00    +0.000 A 
ATOM      7  C   UNL     1       5.931   3.463  12.869  0.00  0.00    +0.000 A 
ATOM      8  C   UNL     1       6.985   4.032  12.176  0.00  0.00    +0.000 A 
ATOM      9  N   UNL     1       7.768   5.007  12.680  0.00  0.00    +0.000 NA
ATOM     10  C   UNL     1       7.498   5.405  13.948  0.00  0.00    +0.000 A 
ENDBRANCH   3   5
BRANCH   2  11
ATOM     11  C   UNL     1       6.675   5.505  18.489  0.00  0.00    +0.000 C 
BRANCH  11  12
ATOM     12  N   UNL     1       5.470   4.827  18.916  0.00  0.00    +0.000 N 
ATOM     13  C   UNL     1       4.321   5.404  19.377  0.00  0.00    +0.000 A 
ATOM     14  C   UNL     1       3.489   4.361  19.691  0.00  0.00    +0.000 A 
ATOM     15  I   UNL     1       1.646   4.506  20.474  0.00  0.00    +0.000 I 
ATOM     16  C   UNL     1       4.204   3.200  19.369  0.00  0.00    +0.000 A 
ATOM     17  N   UNL     1       5.423   3.476  18.894  0.00  0.00    +0.000 NA
ENDBRANCH  11  12
ENDBRANCH   2  11
TORSDOF 3
ENDMDL
MODEL 4
REMARK VINA RESULT:      -6.3      0.970      1.311
REMARK  Name = 
REMARK  3 active torsions:
REMARK  status: ('A' for Active; 'I' for Inactive)
REMARK    1  A    between atoms: C_2  and  C_3
REMARK    2  A    between atoms: C_3  and  N_4
REMARK    3  A    between atoms: N_10  and  C_11
REMARK                            x       y       z     vdW  Elec       q    Type
REMARK                         _______ _______ _______ _____ _____    ______ ____
ROOT
ATOM      1  O   UNL     1       5.338   5.506  18.858  0.00  0.00    +0.000 OA
ATOM      2  C   UNL     1       5.702   4.514  18.230  0.00  0.00    +0.000 C 
ATOM      3  N   UNL     1       4.954   3.359  18.050  0.00  0.00    +0.000 N 
ATOM      4  H   UNL     1       5.430   2.548  17.667  0.00  0.00    +0.000 HD
ENDROOT
BRANCH   3   5
ATOM      5  C   UNL     1       3.613   3.167  18.457  0.00  0.00    +0.000 A 
ATOM      6  C   UNL     1       3.241   2.646  19.695  0.00  0.00    +0.000 A 
ATOM      7  C   UNL     1       1.891   2.445  19.988  0.00  0.00    +0.000 A 
ATOM      8  C   UNL     1       0.950   2.786  19.032  0.00  0.00    +0.000 A 
ATOM      9  N   UNL     1       1.263   3.333  17.841  0.00  0.00    +0.000 NA
ATOM     10  C   UNL     1       2.582   3.519  17.588  0.00  0.00    +0.000 A 
ENDBRANCH   3   5
BRANCH   2  11
ATOM     11  C   UNL     1       7.062   4.485  17.575  0.00  0.00    +0.000 C 
BRANCH  11  12
ATOM     12  N   UNL     1       6.926   4.549  16.135  0.00  0.00    +0.000 N 
ATOM     13  C   UNL     1       6.196   3.712  15.341  0.00  0.00    +0.000 A 
ATOM     14  C   UNL     1       6.411   4.146  14.059  0.00  0.00    +0.000 A 
ATOM     15  I   UNL     1       5.669   3.321  12.386  0.00  0.00    +0.000 I 
ATOM     16  C   UNL     1       7.258   5.256  14.174  0.00  0.00    +0.000 A 
ATOM     17  N   UNL     1       7.582   5.510  15.447  0.00  0.00    +0.000 NA
ENDBRANCH  11  12
ENDBRANCH   2  11
TORSDOF 3
ENDMDL
MODEL 5
REMARK VINA RESULT:      -6.3      0.774      1.195
REMARK  Name = 
REMARK  3 active torsions:
REMARK  status: ('A' for Active; 'I' for Inactive)
REMARK    1  A    between atoms: C_2  and  C_3
REMARK    2  A    between atoms: C_3  and  N_4
REMARK    3  A    between atoms: N_10  and  C_11
REMARK                            x       y       z     vdW  Elec       q    Type
REMARK                         _______ _______ _______ _____ _____    ______ ____
ROOT
ATOM      1  O   UNL     1       4.393   5.632  17.355  0.00  0.00    +0.000 OA
ATOM      2  C   UNL     1       5.086   4.726  17.813  0.00  0.00    +0.000 C 
ATOM      3  N   UNL     1       4.659   3.768  18.721  0.00  0.00    +0.000 N 
ATOM      4  H   UNL     1       5.367   3.186  19.155  0.00  0.00    +0.000 HD
ENDROOT
BRANCH   3   5
ATOM      5  C   UNL     1       3.333   3.600  19.186  0.00  0.00    +0.000 A 
ATOM      6  C   UNL     1       2.824   4.217  20.328  0.00  0.00    +0.000 A 
ATOM      7  C   UNL     1       1.516   3.949  20.738  0.00  0.00    +0.000 A 
ATOM      8  C   UNL     1       0.751   3.079  19.982  0.00  0.00    +0.000 A 
ATOM      9  N   UNL     1       1.189   2.496  18.847  0.00  0.00    +0.000 NA
ATOM     10  C   UNL     1       2.461   2.779  18.474  0.00  0.00    +0.000 A 
ENDBRANCH   3   5
BRANCH   2  11
ATOM     11  C   UNL     1       6.530   4.588  17.393  0.00  0.00    +0.000 C 
BRANCH  11  12
ATOM     12  N   UNL     1       6.630   4.553  15.949  0.00  0.00    +0.000 N 
ATOM     13  C   UNL     1       5.941   3.739  15.097  0.00  0.00    +0.000 A 
ATOM     14  C   UNL     1       6.404   4.046  13.844  0.00  0.00    +0.000 A 
ATOM     15  I   UNL     1       5.842   3.177  12.124  0.00  0.00    +0.000 I 
ATOM     16  C   UNL     1       7.348   5.064  14.031  0.00  0.00    +0.000 A 
ATOM     17  N   UNL     1       7.495   5.382  15.322  0.00  0.00    +0.000 NA
ENDBRANCH  11  12
ENDBRANCH   2  11
TORSDOF 3
ENDMDL
MODEL 6
REMARK VINA RESULT:      -6.2      3.408      6.286
REMARK  Name = 
REMARK  3 active torsions:
REMARK  status: ('A' for Active; 'I' for Inactive)
REMARK    1  A    between atoms: C_2  and  C_3
REMARK    2  A    between atoms: C_3  and  N_4
REMARK    3  A    between atoms: N_10  and  C_11
REMARK                            x       y       z     vdW  Elec       q    Type
REMARK                         _______ _______ _______ _____ _____    ______ ____
ROOT
ATOM      1  O   UNL     1       7.938   4.300  16.917  0.00  0.00    +0.000 OA
ATOM      2  C   UNL     1       7.178   5.258  16.795  0.00  0.00    +0.000 C 
ATOM      3  N   UNL     1       6.586   5.668  15.609  0.00  0.00    +0.000 N 
ATOM      4  H   UNL     1       6.124   6.572  15.604  0.00  0.00    +0.000 HD
ENDROOT
BRANCH   3   5
ATOM      5  C   UNL     1       6.662   4.994  14.368  0.00  0.00    +0.000 A 
ATOM      6  C   UNL     1       7.630   5.252  13.399  0.00  0.00    +0.000 A 
ATOM      7  C   UNL     1       7.595   4.570  12.181  0.00  0.00    +0.000 A 
ATOM      8  C   UNL     1       6.594   3.636  11.975  0.00  0.00    +0.000 A 
ATOM      9  N   UNL     1       5.666   3.324  12.902  0.00  0.00    +0.000 NA
ATOM     10  C   UNL     1       5.730   4.001  14.075  0.00  0.00    +0.000 A 
ENDBRANCH   3   5
BRANCH   2  11
ATOM     11  C   UNL     1       6.818   6.101  17.996  0.00  0.00    +0.000 C 
BRANCH  11  12
ATOM     12  N   UNL     1       5.409   5.961  18.300  0.00  0.00    +0.000 N 
ATOM     13  C   UNL     1       4.859   5.301  19.362  0.00  0.00    +0.000 A 
ATOM     14  C   UNL     1       3.503   5.411  19.197  0.00  0.00    +0.000 A 
ATOM     15  I   UNL     1       2.094   4.617  20.386  0.00  0.00    +0.000 I 
ATOM     16  C   UNL     1       3.326   6.166  18.030  0.00  0.00    +0.000 A 
ATOM     17  N   UNL     1       4.492   6.507  17.471  0.00  0.00    +0.000 NA
ENDBRANCH  11  12
ENDBRANCH   2  11
TORSDOF 3
ENDMDL
MODEL 7
REMARK VINA RESULT:      -6.1      1.297      1.326
REMARK  Name = 
REMARK  3 active torsions:
REMARK  status: ('A' for Active; 'I' for Inactive)
REMARK    1  A    between atoms: C_2  and  C_3
REMARK    2  A    between atoms: C_3  and  N_4
REMARK    3  A    between atoms: N_10  and  C_11
REMARK                            x       y       z     vdW  Elec       q    Type
REMARK                         _______ _______ _______ _____ _____    ______ ____
ROOT
ATOM      1  O   UNL     1       5.358   4.078  18.050  0.00  0.00    +0.000 OA
ATOM      2  C   UNL     1       4.693   5.044  17.683  0.00  0.00    +0.000 C 
ATOM      3  N   UNL     1       3.369   5.284  18.025  0.00  0.00    +0.000 N 
ATOM      4  H   UNL     1       2.881   6.015  17.519  0.00  0.00    +0.000 HD
ENDROOT
BRANCH   3   5
ATOM      5  C   UNL     1       2.598   4.527  18.938  0.00  0.00    +0.000 A 
ATOM      6  C   UNL     1       1.670   3.558  18.558  0.00  0.00    +0.000 A 
ATOM      7  C   UNL     1       0.918   2.897  19.531  0.00  0.00    +0.000 A 
ATOM      8  C   UNL     1       1.128   3.218  20.861  0.00  0.00    +0.000 A 
ATOM      9  N   UNL     1       2.047   4.115  21.274  0.00  0.00    +0.000 NA
ATOM     10  C   UNL     1       2.763   4.736  20.306  0.00  0.00    +0.000 A 
ENDBRANCH   3   5
BRANCH   2  11
ATOM     11  C   UNL     1       5.305   6.093  16.786  0.00  0.00    +0.000 C 
BRANCH  11  12
ATOM     12  N   UNL     1       5.901   5.469  15.623  0.00  0.00    +0.000 N 
ATOM     13  C   UNL     1       5.266   4.710  14.681  0.00  0.00    +0.000 A 
ATOM     14  C   UNL     1       6.248   4.313  13.811  0.00  0.00    +0.000 A 
ATOM     15  I   UNL     1       6.006   3.126  12.210  0.00  0.00    +0.000 I 
ATOM     16  C   UNL     1       7.431   4.892  14.287  0.00  0.00    +0.000 A 
ATOM     17  N   UNL     1       7.228   5.603  15.402  0.00  0.00    +0.000 NA
ENDBRANCH  11  12
ENDBRANCH   2  11
TORSDOF 3
ENDMDL
MODEL 8
REMARK VINA RESULT:      -6.1      1.312      1.605
REMARK  Name = 
REMARK  3 active torsions:
REMARK  status: ('A' for Active; 'I' for Inactive)
REMARK    1  A    between atoms: C_2  and  C_3
REMARK    2  A    between atoms: C_3  and  N_4
REMARK    3  A    between atoms: N_10  and  C_11
REMARK                            x       y       z     vdW  Elec       q    Type
REMARK                         _______ _______ _______ _____ _____    ______ ____
ROOT
ATOM      1  O   UNL     1       6.300   5.158  19.815  0.00  0.00    +0.000 OA
ATOM      2  C   UNL     1       6.176   4.589  18.733  0.00  0.00    +0.000 C 
ATOM      3  N   UNL     1       5.087   3.819  18.351  0.00  0.00    +0.000 N 
ATOM      4  H   UNL     1       5.180   3.260  17.509  0.00  0.00    +0.000 HD
ENDROOT
BRANCH   3   5
ATOM      5  C   UNL     1       3.891   3.650  19.088  0.00  0.00    +0.000 A 
ATOM      6  C   UNL     1       3.758   2.781  20.170  0.00  0.00    +0.000 A 
ATOM      7  C   UNL     1       2.522   2.644  20.805  0.00  0.00    +0.000 A 
ATOM      8  C   UNL     1       1.456   3.395  20.343  0.00  0.00    +0.000 A 
ATOM      9  N   UNL     1       1.551   4.281  19.331  0.00  0.00    +0.000 NA
ATOM     10  C   UNL     1       2.765   4.393  18.738  0.00  0.00    +0.000 A 
ENDBRANCH   3   5
BRANCH   2  11
ATOM     11  C   UNL     1       7.261   4.695  17.689  0.00  0.00    +0.000 C 
BRANCH  11  12
ATOM     12  N   UNL     1       6.677   4.755  16.365  0.00  0.00    +0.000 N 
ATOM     13  C   UNL     1       6.813   3.834  15.365  0.00  0.00    +0.000 A 
ATOM     14  C   UNL     1       6.118   4.347  14.301  0.00  0.00    +0.000 A 
ATOM     15  I   UNL     1       5.950   3.516  12.481  0.00  0.00    +0.000 I 
ATOM     16  C   UNL     1       5.581   5.560  14.751  0.00  0.00    +0.000 A 
ATOM     17  N   UNL     1       5.921   5.820  16.018  0.00  0.00    +0.000 NA
ENDBRANCH  11  12
ENDBRANCH   2  11
TORSDOF 3
ENDMDL
MODEL 9
REMARK VINA RESULT:      -6.0      1.622      1.984
REMARK  Name = 
REMARK  3 active torsions:
REMARK  status: ('A' for Active; 'I' for Inactive)
REMARK    1  A    between atoms: C_2  and  C_3
REMARK    2  A    between atoms: C_3  and  N_4
REMARK    3  A    between atoms: N_10  and  C_11
REMARK                            x       y       z     vdW  Elec       q    Type
REMARK                         _______ _______ _______ _____ _____    ______ ____
ROOT
ATOM      1  O   UNL     1       3.185   7.216  18.018  0.00  0.00    +0.000 OA
ATOM      2  C   UNL     1       4.086   6.396  17.861  0.00  0.00    +0.000 C 
ATOM      3  N   UNL     1       4.027   5.059  18.227  0.00  0.00    +0.000 N 
ATOM      4  H   UNL     1       4.893   4.530  18.208  0.00  0.00    +0.000 HD
ENDROOT
BRANCH   3   5
ATOM      5  C   UNL     1       2.891   4.387  18.737  0.00  0.00    +0.000 A 
ATOM      6  C   UNL     1       2.464   4.473  20.061  0.00  0.00    +0.000 A 
ATOM      7  C   UNL     1       1.358   3.732  20.484  0.00  0.00    +0.000 A 
ATOM      8  C   UNL     1       0.704   2.935  19.561  0.00  0.00    +0.000 A 
ATOM      9  N   UNL     1       1.056   2.859  18.261  0.00  0.00    +0.000 NA
ATOM     10  C   UNL     1       2.131   3.592  17.881  0.00  0.00    +0.000 A 
ENDBRANCH   3   5
BRANCH   2  11
ATOM     11  C   UNL     1       5.390   6.811  17.222  0.00  0.00    +0.000 C 
BRANCH  11  12
ATOM     12  N   UNL     1       5.857   5.778  16.322  0.00  0.00    +0.000 N 
ATOM     13  C   UNL     1       5.545   5.637  15.000  0.00  0.00    +0.000 A 
ATOM     14  C   UNL     1       6.190   4.497  14.592  0.00  0.00    +0.000 A 
ATOM     15  I   UNL     1       6.115   3.682  12.760  0.00  0.00    +0.000 I 
ATOM     16  C   UNL     1       6.880   4.032  15.719  0.00  0.00    +0.000 A 
ATOM     17  N   UNL     1       6.680   4.811  16.788  0.00  0.00    +0.000 NA
ENDBRANCH  11  12
ENDBRANCH   2  11
TORSDOF 3
ENDMDL
