MODEL 1
REMARK VINA RESULT:      -8.1      0.000      0.000
REMARK  Name = 
REMARK  7 active torsions:
REMARK  status: ('A' for Active; 'I' for Inactive)
REMARK    1  A    between atoms: C_1  and  C_2
REMARK    2  A    between atoms: C_2  and  C_3
REMARK    3  A    between atoms: C_2  and  C_4
REMARK    4  A    between atoms: C_2  and  N_5
REMARK    5  A    between atoms: C_6  and  C_8
REMARK    6  A    between atoms: C_8  and  C_10
REMARK    7  A    between atoms: C_11  and  C_12
REMARK                            x       y       z     vdW  Elec       q    Type
REMARK                         _______ _______ _______ _____ _____    ______ ____
ROOT
ATOM      1  C   UNL     1       5.627   3.625  16.318  0.00  0.00    +0.000 C 
ATOM      2  C   UNL     1       5.064   3.969  17.487  0.00  0.00    +0.000 C 
ENDROOT
BRANCH   2   3
ATOM      3  C   UNL     1       3.929   3.302  18.056  0.00  0.00    +0.000 A 
ATOM      4  C   UNL     1       3.561   1.995  17.801  0.00  0.00    +0.000 A 
ATOM      5  N   UNL     1       2.447   1.710  18.543  0.00  0.00    +0.000 N 
ATOM      6  C   UNL     1       2.064   2.813  19.268  0.00  0.00    +0.000 A 
ATOM      7  C   UNL     1       0.986   2.973  20.146  0.00  0.00    +0.000 A 
ATOM      8  C   UNL     1       0.821   4.222  20.747  0.00  0.00    +0.000 A 
ATOM      9  C   UNL     1       1.706   5.265  20.483  0.00  0.00    +0.000 A 
ATOM     10  C   UNL     1       2.786   5.085  19.609  0.00  0.00    +0.000 A 
ATOM     11  C   UNL     1       2.975   3.834  18.982  0.00  0.00    +0.000 A 
ATOM     12  H   UNL     1       1.968   0.821  18.556  0.00  0.00    +0.000 HD
ENDBRANCH   2   3
BRANCH   1  13
ATOM     13  C   UNL     1       6.816   4.301  15.733  0.00  0.00    +0.000 C 
ATOM     14  O   UNL     1       7.749   4.749  16.380  0.00  0.00    +0.000 OA
BRANCH  13  16
ATOM     15  N   UNL     1       6.200   3.342  13.544  0.00  0.00    +0.000 N 
ATOM     16  C   UNL     1       6.804   4.400  14.195  0.00  0.00    +0.000 C 
ATOM     17  O   UNL     1       7.306   5.370  13.645  0.00  0.00    +0.000 OA
ATOM     18  H   UNL     1       5.828   2.602  14.134  0.00  0.00    +0.000 HD
BRANCH  15  20
ATOM     19  C   UNL     1       7.113   4.173  11.396  0.00  0.00    +0.000 C 
ATOM     20  C   UNL     1       6.089   3.251  12.080  0.00  0.00    +0.000 C 
ATOM     21  C   UNL     1       4.667   3.616  11.618  0.00  0.00    +0.000 C 
ATOM     22  C   UNL     1       6.382   1.805  11.644  0.00  0.00    +0.000 C 
ENDBRANCH  15  20
ENDBRANCH  13  16
ENDBRANCH   1  13
TORSDOF 4
ENDMDL
MODEL 2
REMARK VINA RESULT:      -8.0      1.152      1.710
REMARK  Name = 
REMARK  7 active torsions:
REMARK  status: ('A' for Active; 'I' for Inactive)
REMARK    1  A    between atoms: C_1  and  C_2
REMARK    2  A    between atoms: C_2  and  C_3
REMARK    3  A    between atoms: C_2  and  C_4
REMARK    4  A    between atoms: C_2  and  N_5
REMARK    5  A    between atoms: C_6  and  C_8
REMARK    6  A    between atoms: C_8  and  C_10
REMARK    7  A    between atoms: C_11  and  C_12
REMARK                            x       y       z     vdW  Elec       q    Type
REMARK                         _______ _______ _______ _____ _____    ______ ____
ROOT
ATOM      1  C   UNL     1       5.336   4.503  16.421  0.00  0.00    +0.000 C 
ATOM      2  C   UNL     1       4.941   3.934  17.570  0.00  0.00    +0.000 C 
ENDROOT
BRANCH   2   3
ATOM      3  C   UNL     1       3.597   3.989  18.070  0.00  0.00    +0.000 A 
ATOM      4  C   UNL     1       2.525   4.565  17.416  0.00  0.00    +0.000 A 
ATOM      5  N   UNL     1       1.410   4.398  18.191  0.00  0.00    +0.000 N 
ATOM      6  C   UNL     1       1.733   3.739  19.353  0.00  0.00    +0.000 A 
ATOM      7  C   UNL     1       0.913   3.368  20.425  0.00  0.00    +0.000 A 
ATOM      8  C   UNL     1       1.512   2.708  21.499  0.00  0.00    +0.000 A 
ATOM      9  C   UNL     1       2.876   2.425  21.494  0.00  0.00    +0.000 A 
ATOM     10  C   UNL     1       3.680   2.795  20.408  0.00  0.00    +0.000 A 
ATOM     11  C   UNL     1       3.103   3.468  19.309  0.00  0.00    +0.000 A 
ATOM     12  H   UNL     1       0.481   4.717  17.951  0.00  0.00    +0.000 HD
ENDBRANCH   2   3
BRANCH   1  13
ATOM     13  C   UNL     1       6.724   4.433  15.888  0.00  0.00    +0.000 C 
ATOM     14  O   UNL     1       7.728   4.333  16.575  0.00  0.00    +0.000 OA
BRANCH  13  16
ATOM     15  N   UNL     1       6.190   3.454  13.686  0.00  0.00    +0.000 N 
ATOM     16  C   UNL     1       6.823   4.487  14.352  0.00  0.00    +0.000 C 
ATOM     17  O   UNL     1       7.428   5.404  13.814  0.00  0.00    +0.000 OA
ATOM     18  H   UNL     1       5.728   2.760  14.267  0.00  0.00    +0.000 HD
BRANCH  15  20
ATOM     19  C   UNL     1       6.527   1.895  11.791  0.00  0.00    +0.000 C 
ATOM     20  C   UNL     1       6.172   3.329  12.220  0.00  0.00    +0.000 C 
ATOM     21  C   UNL     1       7.153   4.325  11.577  0.00  0.00    +0.000 C 
ATOM     22  C   UNL     1       4.756   3.645  11.708  0.00  0.00    +0.000 C 
ENDBRANCH  15  20
ENDBRANCH  13  16
ENDBRANCH   1  13
TORSDOF 4
ENDMDL
MODEL 3
REMARK VINA RESULT:      -8.0      0.763      1.237
REMARK  Name = 
REMARK  7 active torsions:
REMARK  status: ('A' for Active; 'I' for Inactive)
REMARK    1  A    between atoms: C_1  and  C_2
REMARK    2  A    between atoms: C_2  and  C_3
REMARK    3  A    between atoms: C_2  and  C_4
REMARK    4  A    between atoms: C_2  and  N_5
REMARK    5  A    between atoms: C_6  and  C_8
REMARK    6  A    between atoms: C_8  and  C_10
REMARK    7  A    between atoms: C_11  and  C_12
REMARK                            x       y       z     vdW  Elec       q    Type
REMARK                         _______ _______ _______ _____ _____    ______ ____
ROOT
ATOM      1  C   UNL     1       5.649   4.005  17.109  0.00  0.00    +0.000 C 
ATOM      2  C   UNL     1       4.460   3.563  16.670  0.00  0.00    +0.000 C 
ENDROOT
BRANCH   2   3
ATOM      3  C   UNL     1       3.354   3.252  17.530  0.00  0.00    +0.000 A 
ATOM      4  C   UNL     1       2.647   2.066  17.523  0.00  0.00    +0.000 A 
ATOM      5  N   UNL     1       1.689   2.132  18.498  0.00  0.00    +0.000 N 
ATOM      6  C   UNL     1       1.741   3.349  19.133  0.00  0.00    +0.000 A 
ATOM      7  C   UNL     1       0.949   3.846  20.176  0.00  0.00    +0.000 A 
ATOM      8  C   UNL     1       1.214   5.138  20.630  0.00  0.00    +0.000 A 
ATOM      9  C   UNL     1       2.237   5.898  20.067  0.00  0.00    +0.000 A 
ATOM     10  C   UNL     1       3.025   5.382  19.031  0.00  0.00    +0.000 A 
ATOM     11  C   UNL     1       2.777   4.080  18.546  0.00  0.00    +0.000 A 
ATOM     12  H   UNL     1       1.031   1.397  18.719  0.00  0.00    +0.000 HD
ENDBRANCH   2   3
BRANCH   1  13
ATOM     13  C   UNL     1       6.792   4.348  16.220  0.00  0.00    +0.000 C 
ATOM     14  O   UNL     1       7.952   4.446  16.588  0.00  0.00    +0.000 OA
BRANCH  13  16
ATOM     15  N   UNL     1       6.596   3.485  13.917  0.00  0.00    +0.000 N 
ATOM     16  C   UNL     1       6.410   4.575  14.745  0.00  0.00    +0.000 C 
ATOM     17  O   UNL     1       5.976   5.663  14.390  0.00  0.00    +0.000 OA
ATOM     18  H   UNL     1       6.968   2.646  14.353  0.00  0.00    +0.000 HD
BRANCH  15  20
ATOM     19  C   UNL     1       6.564   2.128  11.844  0.00  0.00    +0.000 C 
ATOM     20  C   UNL     1       6.292   3.503  12.477  0.00  0.00    +0.000 C 
ATOM     21  C   UNL     1       7.121   4.582  11.759  0.00  0.00    +0.000 C 
ATOM     22  C   UNL     1       4.801   3.831  12.284  0.00  0.00    +0.000 C 
ENDBRANCH  15  20
ENDBRANCH  13  16
ENDBRANCH   1  13
TORSDOF 4
ENDMDL
MODEL 4
REMARK VINA RESULT:      -7.8      1.267      1.932
REMARK  Name = 
REMARK  7 active torsions:
REMARK  status: ('A' for Active; 'I' for Inactive)
REMARK    1  A    between atoms: C_1  and  C_2
REMARK    2  A    between atoms: C_2  and  C_3
REMARK    3  A    between atoms: C_2  and  C_4
REMARK    4  A    between atoms: C_2  and  N_5
REMARK    5  A    between atoms: C_6  and  C_8
REMARK    6  A    between atoms: C_8  and  C_10
REMARK    7  A    between atoms: C_11  and  C_12
REMARK                            x       y       z     vdW  Elec       q    Type
REMARK                         _______ _______ _______ _____ _____    ______ ____
ROOT
ATOM      1  C   UNL     1       5.554   4.556  16.814  0.00  0.00    +0.000 C 
ATOM      2  C   UNL     1       5.493   4.716  18.145  0.00  0.00    +0.000 C 
ENDROOT
BRANCH   2   3
ATOM      3  C   UNL     1       4.270   4.877  18.877  0.00  0.00    +0.000 A 
ATOM      4  C   UNL     1       3.924   5.989  19.621  0.00  0.00    +0.000 A 
ATOM      5  N   UNL     1       2.679   5.783  20.147  0.00  0.00    +0.000 N 
ATOM      6  C   UNL     1       2.206   4.546  19.779  0.00  0.00    +0.000 A 
ATOM      7  C   UNL     1       0.992   3.925  20.097  0.00  0.00    +0.000 A 
ATOM      8  C   UNL     1       0.771   2.642  19.591  0.00  0.00    +0.000 A 
ATOM      9  C   UNL     1       1.725   2.013  18.796  0.00  0.00    +0.000 A 
ATOM     10  C   UNL     1       2.930   2.653  18.480  0.00  0.00    +0.000 A 
ATOM     11  C   UNL     1       3.185   3.948  18.981  0.00  0.00    +0.000 A 
ATOM     12  H   UNL     1       2.176   6.439  20.728  0.00  0.00    +0.000 HD
ENDBRANCH   2   3
BRANCH   1  13
ATOM     13  C   UNL     1       6.818   4.369  16.051  0.00  0.00    +0.000 C 
ATOM     14  O   UNL     1       7.895   4.086  16.551  0.00  0.00    +0.000 OA
BRANCH  13  16
ATOM     15  N   UNL     1       6.386   3.403  13.822  0.00  0.00    +0.000 N 
ATOM     16  C   UNL     1       6.680   4.554  14.528  0.00  0.00    +0.000 C 
ATOM     17  O   UNL     1       6.827   5.664  14.035  0.00  0.00    +0.000 OA
ATOM     18  H   UNL     1       6.295   2.550  14.367  0.00  0.00    +0.000 HD
BRANCH  15  20
ATOM     19  C   UNL     1       7.182   4.357  11.678  0.00  0.00    +0.000 C 
ATOM     20  C   UNL     1       6.217   3.373  12.361  0.00  0.00    +0.000 C 
ATOM     21  C   UNL     1       4.766   3.712  11.974  0.00  0.00    +0.000 C 
ATOM     22  C   UNL     1       6.536   1.958  11.848  0.00  0.00    +0.000 C 
ENDBRANCH  15  20
ENDBRANCH  13  16
ENDBRANCH   1  13
TORSDOF 4
ENDMDL
MODEL 5
REMARK VINA RESULT:      -7.7      1.400      1.804
REMARK  Name = 
REMARK  7 active torsions:
REMARK  status: ('A' for Active; 'I' for Inactive)
REMARK    1  A    between atoms: C_1  and  C_2
REMARK    2  A    between atoms: C_2  and  C_3
REMARK    3  A    between atoms: C_2  and  C_4
REMARK    4  A    between atoms: C_2  and  N_5
REMARK    5  A    between atoms: C_6  and  C_8
REMARK    6  A    between atoms: C_8  and  C_10
REMARK    7  A    between atoms: C_11  and  C_12
REMARK                            x       y       z     vdW  Elec       q    Type
REMARK                         _______ _______ _______ _____ _____    ______ ____
ROOT
ATOM      1  C   UNL     1       5.581   4.617  16.600  0.00  0.00    +0.000 C 
ATOM      2  C   UNL     1       5.354   4.876  17.897  0.00  0.00    +0.000 C 
ENDROOT
BRANCH   2   3
ATOM      3  C   UNL     1       4.047   5.069  18.457  0.00  0.00    +0.000 A 
ATOM      4  C   UNL     1       3.187   6.102  18.140  0.00  0.00    +0.000 A 
ATOM      5  N   UNL     1       2.033   5.934  18.855  0.00  0.00    +0.000 N 
ATOM      6  C   UNL     1       2.126   4.819  19.653  0.00  0.00    +0.000 A 
ATOM      7  C   UNL     1       1.193   4.281  20.548  0.00  0.00    +0.000 A 
ATOM      8  C   UNL     1       1.558   3.130  21.248  0.00  0.00    +0.000 A 
ATOM      9  C   UNL     1       2.804   2.539  21.054  0.00  0.00    +0.000 A 
ATOM     10  C   UNL     1       3.722   3.085  20.148  0.00  0.00    +0.000 A 
ATOM     11  C   UNL     1       3.384   4.252  19.429  0.00  0.00    +0.000 A 
ATOM     12  H   UNL     1       1.227   6.542  18.812  0.00  0.00    +0.000 HD
ENDBRANCH   2   3
BRANCH   1  13
ATOM     13  C   UNL     1       6.932   4.396  16.016  0.00  0.00    +0.000 C 
ATOM     14  O   UNL     1       7.934   4.135  16.663  0.00  0.00    +0.000 OA
BRANCH  13  16
ATOM     15  N   UNL     1       6.310   3.535  13.789  0.00  0.00    +0.000 N 
ATOM     16  C   UNL     1       6.994   4.515  14.481  0.00  0.00    +0.000 C 
ATOM     17  O   UNL     1       7.616   5.435  13.968  0.00  0.00    +0.000 OA
ATOM     18  H   UNL     1       5.839   2.831  14.351  0.00  0.00    +0.000 HD
BRANCH  15  20
ATOM     19  C   UNL     1       7.170   4.536  11.692  0.00  0.00    +0.000 C 
ATOM     20  C   UNL     1       6.250   3.475  12.320  0.00  0.00    +0.000 C 
ATOM     21  C   UNL     1       4.807   3.677  11.825  0.00  0.00    +0.000 C 
ATOM     22  C   UNL     1       6.732   2.090  11.855  0.00  0.00    +0.000 C 
ENDBRANCH  15  20
ENDBRANCH  13  16
ENDBRANCH   1  13
TORSDOF 4
ENDMDL
MODEL 6
REMARK VINA RESULT:      -7.7      1.130      1.668
REMARK  Name = 
REMARK  7 active torsions:
REMARK  status: ('A' for Active; 'I' for Inactive)
REMARK    1  A    between atoms: C_1  and  C_2
REMARK    2  A    between atoms: C_2  and  C_3
REMARK    3  A    between atoms: C_2  and  C_4
REMARK    4  A    between atoms: C_2  and  N_5
REMARK    5  A    between atoms: C_6  and  C_8
REMARK    6  A    between atoms: C_8  and  C_10
REMARK    7  A    between atoms: C_11  and  C_12
REMARK                            x       y       z     vdW  Elec       q    Type
REMARK                         _______ _______ _______ _____ _____    ______ ____
ROOT
ATOM      1  C   UNL     1       5.084   4.100  16.315  0.00  0.00    +0.000 C 
ATOM      2  C   UNL     1       4.740   4.170  17.610  0.00  0.00    +0.000 C 
ENDROOT
BRANCH   2   3
ATOM      3  C   UNL     1       3.398   4.010  18.092  0.00  0.00    +0.000 A 
ATOM      4  C   UNL     1       2.254   4.352  17.397  0.00  0.00    +0.000 A 
ATOM      5  N   UNL     1       1.171   4.028  18.167  0.00  0.00    +0.000 N 
ATOM      6  C   UNL     1       1.582   3.497  19.366  0.00  0.00    +0.000 A 
ATOM      7  C   UNL     1       0.820   3.041  20.448  0.00  0.00    +0.000 A 
ATOM      8  C   UNL     1       1.505   2.554  21.562  0.00  0.00    +0.000 A 
ATOM      9  C   UNL     1       2.897   2.519  21.586  0.00  0.00    +0.000 A 
ATOM     10  C   UNL     1       3.645   2.970  20.491  0.00  0.00    +0.000 A 
ATOM     11  C   UNL     1       2.980   3.474  19.352  0.00  0.00    +0.000 A 
ATOM     12  H   UNL     1       0.206   4.164  17.901  0.00  0.00    +0.000 HD
ENDBRANCH   2   3
BRANCH   1  13
ATOM     13  C   UNL     1       6.477   4.245  15.811  0.00  0.00    +0.000 C 
ATOM     14  O   UNL     1       7.471   4.281  16.519  0.00  0.00    +0.000 OA
BRANCH  13  16
ATOM     15  N   UNL     1       6.062   3.280  13.578  0.00  0.00    +0.000 N 
ATOM     16  C   UNL     1       6.596   4.344  14.279  0.00  0.00    +0.000 C 
ATOM     17  O   UNL     1       7.133   5.321  13.773  0.00  0.00    +0.000 OA
ATOM     18  H   UNL     1       5.649   2.536  14.135  0.00  0.00    +0.000 HD
BRANCH  15  20
ATOM     19  C   UNL     1       4.759   3.709  11.515  0.00  0.00    +0.000 C 
ATOM     20  C   UNL     1       6.079   3.189  12.110  0.00  0.00    +0.000 C 
ATOM     21  C   UNL     1       6.319   1.738  11.658  0.00  0.00    +0.000 C 
ATOM     22  C   UNL     1       7.225   4.061  11.567  0.00  0.00    +0.000 C 
ENDBRANCH  15  20
ENDBRANCH  13  16
ENDBRANCH   1  13
TORSDOF 4
ENDMDL
MODEL 7
REMARK VINA RESULT:      -7.7      1.366      2.249
REMARK  Name = 
REMARK  7 active torsions:
REMARK  status: ('A' for Active; 'I' for Inactive)
REMARK    1  A    between atoms: C_1  and  C_2
REMARK    2  A    between atoms: C_2  and  C_3
REMARK    3  A    between atoms: C_2  and  C_4
REMARK    4  A    between atoms: C_2  and  N_5
REMARK    5  A    between atoms: C_6  and  C_8
REMARK    6  A    between atoms: C_8  and  C_10
REMARK    7  A    between atoms: C_11  and  C_12
REMARK                            x       y       z     vdW  Elec       q    Type
REMARK                         _______ _______ _______ _____ _____    ______ ____
ROOT
ATOM      1  C   UNL     1       5.589   4.344  17.102  0.00  0.00    +0.000 C 
ATOM      2  C   UNL     1       4.869   5.414  17.475  0.00  0.00    +0.000 C 
ENDROOT
BRANCH   2   3
ATOM      3  C   UNL     1       3.744   5.351  18.363  0.00  0.00    +0.000 A 
ATOM      4  C   UNL     1       3.328   6.369  19.199  0.00  0.00    +0.000 A 
ATOM      5  N   UNL     1       2.212   5.947  19.868  0.00  0.00    +0.000 N 
ATOM      6  C   UNL     1       1.897   4.661  19.502  0.00  0.00    +0.000 A 
ATOM      7  C   UNL     1       0.850   3.840  19.938  0.00  0.00    +0.000 A 
ATOM      8  C   UNL     1       0.769   2.554  19.402  0.00  0.00    +0.000 A 
ATOM      9  C   UNL     1       1.697   2.112  18.461  0.00  0.00    +0.000 A 
ATOM     10  C   UNL     1       2.733   2.950  18.029  0.00  0.00    +0.000 A 
ATOM     11  C   UNL     1       2.843   4.254  18.557  0.00  0.00    +0.000 A 
ATOM     12  H   UNL     1       1.694   6.496  20.540  0.00  0.00    +0.000 HD
ENDBRANCH   2   3
BRANCH   1  13
ATOM     13  C   UNL     1       6.769   4.406  16.197  0.00  0.00    +0.000 C 
ATOM     14  O   UNL     1       7.929   4.302  16.561  0.00  0.00    +0.000 OA
BRANCH  13  16
ATOM     15  N   UNL     1       6.551   3.485  13.918  0.00  0.00    +0.000 N 
ATOM     16  C   UNL     1       6.425   4.611  14.710  0.00  0.00    +0.000 C 
ATOM     17  O   UNL     1       6.067   5.712  14.315  0.00  0.00    +0.000 OA
ATOM     18  H   UNL     1       6.862   2.638  14.386  0.00  0.00    +0.000 HD
BRANCH  15  20
ATOM     19  C   UNL     1       6.536   2.087  11.873  0.00  0.00    +0.000 C 
ATOM     20  C   UNL     1       6.270   3.477  12.474  0.00  0.00    +0.000 C 
ATOM     21  C   UNL     1       7.124   4.532  11.748  0.00  0.00    +0.000 C 
ATOM     22  C   UNL     1       4.787   3.819  12.250  0.00  0.00    +0.000 C 
ENDBRANCH  15  20
ENDBRANCH  13  16
ENDBRANCH   1  13
TORSDOF 4
ENDMDL
MODEL 8
REMARK VINA RESULT:      -7.6      7.032      9.239
REMARK  Name = 
REMARK  7 active torsions:
REMARK  status: ('A' for Active; 'I' for Inactive)
REMARK    1  A    between atoms: C_1  and  C_2
REMARK    2  A    between atoms: C_2  and  C_3
REMARK    3  A    between atoms: C_2  and  C_4
REMARK    4  A    between atoms: C_2  and  N_5
REMARK    5  A    between atoms: C_6  and  C_8
REMARK    6  A    between atoms: C_8  and  C_10
REMARK    7  A    between atoms: C_11  and  C_12
REMARK                            x       y       z     vdW  Elec       q    Type
REMARK                         _______ _______ _______ _____ _____    ______ ____
ROOT
ATOM      1  C   UNL     1       8.001   8.793  17.832  0.00  0.00    +0.000 C 
ATOM      2  C   UNL     1       8.835   9.591  18.516  0.00  0.00    +0.000 C 
ENDROOT
BRANCH   2   3
ATOM      3  C   UNL     1       9.060  10.973  18.201  0.00  0.00    +0.000 A 
ATOM      4  C   UNL     1       8.188  11.784  17.501  0.00  0.00    +0.000 A 
ATOM      5  N   UNL     1       8.736  13.035  17.423  0.00  0.00    +0.000 N 
ATOM      6  C   UNL     1       9.962  13.057  18.043  0.00  0.00    +0.000 A 
ATOM      7  C   UNL     1      10.867  14.115  18.193  0.00  0.00    +0.000 A 
ATOM      8  C   UNL     1      12.061  13.853  18.866  0.00  0.00    +0.000 A 
ATOM      9  C   UNL     1      12.333  12.585  19.373  0.00  0.00    +0.000 A 
ATOM     10  C   UNL     1      11.412  11.540  19.222  0.00  0.00    +0.000 A 
ATOM     11  C   UNL     1      10.198  11.773  18.541  0.00  0.00    +0.000 A 
ATOM     12  H   UNL     1       8.307  13.831  16.971  0.00  0.00    +0.000 HD
ENDBRANCH   2   3
BRANCH   1  13
ATOM     13  C   UNL     1       7.748   7.365  18.166  0.00  0.00    +0.000 C 
ATOM     14  O   UNL     1       8.407   6.710  18.959  0.00  0.00    +0.000 OA
BRANCH  13  16
ATOM     15  N   UNL     1       5.931   5.698  18.094  0.00  0.00    +0.000 N 
ATOM     16  C   UNL     1       6.551   6.737  17.428  0.00  0.00    +0.000 C 
ATOM     17  O   UNL     1       6.216   7.171  16.334  0.00  0.00    +0.000 OA
ATOM     18  H   UNL     1       6.322   5.444  18.998  0.00  0.00    +0.000 HD
BRANCH  15  20
ATOM     19  C   UNL     1       5.050   4.486  16.121  0.00  0.00    +0.000 C 
ATOM     20  C   UNL     1       4.772   4.969  17.554  0.00  0.00    +0.000 C 
ATOM     21  C   UNL     1       3.515   5.857  17.572  0.00  0.00    +0.000 C 
ATOM     22  C   UNL     1       4.504   3.733  18.432  0.00  0.00    +0.000 C 
ENDBRANCH  15  20
ENDBRANCH  13  16
ENDBRANCH   1  13
TORSDOF 4
ENDMDL
MODEL 9
REMARK VINA RESULT:      -7.6      4.338      6.349
REMARK  Name = 
REMARK  7 active torsions:
REMARK  status: ('A' for Active; 'I' for Inactive)
REMARK    1  A    between atoms: C_1  and  C_2
REMARK    2  A    between atoms: C_2  and  C_3
REMARK    3  A    between atoms: C_2  and  C_4
REMARK    4  A    between atoms: C_2  and  N_5
REMARK    5  A    between atoms: C_6  and  C_8
REMARK    6  A    between atoms: C_8  and  C_10
REMARK    7  A    between atoms: C_11  and  C_12
REMARK                            x       y       z     vdW  Elec       q    Type
REMARK                         _______ _______ _______ _____ _____    ______ ____
ROOT
ATOM      1  C   UNL     1       3.021   6.317  19.276  0.00  0.00    +0.000 C 
ATOM      2  C   UNL     1       2.238   7.014  18.438  0.00  0.00    +0.000 C 
ENDROOT
BRANCH   2   3
ATOM      3  C   UNL     1       1.828   8.370  18.668  0.00  0.00    +0.000 A 
ATOM      4  C   UNL     1       1.933   9.401  17.754  0.00  0.00    +0.000 A 
ATOM      5  N   UNL     1       1.417  10.533  18.323  0.00  0.00    +0.000 N 
ATOM      6  C   UNL     1       0.992  10.270  19.603  0.00  0.00    +0.000 A 
ATOM      7  C   UNL     1       0.413  11.128  20.545  0.00  0.00    +0.000 A 
ATOM      8  C   UNL     1       0.083  10.593  21.792  0.00  0.00    +0.000 A 
ATOM      9  C   UNL     1       0.318   9.250  22.078  0.00  0.00    +0.000 A 
ATOM     10  C   UNL     1       0.890   8.403  21.120  0.00  0.00    +0.000 A 
ATOM     11  C   UNL     1       1.239   8.917  19.853  0.00  0.00    +0.000 A 
ATOM     12  H   UNL     1       1.360  11.436  17.874  0.00  0.00    +0.000 HD
ENDBRANCH   2   3
BRANCH   1  13
ATOM     13  C   UNL     1       3.465   4.917  19.034  0.00  0.00    +0.000 C 
ATOM     14  O   UNL     1       2.716   3.961  18.916  0.00  0.00    +0.000 OA
BRANCH  13  16
ATOM     15  N   UNL     1       5.662   5.777  18.310  0.00  0.00    +0.000 N 
ATOM     16  C   UNL     1       4.992   4.740  18.929  0.00  0.00    +0.000 C 
ATOM     17  O   UNL     1       5.519   3.733  19.383  0.00  0.00    +0.000 OA
ATOM     18  H   UNL     1       5.090   6.550  17.979  0.00  0.00    +0.000 HD
BRANCH  15  20
ATOM     19  C   UNL     1       7.565   4.619  17.225  0.00  0.00    +0.000 C 
ATOM     20  C   UNL     1       7.120   5.794  18.113  0.00  0.00    +0.000 C 
ATOM     21  C   UNL     1       7.853   5.733  19.465  0.00  0.00    +0.000 C 
ATOM     22  C   UNL     1       7.515   7.103  17.407  0.00  0.00    +0.000 C 
ENDBRANCH  15  20
ENDBRANCH  13  16
ENDBRANCH   1  13
TORSDOF 4
ENDMDL
