MODEL 1
REMARK VINA RESULT:      -7.5      0.000      0.000
REMARK  Name = 
REMARK  10 active torsions:
REMARK  status: ('A' for Active; 'I' for Inactive)
REMARK    1  A    between atoms: C_1  and  O_2
REMARK    2  A    between atoms: O_2  and  C_3
REMARK    3  A    between atoms: C_6  and  C_7
REMARK    4  A    between atoms: C_8  and  C_9
REMARK    5  A    between atoms: C_11  and  O_12
REMARK    6  A    between atoms: O_12  and  C_13
REMARK    7  A    between atoms: C_21  and  O_22
REMARK    8  A    between atoms: O_22  and  P_23
REMARK    9  A    between atoms: P_23  and  O_25
REMARK   10  A    between atoms: P_23  and  O_26
REMARK                            x       y       z     vdW  Elec       q    Type
REMARK                         _______ _______ _______ _____ _____    ______ ____
ROOT
ATOM      1  C   UNL     1       1.506   4.754  20.045  0.00  0.00    +0.000 A 
ATOM      2  C   UNL     1       1.642   5.993  20.684  0.00  0.00    +0.000 A 
ATOM      3  C   UNL     1       2.113   7.113  19.984  0.00  0.00    +0.000 A 
ATOM      4  C   UNL     1       2.450   7.023  18.631  0.00  0.00    +0.000 A 
ATOM      5  C   UNL     1       2.278   5.791  17.979  0.00  0.00    +0.000 A 
ATOM      6  C   UNL     1       1.795   4.663  18.673  0.00  0.00    +0.000 A 
ENDROOT
BRANCH   1   8
ATOM      7  C   UNL     1       1.921   3.148  21.754  0.00  0.00    +0.000 C 
ATOM      8  O   UNL     1       1.090   3.617  20.689  0.00  0.00    +0.000 OA
ENDBRANCH   1   8
BRANCH   4   9
ATOM      9  C   UNL     1       2.923   8.237  17.932  0.00  0.00    +0.000 C 
ATOM     10  C   UNL     1       2.240   9.388  17.760  0.00  0.00    +0.000 C 
BRANCH  10  11
ATOM     11  C   UNL     1       0.931   9.615  18.367  0.00  0.00    +0.000 A 
ATOM     12  C   UNL     1       0.815  10.246  19.625  0.00  0.00    +0.000 A 
ATOM     13  C   UNL     1      -0.400  10.814  20.024  0.00  0.00    +0.000 A 
ATOM     14  C   UNL     1      -1.424  10.815  19.102  0.00  0.00    +0.000 A 
ATOM     15  C   UNL     1      -1.324  10.095  17.920  0.00  0.00    +0.000 A 
ATOM     16  C   UNL     1      -0.191   9.424  17.556  0.00  0.00    +0.000 A 
ATOM     17  O   UNL     1      -2.390  10.303  17.097  0.00  0.00    +0.000 OA
ATOM     18  C   UNL     1      -2.882  11.513  17.697  0.00  0.00    +0.000 C 
ATOM     19  O   UNL     1      -2.553  11.583  19.102  0.00  0.00    +0.000 OA
BRANCH  13  20
ATOM     20  O   UNL     1      -0.399  11.432  21.244  0.00  0.00    +0.000 OA
ATOM     21  C   UNL     1       0.259  12.702  21.269  0.00  0.00    +0.000 C 
ENDBRANCH  13  20
ENDBRANCH  10  11
ENDBRANCH   4   9
BRANCH   6  22
ATOM     22  O   UNL     1       1.613   3.514  17.921  0.00  0.00    +0.000 OA
BRANCH  22  23
ATOM     23  P   UNL     1       2.850   2.304  17.885  0.00  0.00    +0.000 P 
ATOM     24  O   UNL     1       3.779   3.139  18.766  0.00  0.00    +0.000 OA
BRANCH  23  25
ATOM     25  O   UNL     1       2.008   1.328  18.894  0.00  0.00    +0.000 OA
ATOM     26  H   UNL     1       2.510   1.190  19.712  0.00  0.00    +0.000 HD
ENDBRANCH  23  25
BRANCH  23  27
ATOM     27  O   UNL     1       4.086   1.094  17.849  0.00  0.00    +0.000 OA
ATOM     28  H   UNL     1       4.438   1.145  18.761  0.00  0.00    +0.000 HD
ENDBRANCH  23  27
ENDBRANCH  22  23
ENDBRANCH   6  22
TORSDOF 8
ENDMDL
MODEL 2
REMARK VINA RESULT:      -7.3      4.029      6.789
REMARK  Name = 
REMARK  10 active torsions:
REMARK  status: ('A' for Active; 'I' for Inactive)
REMARK    1  A    between atoms: C_1  and  O_2
REMARK    2  A    between atoms: O_2  and  C_3
REMARK    3  A    between atoms: C_6  and  C_7
REMARK    4  A    between atoms: C_8  and  C_9
REMARK    5  A    between atoms: C_11  and  O_12
REMARK    6  A    between atoms: O_12  and  C_13
REMARK    7  A    between atoms: C_21  and  O_22
REMARK    8  A    between atoms: O_22  and  P_23
REMARK    9  A    between atoms: P_23  and  O_25
REMARK   10  A    between atoms: P_23  and  O_26
REMARK                            x       y       z     vdW  Elec       q    Type
REMARK                         _______ _______ _______ _____ _____    ______ ____
ROOT
ATOM      1  C   UNL     1       1.323   4.412  20.443  0.00  0.00    +0.000 A 
ATOM      2  C   UNL     1       1.469   5.704  20.962  0.00  0.00    +0.000 A 
ATOM      3  C   UNL     1       1.934   6.753  20.156  0.00  0.00    +0.000 A 
ATOM      4  C   UNL     1       2.256   6.537  18.814  0.00  0.00    +0.000 A 
ATOM      5  C   UNL     1       2.074   5.251  18.281  0.00  0.00    +0.000 A 
ATOM      6  C   UNL     1       1.596   4.194  19.082  0.00  0.00    +0.000 A 
ENDROOT
BRANCH   1   8
ATOM      7  C   UNL     1       1.908   2.713  22.006  0.00  0.00    +0.000 C 
ATOM      8  O   UNL     1       0.912   3.341  21.194  0.00  0.00    +0.000 OA
ENDBRANCH   1   8
BRANCH   4   9
ATOM      9  C   UNL     1       2.723   7.680  18.000  0.00  0.00    +0.000 C 
ATOM     10  C   UNL     1       3.820   7.717  17.214  0.00  0.00    +0.000 C 
BRANCH  10  11
ATOM     11  C   UNL     1       4.654   6.540  16.985  0.00  0.00    +0.000 A 
ATOM     12  C   UNL     1       5.184   6.266  15.705  0.00  0.00    +0.000 A 
ATOM     13  C   UNL     1       6.273   5.400  15.559  0.00  0.00    +0.000 A 
ATOM     14  C   UNL     1       6.851   4.921  16.715  0.00  0.00    +0.000 A 
ATOM     15  C   UNL     1       6.250   5.112  17.950  0.00  0.00    +0.000 A 
ATOM     16  C   UNL     1       5.112   5.852  18.112  0.00  0.00    +0.000 A 
ATOM     17  O   UNL     1       7.022   4.658  18.977  0.00  0.00    +0.000 OA
ATOM     18  C   UNL     1       8.277   4.594  18.279  0.00  0.00    +0.000 C 
ATOM     19  O   UNL     1       8.090   4.365  16.865  0.00  0.00    +0.000 OA
BRANCH  13  20
ATOM     20  O   UNL     1       6.734   5.228  14.283  0.00  0.00    +0.000 OA
ATOM     21  C   UNL     1       6.409   3.966  13.696  0.00  0.00    +0.000 C 
ENDBRANCH  13  20
ENDBRANCH  10  11
ENDBRANCH   4   9
BRANCH   6  22
ATOM     22  O   UNL     1       1.404   2.980  18.442  0.00  0.00    +0.000 OA
BRANCH  22  23
ATOM     23  P   UNL     1       2.707   1.847  18.333  0.00  0.00    +0.000 P 
ATOM     24  O   UNL     1       2.943   2.166  16.857  0.00  0.00    +0.000 OA
BRANCH  23  25
ATOM     25  O   UNL     1       3.708   2.826  19.183  0.00  0.00    +0.000 OA
ATOM     26  H   UNL     1       4.335   2.291  19.693  0.00  0.00    +0.000 HD
ENDBRANCH  23  25
BRANCH  23  27
ATOM     27  O   UNL     1       4.011   0.715  18.224  0.00  0.00    +0.000 OA
ATOM     28  H   UNL     1       3.916   0.392  17.305  0.00  0.00    +0.000 HD
ENDBRANCH  23  27
ENDBRANCH  22  23
ENDBRANCH   6  22
TORSDOF 8
ENDMDL
MODEL 3
REMARK VINA RESULT:      -7.0      3.708      8.057
REMARK  Name = 
REMARK  10 active torsions:
REMARK  status: ('A' for Active; 'I' for Inactive)
REMARK    1  A    between atoms: C_1  and  O_2
REMARK    2  A    between atoms: O_2  and  C_3
REMARK    3  A    between atoms: C_6  and  C_7
REMARK    4  A    between atoms: C_8  and  C_9
REMARK    5  A    between atoms: C_11  and  O_12
REMARK    6  A    between atoms: O_12  and  C_13
REMARK    7  A    between atoms: C_21  and  O_22
REMARK    8  A    between atoms: O_22  and  P_23
REMARK    9  A    between atoms: P_23  and  O_25
REMARK   10  A    between atoms: P_23  and  O_26
REMARK                            x       y       z     vdW  Elec       q    Type
REMARK                         _______ _______ _______ _____ _____    ______ ____
ROOT
ATOM      1  C   UNL     1       1.775   8.606  19.380  0.00  0.00    +0.000 A 
ATOM      2  C   UNL     1       1.899   7.927  18.162  0.00  0.00    +0.000 A 
ATOM      3  C   UNL     1       2.055   6.534  18.128  0.00  0.00    +0.000 A 
ATOM      4  C   UNL     1       2.082   5.788  19.309  0.00  0.00    +0.000 A 
ATOM      5  C   UNL     1       1.920   6.462  20.531  0.00  0.00    +0.000 A 
ATOM      6  C   UNL     1       1.752   7.861  20.571  0.00  0.00    +0.000 A 
ENDROOT
BRANCH   1   8
ATOM      7  C   UNL     1       1.042  10.634  18.371  0.00  0.00    +0.000 C 
ATOM      8  O   UNL     1       1.662   9.969  19.475  0.00  0.00    +0.000 OA
ENDBRANCH   1   8
BRANCH   4   9
ATOM      9  C   UNL     1       2.228   4.319  19.221  0.00  0.00    +0.000 C 
ATOM     10  C   UNL     1       3.191   3.641  18.563  0.00  0.00    +0.000 C 
BRANCH  10  11
ATOM     11  C   UNL     1       4.315   4.315  17.917  0.00  0.00    +0.000 A 
ATOM     12  C   UNL     1       5.567   4.414  18.563  0.00  0.00    +0.000 A 
ATOM     13  C   UNL     1       6.725   4.688  17.827  0.00  0.00    +0.000 A 
ATOM     14  C   UNL     1       6.595   4.752  16.457  0.00  0.00    +0.000 A 
ATOM     15  C   UNL     1       5.345   4.762  15.855  0.00  0.00    +0.000 A 
ATOM     16  C   UNL     1       4.183   4.620  16.561  0.00  0.00    +0.000 A 
ATOM     17  O   UNL     1       5.426   4.725  14.495  0.00  0.00    +0.000 OA
ATOM     18  C   UNL     1       6.780   4.258  14.381  0.00  0.00    +0.000 C 
ATOM     19  O   UNL     1       7.580   4.660  15.516  0.00  0.00    +0.000 OA
BRANCH  13  20
ATOM     20  O   UNL     1       7.891   4.729  18.540  0.00  0.00    +0.000 OA
ATOM     21  C   UNL     1       7.987   5.815  19.465  0.00  0.00    +0.000 C 
ENDBRANCH  13  20
ENDBRANCH  10  11
ENDBRANCH   4   9
BRANCH   6  22
ATOM     22  O   UNL     1       1.547   8.416  21.824  0.00  0.00    +0.000 OA
BRANCH  22  23
ATOM     23  P   UNL     1       0.188   9.452  22.096  0.00  0.00    +0.000 P 
ATOM     24  O   UNL     1      -0.796   8.285  22.015  0.00  0.00    +0.000 OA
BRANCH  23  25
ATOM     25  O   UNL     1       0.565   9.631  23.679  0.00  0.00    +0.000 OA
ATOM     26  H   UNL     1       0.591   8.764  24.111  0.00  0.00    +0.000 HD
ENDBRANCH  23  25
BRANCH  23  27
ATOM     27  O   UNL     1      -1.171  10.488  22.368  0.00  0.00    +0.000 OA
ATOM     28  H   UNL     1      -1.794  10.180  21.679  0.00  0.00    +0.000 HD
ENDBRANCH  23  27
ENDBRANCH  22  23
ENDBRANCH   6  22
TORSDOF 8
ENDMDL
MODEL 4
REMARK VINA RESULT:      -7.0      3.005      5.010
REMARK  Name = 
REMARK  10 active torsions:
REMARK  status: ('A' for Active; 'I' for Inactive)
REMARK    1  A    between atoms: C_1  and  O_2
REMARK    2  A    between atoms: O_2  and  C_3
REMARK    3  A    between atoms: C_6  and  C_7
REMARK    4  A    between atoms: C_8  and  C_9
REMARK    5  A    between atoms: C_11  and  O_12
REMARK    6  A    between atoms: O_12  and  C_13
REMARK    7  A    between atoms: C_21  and  O_22
REMARK    8  A    between atoms: O_22  and  P_23
REMARK    9  A    between atoms: P_23  and  O_25
REMARK   10  A    between atoms: P_23  and  O_26
REMARK                            x       y       z     vdW  Elec       q    Type
REMARK                         _______ _______ _______ _____ _____    ______ ____
ROOT
ATOM      1  C   UNL     1       4.557   3.733  17.191  0.00  0.00    +0.000 A 
ATOM      2  C   UNL     1       3.176   3.717  16.963  0.00  0.00    +0.000 A 
ATOM      3  C   UNL     1       2.272   3.884  18.022  0.00  0.00    +0.000 A 
ATOM      4  C   UNL     1       2.726   4.078  19.328  0.00  0.00    +0.000 A 
ATOM      5  C   UNL     1       4.111   4.133  19.554  0.00  0.00    +0.000 A 
ATOM      6  C   UNL     1       5.027   3.977  18.493  0.00  0.00    +0.000 A 
ENDROOT
BRANCH   1   8
ATOM      7  C   UNL     1       5.366   4.362  15.041  0.00  0.00    +0.000 C 
ATOM      8  O   UNL     1       5.486   3.535  16.202  0.00  0.00    +0.000 OA
ENDBRANCH   1   8
BRANCH   4   9
ATOM      9  C   UNL     1       1.734   4.269  20.408  0.00  0.00    +0.000 C 
ATOM     10  C   UNL     1       1.306   5.444  20.913  0.00  0.00    +0.000 C 
BRANCH  10  11
ATOM     11  C   UNL     1       1.717   6.729  20.352  0.00  0.00    +0.000 A 
ATOM     12  C   UNL     1       2.310   6.803  19.072  0.00  0.00    +0.000 A 
ATOM     13  C   UNL     1       2.340   8.016  18.373  0.00  0.00    +0.000 A 
ATOM     14  C   UNL     1       1.684   9.084  18.946  0.00  0.00    +0.000 A 
ATOM     15  C   UNL     1       1.207   9.019  20.247  0.00  0.00    +0.000 A 
ATOM     16  C   UNL     1       1.274   7.882  21.003  0.00  0.00    +0.000 A 
ATOM     17  O   UNL     1       0.502  10.132  20.595  0.00  0.00    +0.000 OA
ATOM     18  C   UNL     1       0.243  10.635  19.274  0.00  0.00    +0.000 C 
ATOM     19  O   UNL     1       1.274  10.237  18.341  0.00  0.00    +0.000 OA
BRANCH  13  20
ATOM     20  O   UNL     1       2.903   7.975  17.128  0.00  0.00    +0.000 OA
ATOM     21  C   UNL     1       4.162   7.299  17.065  0.00  0.00    +0.000 C 
ENDBRANCH  13  20
ENDBRANCH  10  11
ENDBRANCH   4   9
BRANCH   6  22
ATOM     22  O   UNL     1       6.367   4.101  18.819  0.00  0.00    +0.000 OA
BRANCH  22  23
ATOM     23  P   UNL     1       7.180   5.607  18.564  0.00  0.00    +0.000 P 
ATOM     24  O   UNL     1       8.122   5.370  19.743  0.00  0.00    +0.000 OA
BRANCH  23  25
ATOM     25  O   UNL     1       7.948   5.037  17.235  0.00  0.00    +0.000 OA
ATOM     26  H   UNL     1       8.035   5.743  16.577  0.00  0.00    +0.000 HD
ENDBRANCH  23  25
BRANCH  23  27
ATOM     27  O   UNL     1       7.992   7.114  18.308  0.00  0.00    +0.000 OA
ATOM     28  H   UNL     1       8.156   7.088  17.343  0.00  0.00    +0.000 HD
ENDBRANCH  23  27
ENDBRANCH  22  23
ENDBRANCH   6  22
TORSDOF 8
ENDMDL
MODEL 5
REMARK VINA RESULT:      -6.9      3.750      7.952
REMARK  Name = 
REMARK  10 active torsions:
REMARK  status: ('A' for Active; 'I' for Inactive)
REMARK    1  A    between atoms: C_1  and  O_2
REMARK    2  A    between atoms: O_2  and  C_3
REMARK    3  A    between atoms: C_6  and  C_7
REMARK    4  A    between atoms: C_8  and  C_9
REMARK    5  A    between atoms: C_11  and  O_12
REMARK    6  A    between atoms: O_12  and  C_13
REMARK    7  A    between atoms: C_21  and  O_22
REMARK    8  A    between atoms: O_22  and  P_23
REMARK    9  A    between atoms: P_23  and  O_25
REMARK   10  A    between atoms: P_23  and  O_26
REMARK                            x       y       z     vdW  Elec       q    Type
REMARK                         _______ _______ _______ _____ _____    ______ ____
ROOT
ATOM      1  C   UNL     1       1.485   8.875  18.917  0.00  0.00    +0.000 A 
ATOM      2  C   UNL     1       1.593   7.945  17.876  0.00  0.00    +0.000 A 
ATOM      3  C   UNL     1       2.088   6.655  18.113  0.00  0.00    +0.000 A 
ATOM      4  C   UNL     1       2.479   6.263  19.395  0.00  0.00    +0.000 A 
ATOM      5  C   UNL     1       2.336   7.180  20.449  0.00  0.00    +0.000 A 
ATOM      6  C   UNL     1       1.829   8.476  20.220  0.00  0.00    +0.000 A 
ENDROOT
BRANCH   1   8
ATOM      7  C   UNL     1      -0.255  10.316  18.164  0.00  0.00    +0.000 C 
ATOM      8  O   UNL     1       1.047  10.161  18.736  0.00  0.00    +0.000 OA
ENDBRANCH   1   8
BRANCH   4   9
ATOM      9  C   UNL     1       2.976   4.885  19.599  0.00  0.00    +0.000 C 
ATOM     10  C   UNL     1       3.940   4.261  18.890  0.00  0.00    +0.000 C 
BRANCH  10  11
ATOM     11  C   UNL     1       4.714   4.946  17.858  0.00  0.00    +0.000 A 
ATOM     12  C   UNL     1       5.878   5.675  18.189  0.00  0.00    +0.000 A 
ATOM     13  C   UNL     1       6.822   5.988  17.205  0.00  0.00    +0.000 A 
ATOM     14  C   UNL     1       6.609   5.470  15.946  0.00  0.00    +0.000 A 
ATOM     15  C   UNL     1       5.411   4.855  15.617  0.00  0.00    +0.000 A 
ATOM     16  C   UNL     1       4.414   4.643  16.528  0.00  0.00    +0.000 A 
ATOM     17  O   UNL     1       5.432   4.320  14.364  0.00  0.00    +0.000 OA
ATOM     18  C   UNL     1       6.856   4.294  14.173  0.00  0.00    +0.000 C 
ATOM     19  O   UNL     1       7.514   5.333  14.932  0.00  0.00    +0.000 OA
BRANCH  13  20
ATOM     20  O   UNL     1       7.930   6.665  17.634  0.00  0.00    +0.000 OA
ATOM     21  C   UNL     1       7.784   8.087  17.670  0.00  0.00    +0.000 C 
ENDBRANCH  13  20
ENDBRANCH  10  11
ENDBRANCH   4   9
BRANCH   6  22
ATOM     22  O   UNL     1       1.680   9.280  21.338  0.00  0.00    +0.000 OA
BRANCH  22  23
ATOM     23  P   UNL     1       0.219   9.211  22.261  0.00  0.00    +0.000 P 
ATOM     24  O   UNL     1       0.927   9.676  23.533  0.00  0.00    +0.000 OA
BRANCH  23  25
ATOM     25  O   UNL     1      -0.371  10.558  21.541  0.00  0.00    +0.000 OA
ATOM     26  H   UNL     1       0.336  11.003  21.048  0.00  0.00    +0.000 HD
ENDBRANCH  23  25
BRANCH  23  27
ATOM     27  O   UNL     1      -1.243   9.142  23.184  0.00  0.00    +0.000 OA
ATOM     28  H   UNL     1      -1.139   9.915  23.776  0.00  0.00    +0.000 HD
ENDBRANCH  23  27
ENDBRANCH  22  23
ENDBRANCH   6  22
TORSDOF 8
ENDMDL
MODEL 6
REMARK VINA RESULT:      -6.8      3.562      7.945
REMARK  Name = 
REMARK  10 active torsions:
REMARK  status: ('A' for Active; 'I' for Inactive)
REMARK    1  A    between atoms: C_1  and  O_2
REMARK    2  A    between atoms: O_2  and  C_3
REMARK    3  A    between atoms: C_6  and  C_7
REMARK    4  A    between atoms: C_8  and  C_9
REMARK    5  A    between atoms: C_11  and  O_12
REMARK    6  A    between atoms: O_12  and  C_13
REMARK    7  A    between atoms: C_21  and  O_22
REMARK    8  A    between atoms: O_22  and  P_23
REMARK    9  A    between atoms: P_23  and  O_25
REMARK   10  A    between atoms: P_23  and  O_26
REMARK                            x       y       z     vdW  Elec       q    Type
REMARK                         _______ _______ _______ _____ _____    ______ ____
ROOT
ATOM      1  C   UNL     1       2.029   8.216  18.664  0.00  0.00    +0.000 A 
ATOM      2  C   UNL     1       2.100   7.257  17.647  0.00  0.00    +0.000 A 
ATOM      3  C   UNL     1       2.263   5.898  17.951  0.00  0.00    +0.000 A 
ATOM      4  C   UNL     1       2.352   5.466  19.277  0.00  0.00    +0.000 A 
ATOM      5  C   UNL     1       2.243   6.422  20.300  0.00  0.00    +0.000 A 
ATOM      6  C   UNL     1       2.067   7.788  20.002  0.00  0.00    +0.000 A 
ENDROOT
BRANCH   1   8
ATOM      7  C   UNL     1       0.658  10.005  17.895  0.00  0.00    +0.000 C 
ATOM      8  O   UNL     1       1.910   9.561  18.425  0.00  0.00    +0.000 OA
ENDBRANCH   1   8
BRANCH   4   9
ATOM      9  C   UNL     1       2.504   4.020  19.547  0.00  0.00    +0.000 C 
ATOM     10  C   UNL     1       3.462   3.204  19.062  0.00  0.00    +0.000 C 
BRANCH  10  11
ATOM     11  C   UNL     1       4.575   3.702  18.258  0.00  0.00    +0.000 A 
ATOM     12  C   UNL     1       4.502   3.715  16.848  0.00  0.00    +0.000 A 
ATOM     13  C   UNL     1       5.359   4.530  16.100  0.00  0.00    +0.000 A 
ATOM     14  C   UNL     1       6.189   5.376  16.803  0.00  0.00    +0.000 A 
ATOM     15  C   UNL     1       6.324   5.268  18.179  0.00  0.00    +0.000 A 
ATOM     16  C   UNL     1       5.588   4.393  18.928  0.00  0.00    +0.000 A 
ATOM     17  O   UNL     1       7.107   6.254  18.700  0.00  0.00    +0.000 OA
ATOM     18  C   UNL     1       7.050   7.170  17.595  0.00  0.00    +0.000 C 
ATOM     19  O   UNL     1       6.846   6.480  16.341  0.00  0.00    +0.000 OA
BRANCH  13  20
ATOM     20  O   UNL     1       5.183   4.497  14.744  0.00  0.00    +0.000 OA
ATOM     21  C   UNL     1       6.273   3.927  14.015  0.00  0.00    +0.000 C 
ENDBRANCH  13  20
ENDBRANCH  10  11
ENDBRANCH   4   9
BRANCH   6  22
ATOM     22  O   UNL     1       1.919   8.636  21.088  0.00  0.00    +0.000 OA
BRANCH  22  23
ATOM     23  P   UNL     1       0.440   8.634  21.987  0.00  0.00    +0.000 P 
ATOM     24  O   UNL     1       1.000   9.603  23.028  0.00  0.00    +0.000 OA
BRANCH  23  25
ATOM     25  O   UNL     1      -0.316   9.550  20.861  0.00  0.00    +0.000 OA
ATOM     26  H   UNL     1       0.336  10.072  20.370  0.00  0.00    +0.000 HD
ENDBRANCH  23  25
BRANCH  23  27
ATOM     27  O   UNL     1      -1.038   8.631  22.885  0.00  0.00    +0.000 OA
ATOM     28  H   UNL     1      -1.675   8.961  22.219  0.00  0.00    +0.000 HD
ENDBRANCH  23  27
ENDBRANCH  22  23
ENDBRANCH   6  22
TORSDOF 8
ENDMDL
MODEL 7
REMARK VINA RESULT:      -6.8      3.651      7.870
REMARK  Name = 
REMARK  10 active torsions:
REMARK  status: ('A' for Active; 'I' for Inactive)
REMARK    1  A    between atoms: C_1  and  O_2
REMARK    2  A    between atoms: O_2  and  C_3
REMARK    3  A    between atoms: C_6  and  C_7
REMARK    4  A    between atoms: C_8  and  C_9
REMARK    5  A    between atoms: C_11  and  O_12
REMARK    6  A    between atoms: O_12  and  C_13
REMARK    7  A    between atoms: C_21  and  O_22
REMARK    8  A    between atoms: O_22  and  P_23
REMARK    9  A    between atoms: P_23  and  O_25
REMARK   10  A    between atoms: P_23  and  O_26
REMARK                            x       y       z     vdW  Elec       q    Type
REMARK                         _______ _______ _______ _____ _____    ______ ____
ROOT
ATOM      1  C   UNL     1       1.230   9.590  18.777  0.00  0.00    +0.000 A 
ATOM      2  C   UNL     1       2.025   8.800  17.938  0.00  0.00    +0.000 A 
ATOM      3  C   UNL     1       2.545   7.577  18.384  0.00  0.00    +0.000 A 
ATOM      4  C   UNL     1       2.276   7.112  19.674  0.00  0.00    +0.000 A 
ATOM      5  C   UNL     1       1.447   7.884  20.505  0.00  0.00    +0.000 A 
ATOM      6  C   UNL     1       0.912   9.110  20.059  0.00  0.00    +0.000 A 
ENDROOT
BRANCH   1   8
ATOM      7  C   UNL     1       1.591  11.937  18.598  0.00  0.00    +0.000 C 
ATOM      8  O   UNL     1       0.728  10.812  18.409  0.00  0.00    +0.000 OA
ENDBRANCH   1   8
BRANCH   4   9
ATOM      9  C   UNL     1       2.831   5.806  20.092  0.00  0.00    +0.000 C 
ATOM     10  C   UNL     1       3.754   5.073  19.435  0.00  0.00    +0.000 C 
BRANCH  10  11
ATOM     11  C   UNL     1       4.420   5.560  18.230  0.00  0.00    +0.000 A 
ATOM     12  C   UNL     1       5.474   6.498  18.313  0.00  0.00    +0.000 A 
ATOM     13  C   UNL     1       6.361   6.665  17.244  0.00  0.00    +0.000 A 
ATOM     14  C   UNL     1       6.216   5.812  16.171  0.00  0.00    +0.000 A 
ATOM     15  C   UNL     1       5.113   4.978  16.062  0.00  0.00    +0.000 A 
ATOM     16  C   UNL     1       4.159   4.882  17.037  0.00  0.00    +0.000 A 
ATOM     17  O   UNL     1       5.201   4.142  14.990  0.00  0.00    +0.000 OA
ATOM     18  C   UNL     1       6.614   4.256  14.755  0.00  0.00    +0.000 C 
ATOM     19  O   UNL     1       7.126   5.535  15.192  0.00  0.00    +0.000 OA
BRANCH  13  20
ATOM     20  O   UNL     1       7.366   7.571  17.438  0.00  0.00    +0.000 OA
ATOM     21  C   UNL     1       8.253   7.257  18.515  0.00  0.00    +0.000 C 
ENDBRANCH  13  20
ENDBRANCH  10  11
ENDBRANCH   4   9
BRANCH   6  22
ATOM     22  O   UNL     1       0.065   9.763  20.940  0.00  0.00    +0.000 OA
BRANCH  22  23
ATOM     23  P   UNL     1       0.270   9.555  22.645  0.00  0.00    +0.000 P 
ATOM     24  O   UNL     1      -0.335  10.926  22.948  0.00  0.00    +0.000 OA
BRANCH  23  25
ATOM     25  O   UNL     1      -0.961   8.479  22.723  0.00  0.00    +0.000 OA
ATOM     26  H   UNL     1      -1.644   8.804  23.328  0.00  0.00    +0.000 HD
ENDBRANCH  23  25
BRANCH  23  27
ATOM     27  O   UNL     1       0.475   9.347  24.351  0.00  0.00    +0.000 OA
ATOM     28  H   UNL     1       1.278   9.881  24.520  0.00  0.00    +0.000 HD
ENDBRANCH  23  27
ENDBRANCH  22  23
ENDBRANCH   6  22
TORSDOF 8
ENDMDL
MODEL 8
REMARK VINA RESULT:      -6.8      2.676      7.874
REMARK  Name = 
REMARK  10 active torsions:
REMARK  status: ('A' for Active; 'I' for Inactive)
REMARK    1  A    between atoms: C_1  and  O_2
REMARK    2  A    between atoms: O_2  and  C_3
REMARK    3  A    between atoms: C_6  and  C_7
REMARK    4  A    between atoms: C_8  and  C_9
REMARK    5  A    between atoms: C_11  and  O_12
REMARK    6  A    between atoms: O_12  and  C_13
REMARK    7  A    between atoms: C_21  and  O_22
REMARK    8  A    between atoms: O_22  and  P_23
REMARK    9  A    between atoms: P_23  and  O_25
REMARK   10  A    between atoms: P_23  and  O_26
REMARK                            x       y       z     vdW  Elec       q    Type
REMARK                         _______ _______ _______ _____ _____    ______ ____
ROOT
ATOM      1  C   UNL     1       0.034   9.090  21.246  0.00  0.00    +0.000 A 
ATOM      2  C   UNL     1       1.101   8.185  21.291  0.00  0.00    +0.000 A 
ATOM      3  C   UNL     1       1.941   8.010  20.182  0.00  0.00    +0.000 A 
ATOM      4  C   UNL     1       1.739   8.740  19.008  0.00  0.00    +0.000 A 
ATOM      5  C   UNL     1       0.693   9.676  18.974  0.00  0.00    +0.000 A 
ATOM      6  C   UNL     1      -0.149   9.866  20.089  0.00  0.00    +0.000 A 
ENDROOT
BRANCH   1   8
ATOM      7  C   UNL     1      -0.607  10.406  23.125  0.00  0.00    +0.000 C 
ATOM      8  O   UNL     1      -0.843   9.273  22.284  0.00  0.00    +0.000 OA
ENDBRANCH   1   8
BRANCH   4   9
ATOM      9  C   UNL     1       2.664   8.535  17.873  0.00  0.00    +0.000 C 
ATOM     10  C   UNL     1       3.310   7.394  17.554  0.00  0.00    +0.000 C 
BRANCH  10  11
ATOM     11  C   UNL     1       3.077   6.141  18.267  0.00  0.00    +0.000 A 
ATOM     12  C   UNL     1       1.996   5.300  17.919  0.00  0.00    +0.000 A 
ATOM     13  C   UNL     1       1.992   3.955  18.304  0.00  0.00    +0.000 A 
ATOM     14  C   UNL     1       3.121   3.482  18.937  0.00  0.00    +0.000 A 
ATOM     15  C   UNL     1       4.118   4.345  19.365  0.00  0.00    +0.000 A 
ATOM     16  C   UNL     1       4.092   5.688  19.113  0.00  0.00    +0.000 A 
ATOM     17  O   UNL     1       5.194   3.681  19.874  0.00  0.00    +0.000 OA
ATOM     18  C   UNL     1       4.924   2.387  19.310  0.00  0.00    +0.000 C 
ATOM     19  O   UNL     1       3.509   2.182  19.098  0.00  0.00    +0.000 OA
BRANCH  13  20
ATOM     20  O   UNL     1       0.919   3.217  17.887  0.00  0.00    +0.000 OA
ATOM     21  C   UNL     1       0.432   2.277  18.848  0.00  0.00    +0.000 C 
ENDBRANCH  13  20
ENDBRANCH  10  11
ENDBRANCH   4   9
BRANCH   6  22
ATOM     22  O   UNL     1      -1.114  10.852  19.965  0.00  0.00    +0.000 OA
BRANCH  22  23
ATOM     23  P   UNL     1      -1.487  11.501  18.405  0.00  0.00    +0.000 P 
ATOM     24  O   UNL     1      -2.596  10.474  18.175  0.00  0.00    +0.000 OA
BRANCH  23  25
ATOM     25  O   UNL     1      -2.205  12.819  19.059  0.00  0.00    +0.000 OA
ATOM     26  H   UNL     1      -3.167  12.699  19.068  0.00  0.00    +0.000 HD
ENDBRANCH  23  25
BRANCH  23  27
ATOM     27  O   UNL     1      -1.860  12.150  16.845  0.00  0.00    +0.000 OA
ATOM     28  H   UNL     1      -2.788  12.436  16.967  0.00  0.00    +0.000 HD
ENDBRANCH  23  27
ENDBRANCH  22  23
ENDBRANCH   6  22
TORSDOF 8
ENDMDL
MODEL 9
REMARK VINA RESULT:      -6.7      3.423      8.091
REMARK  Name = 
REMARK  10 active torsions:
REMARK  status: ('A' for Active; 'I' for Inactive)
REMARK    1  A    between atoms: C_1  and  O_2
REMARK    2  A    between atoms: O_2  and  C_3
REMARK    3  A    between atoms: C_6  and  C_7
REMARK    4  A    between atoms: C_8  and  C_9
REMARK    5  A    between atoms: C_11  and  O_12
REMARK    6  A    between atoms: O_12  and  C_13
REMARK    7  A    between atoms: C_21  and  O_22
REMARK    8  A    between atoms: O_22  and  P_23
REMARK    9  A    between atoms: P_23  and  O_25
REMARK   10  A    between atoms: P_23  and  O_26
REMARK                            x       y       z     vdW  Elec       q    Type
REMARK                         _______ _______ _______ _____ _____    ______ ____
ROOT
ATOM      1  C   UNL     1       2.119   8.052  19.124  0.00  0.00    +0.000 A 
ATOM      2  C   UNL     1       2.265   7.204  18.020  0.00  0.00    +0.000 A 
ATOM      3  C   UNL     1       2.168   5.813  18.165  0.00  0.00    +0.000 A 
ATOM      4  C   UNL     1       1.916   5.239  19.413  0.00  0.00    +0.000 A 
ATOM      5  C   UNL     1       1.731   6.089  20.516  0.00  0.00    +0.000 A 
ATOM      6  C   UNL     1       1.817   7.489  20.376  0.00  0.00    +0.000 A 
ENDROOT
BRANCH   1   8
ATOM      7  C   UNL     1       1.707  10.040  17.880  0.00  0.00    +0.000 C 
ATOM      8  O   UNL     1       2.244   9.415  19.049  0.00  0.00    +0.000 OA
ENDBRANCH   1   8
BRANCH   4   9
ATOM      9  C   UNL     1       1.802   3.768  19.512  0.00  0.00    +0.000 C 
ATOM     10  C   UNL     1       2.673   2.856  19.031  0.00  0.00    +0.000 C 
BRANCH  10  11
ATOM     11  C   UNL     1       3.944   3.240  18.421  0.00  0.00    +0.000 A 
ATOM     12  C   UNL     1       4.044   3.448  17.027  0.00  0.00    +0.000 A 
ATOM     13  C   UNL     1       5.110   4.180  16.494  0.00  0.00    +0.000 A 
ATOM     14  C   UNL     1       5.981   4.760  17.391  0.00  0.00    +0.000 A 
ATOM     15  C   UNL     1       5.929   4.453  18.742  0.00  0.00    +0.000 A 
ATOM     16  C   UNL     1       4.971   3.640  19.279  0.00  0.00    +0.000 A 
ATOM     17  O   UNL     1       6.799   5.202  19.476  0.00  0.00    +0.000 OA
ATOM     18  C   UNL     1       7.031   6.248  18.518  0.00  0.00    +0.000 C 
ATOM     19  O   UNL     1       6.866   5.775  17.163  0.00  0.00    +0.000 OA
BRANCH  13  20
ATOM     20  O   UNL     1       5.097   4.355  15.138  0.00  0.00    +0.000 OA
ATOM     21  C   UNL     1       6.265   3.880  14.463  0.00  0.00    +0.000 C 
ENDBRANCH  13  20
ENDBRANCH  10  11
ENDBRANCH   4   9
BRANCH   6  22
ATOM     22  O   UNL     1       1.566   8.234  21.516  0.00  0.00    +0.000 OA
BRANCH  22  23
ATOM     23  P   UNL     1       0.283   9.395  21.522  0.00  0.00    +0.000 P 
ATOM     24  O   UNL     1      -0.100   9.057  22.963  0.00  0.00    +0.000 OA
BRANCH  23  25
ATOM     25  O   UNL     1       1.334  10.647  21.604  0.00  0.00    +0.000 OA
ATOM     26  H   UNL     1       2.225  10.343  21.371  0.00  0.00    +0.000 HD
ENDBRANCH  23  25
BRANCH  23  27
ATOM     27  O   UNL     1      -1.001  10.556  21.528  0.00  0.00    +0.000 OA
ATOM     28  H   UNL     1      -0.726  11.149  22.256  0.00  0.00    +0.000 HD
ENDBRANCH  23  27
ENDBRANCH  22  23
ENDBRANCH   6  22
TORSDOF 8
ENDMDL
