MODEL 1
REMARK VINA RESULT:      -9.2      0.000      0.000
REMARK  Name = 
REMARK  11 active torsions:
REMARK  status: ('A' for Active; 'I' for Inactive)
REMARK    1  A    between atoms: C_1  and  C_2
REMARK    2  A    between atoms: C_2  and  C_3
REMARK    3  A    between atoms: C_2  and  C_4
REMARK    4  A    between atoms: C_2  and  N_5
REMARK    5  A    between atoms: C_6  and  C_8
REMARK    6  A    between atoms: C_8  and  C_9
REMARK    7  A    between atoms: C_8  and  N_22
REMARK    8  A    between atoms: CA_10  and  C_11
REMARK    9  A    between atoms: C_11  and  OXT_13
REMARK   10  A    between atoms: N_22  and  C_25
REMARK   11  A    between atoms: C_25  and  C_26
REMARK                            x       y       z     vdW  Elec       q    Type
REMARK                         _______ _______ _______ _____ _____    ______ ____
ROOT
ATOM      1  C   UNL     1       4.608   5.353  18.623  0.00  0.00    +0.000 C 
ENDROOT
BRANCH   1   2
ATOM      2  C   UNL     1       5.773   5.233  17.628  0.00  0.00    +0.000 A 
ATOM      3  CA  UNL     1       7.102   5.563  17.919  0.00  0.00    +0.000 A 
ATOM      4  N   UNL     1       7.840   5.367  16.777  0.00  0.00    +0.000 N 
ATOM      5  C   UNL     1       7.046   4.924  15.754  0.00  0.00    +0.000 A 
ATOM      6  C   UNL     1       7.392   4.599  14.434  0.00  0.00    +0.000 A 
ATOM      7  C   UNL     1       6.377   4.143  13.592  0.00  0.00    +0.000 A 
ATOM      8 CL   UNL     1       6.754   3.707  11.971  0.00  0.00    +0.000 Cl
ATOM      9  C   UNL     1       5.069   4.036  14.042  0.00  0.00    +0.000 A 
ATOM     10  C   UNL     1       4.746   4.388  15.357  0.00  0.00    +0.000 A 
ATOM     11  C   UNL     1       5.745   4.826  16.250  0.00  0.00    +0.000 A 
ATOM     12  H   UNL     1       8.843   5.478  16.704  0.00  0.00    +0.000 HD
BRANCH   3  13
ATOM     13  C   UNL     1       7.668   5.975  19.187  0.00  0.00    +0.000 C 
ATOM     14  O   UNL     1       7.521   5.392  20.240  0.00  0.00    +0.000 OA
BRANCH  13  15
ATOM     15  OXT UNL     1       8.426   7.089  19.072  0.00  0.00    +0.000 OA
ATOM     16  HXT UNL     1       8.278   7.600  18.256  0.00  0.00    +0.000 HD
ENDBRANCH  13  15
ENDBRANCH   3  13
ENDBRANCH   1   2
BRANCH   1  18
ATOM     17  N   UNL     1       2.942   3.961  19.970  0.00  0.00    +0.000 N 
ATOM     18  C   UNL     1       4.188   4.036  19.361  0.00  0.00    +0.000 C 
ATOM     19  O   UNL     1       4.959   3.076  19.406  0.00  0.00    +0.000 OA
ATOM     20  H   UNL     1       2.377   4.797  20.059  0.00  0.00    +0.000 HD
BRANCH  17  22
ATOM     21  C   UNL     1       1.917   1.709  19.539  0.00  0.00    +0.000 C 
ATOM     22  C   UNL     1       2.449   2.699  20.595  0.00  0.00    +0.000 C 
ATOM     23  C   UNL     1       1.344   3.008  21.627  0.00  0.00    +0.000 C 
ATOM     24  C   UNL     1       3.587   1.981  21.348  0.00  0.00    +0.000 C 
ENDBRANCH  17  22
ENDBRANCH   1  18
BRANCH   1  25
ATOM     25  N   UNL     1       3.420   5.864  17.878  0.00  0.00    +0.000 N 
ATOM     26  C   UNL     1       2.302   5.027  17.805  0.00  0.00    +0.000 C 
ATOM     27  O   UNL     1       1.170   5.345  17.463  0.00  0.00    +0.000 OA
BRANCH  25  28
ATOM     28  C   UNL     1       3.192   7.312  17.906  0.00  0.00    +0.000 C 
BRANCH  28  29
ATOM     29  C   UNL     1       2.232   7.885  18.930  0.00  0.00    +0.000 A 
ATOM     30  C   UNL     1       2.034   7.375  20.221  0.00  0.00    +0.000 A 
ATOM     31  C   UNL     1       1.260   8.075  21.155  0.00  0.00    +0.000 A 
ATOM     32  C   UNL     1       0.625   9.256  20.784  0.00  0.00    +0.000 A 
ATOM     33  F   UNL     1      -0.086   9.934  21.694  0.00  0.00    +0.000 F 
ATOM     34  C   UNL     1       0.732   9.728  19.486  0.00  0.00    +0.000 A 
ATOM     35  F   UNL     1       0.089  10.846  19.118  0.00  0.00    +0.000 F 
ATOM     36  C   UNL     1       1.528   9.047  18.571  0.00  0.00    +0.000 A 
ATOM     37  F   UNL     1       1.643   9.525  17.322  0.00  0.00    +0.000 F 
ENDBRANCH  28  29
ENDBRANCH  25  28
ENDBRANCH   1  25
TORSDOF 8
ENDMDL
MODEL 2
REMARK VINA RESULT:      -8.7      0.701      1.110
REMARK  Name = 
REMARK  11 active torsions:
REMARK  status: ('A' for Active; 'I' for Inactive)
REMARK    1  A    between atoms: C_1  and  C_2
REMARK    2  A    between atoms: C_2  and  C_3
REMARK    3  A    between atoms: C_2  and  C_4
REMARK    4  A    between atoms: C_2  and  N_5
REMARK    5  A    between atoms: C_6  and  C_8
REMARK    6  A    between atoms: C_8  and  C_9
REMARK    7  A    between atoms: C_8  and  N_22
REMARK    8  A    between atoms: CA_10  and  C_11
REMARK    9  A    between atoms: C_11  and  OXT_13
REMARK   10  A    between atoms: N_22  and  C_25
REMARK   11  A    between atoms: C_25  and  C_26
REMARK                            x       y       z     vdW  Elec       q    Type
REMARK                         _______ _______ _______ _____ _____    ______ ____
ROOT
ATOM      1  C   UNL     1       4.873   5.748  18.271  0.00  0.00    +0.000 C 
ENDROOT
BRANCH   1   2
ATOM      2  C   UNL     1       5.896   5.685  17.128  0.00  0.00    +0.000 A 
ATOM      3  CA  UNL     1       7.106   6.390  17.106  0.00  0.00    +0.000 A 
ATOM      4  N   UNL     1       7.726   6.116  15.910  0.00  0.00    +0.000 N 
ATOM      5  C   UNL     1       6.969   5.263  15.153  0.00  0.00    +0.000 A 
ATOM      6  C   UNL     1       7.231   4.731  13.882  0.00  0.00    +0.000 A 
ATOM      7  C   UNL     1       6.289   3.855  13.342  0.00  0.00    +0.000 A 
ATOM      8 CL   UNL     1       6.573   3.154  11.796  0.00  0.00    +0.000 Cl
ATOM      9  C   UNL     1       5.126   3.541  14.030  0.00  0.00    +0.000 A 
ATOM     10  C   UNL     1       4.878   4.103  15.287  0.00  0.00    +0.000 A 
ATOM     11  C   UNL     1       5.817   4.970  15.883  0.00  0.00    +0.000 A 
ATOM     12  H   UNL     1       8.643   6.448  15.639  0.00  0.00    +0.000 HD
BRANCH   3  13
ATOM     13  C   UNL     1       7.683   7.215  18.146  0.00  0.00    +0.000 C 
ATOM     14  O   UNL     1       7.773   8.425  18.108  0.00  0.00    +0.000 OA
BRANCH  13  15
ATOM     15  OXT UNL     1       8.093   6.488  19.209  0.00  0.00    +0.000 OA
ATOM     16  HXT UNL     1       8.090   5.524  19.069  0.00  0.00    +0.000 HD
ENDBRANCH  13  15
ENDBRANCH   3  13
ENDBRANCH   1   2
BRANCH   1  18
ATOM     17  N   UNL     1       3.417   4.187  19.677  0.00  0.00    +0.000 N 
ATOM     18  C   UNL     1       4.646   4.421  19.073  0.00  0.00    +0.000 C 
ATOM     19  O   UNL     1       5.553   3.593  19.174  0.00  0.00    +0.000 OA
ATOM     20  H   UNL     1       2.730   4.931  19.718  0.00  0.00    +0.000 HD
BRANCH  17  22
ATOM     21  C   UNL     1       4.396   2.113  20.700  0.00  0.00    +0.000 C 
ATOM     22  C   UNL     1       3.112   2.897  20.361  0.00  0.00    +0.000 C 
ATOM     23  C   UNL     1       2.186   2.030  19.483  0.00  0.00    +0.000 C 
ATOM     24  C   UNL     1       2.375   3.146  21.693  0.00  0.00    +0.000 C 
ENDBRANCH  17  22
ENDBRANCH   1  18
BRANCH   1  25
ATOM     25  N   UNL     1       3.562   6.167  17.692  0.00  0.00    +0.000 N 
ATOM     26  C   UNL     1       2.524   5.230  17.715  0.00  0.00    +0.000 C 
ATOM     27  O   UNL     1       1.335   5.450  17.520  0.00  0.00    +0.000 OA
BRANCH  25  28
ATOM     28  C   UNL     1       3.209   7.585  17.808  0.00  0.00    +0.000 C 
BRANCH  28  29
ATOM     29  C   UNL     1       2.232   8.014  18.886  0.00  0.00    +0.000 A 
ATOM     30  C   UNL     1       2.094   7.397  20.138  0.00  0.00    +0.000 A 
ATOM     31  C   UNL     1       1.293   7.971  21.132  0.00  0.00    +0.000 A 
ATOM     32  C   UNL     1       0.574   9.130  20.861  0.00  0.00    +0.000 A 
ATOM     33  F   UNL     1      -0.163   9.689  21.830  0.00  0.00    +0.000 F 
ATOM     34  C   UNL     1       0.624   9.704  19.601  0.00  0.00    +0.000 A 
ATOM     35  F   UNL     1      -0.099  10.799  19.328  0.00  0.00    +0.000 F 
ATOM     36  C   UNL     1       1.446   9.149  18.626  0.00  0.00    +0.000 A 
ATOM     37  F   UNL     1       1.505   9.725  17.415  0.00  0.00    +0.000 F 
ENDBRANCH  28  29
ENDBRANCH  25  28
ENDBRANCH   1  25
TORSDOF 8
ENDMDL
MODEL 3
REMARK VINA RESULT:      -8.7      1.241      1.930
REMARK  Name = 
REMARK  11 active torsions:
REMARK  status: ('A' for Active; 'I' for Inactive)
REMARK    1  A    between atoms: C_1  and  C_2
REMARK    2  A    between atoms: C_2  and  C_3
REMARK    3  A    between atoms: C_2  and  C_4
REMARK    4  A    between atoms: C_2  and  N_5
REMARK    5  A    between atoms: C_6  and  C_8
REMARK    6  A    between atoms: C_8  and  C_9
REMARK    7  A    between atoms: C_8  and  N_22
REMARK    8  A    between atoms: CA_10  and  C_11
REMARK    9  A    between atoms: C_11  and  OXT_13
REMARK   10  A    between atoms: N_22  and  C_25
REMARK   11  A    between atoms: C_25  and  C_26
REMARK                            x       y       z     vdW  Elec       q    Type
REMARK                         _______ _______ _______ _____ _____    ______ ____
ROOT
ATOM      1  C   UNL     1       4.585   5.484  18.683  0.00  0.00    +0.000 C 
ENDROOT
BRANCH   1   2
ATOM      2  C   UNL     1       5.743   5.236  17.704  0.00  0.00    +0.000 A 
ATOM      3  CA  UNL     1       7.095   5.445  18.004  0.00  0.00    +0.000 A 
ATOM      4  N   UNL     1       7.822   5.158  16.874  0.00  0.00    +0.000 N 
ATOM      5  C   UNL     1       6.999   4.773  15.850  0.00  0.00    +0.000 A 
ATOM      6  C   UNL     1       7.326   4.391  14.540  0.00  0.00    +0.000 A 
ATOM      7  C   UNL     1       6.280   4.017  13.696  0.00  0.00    +0.000 A 
ATOM      8 CL   UNL     1       6.629   3.517  12.087  0.00  0.00    +0.000 Cl
ATOM      9  C   UNL     1       4.963   4.043  14.133  0.00  0.00    +0.000 A 
ATOM     10  C   UNL     1       4.662   4.448  15.437  0.00  0.00    +0.000 A 
ATOM     11  C   UNL     1       5.690   4.807  16.333  0.00  0.00    +0.000 A 
ATOM     12  H   UNL     1       8.831   5.173  16.811  0.00  0.00    +0.000 HD
BRANCH   3  13
ATOM     13  C   UNL     1       7.684   5.827  19.270  0.00  0.00    +0.000 C 
ATOM     14  O   UNL     1       7.564   5.213  20.310  0.00  0.00    +0.000 OA
BRANCH  13  15
ATOM     15  OXT UNL     1       8.432   6.948  19.170  0.00  0.00    +0.000 OA
ATOM     16  HXT UNL     1       8.987   6.998  18.371  0.00  0.00    +0.000 HD
ENDBRANCH  13  15
ENDBRANCH   3  13
ENDBRANCH   1   2
BRANCH   1  18
ATOM     17  N   UNL     1       3.107   3.973  20.118  0.00  0.00    +0.000 N 
ATOM     18  C   UNL     1       3.554   4.316  18.848  0.00  0.00    +0.000 C 
ATOM     19  O   UNL     1       3.146   3.702  17.861  0.00  0.00    +0.000 OA
ATOM     20  H   UNL     1       3.554   4.377  20.932  0.00  0.00    +0.000 HD
BRANCH  17  22
ATOM     21  C   UNL     1       1.919   2.545  21.809  0.00  0.00    +0.000 C 
ATOM     22  C   UNL     1       2.049   2.942  20.324  0.00  0.00    +0.000 C 
ATOM     23  C   UNL     1       2.347   1.689  19.474  0.00  0.00    +0.000 C 
ATOM     24  C   UNL     1       0.671   3.475  19.882  0.00  0.00    +0.000 C 
ENDBRANCH  17  22
ENDBRANCH   1  18
BRANCH   1  25
ATOM     25  N   UNL     1       3.843   6.694  18.218  0.00  0.00    +0.000 N 
ATOM     26  C   UNL     1       4.288   7.305  17.042  0.00  0.00    +0.000 C 
ATOM     27  O   UNL     1       3.686   8.137  16.376  0.00  0.00    +0.000 OA
BRANCH  25  28
ATOM     28  C   UNL     1       2.409   6.747  18.519  0.00  0.00    +0.000 C 
BRANCH  28  29
ATOM     29  C   UNL     1       1.848   7.976  19.207  0.00  0.00    +0.000 A 
ATOM     30  C   UNL     1       1.589   9.203  18.578  0.00  0.00    +0.000 A 
ATOM     31  C   UNL     1       0.907  10.222  19.254  0.00  0.00    +0.000 A 
ATOM     32  C   UNL     1       0.536  10.047  20.583  0.00  0.00    +0.000 A 
ATOM     33  F   UNL     1      -0.145  11.015  21.209  0.00  0.00    +0.000 F 
ATOM     34  C   UNL     1       0.865   8.878  21.250  0.00  0.00    +0.000 A 
ATOM     35  F   UNL     1       0.541   8.725  22.543  0.00  0.00    +0.000 F 
ATOM     36  C   UNL     1       1.514   7.856  20.566  0.00  0.00    +0.000 A 
ATOM     37  F   UNL     1       1.808   6.718  21.216  0.00  0.00    +0.000 F 
ENDBRANCH  28  29
ENDBRANCH  25  28
ENDBRANCH   1  25
TORSDOF 8
ENDMDL
MODEL 4
REMARK VINA RESULT:      -8.6      1.015      1.383
REMARK  Name = 
REMARK  11 active torsions:
REMARK  status: ('A' for Active; 'I' for Inactive)
REMARK    1  A    between atoms: C_1  and  C_2
REMARK    2  A    between atoms: C_2  and  C_3
REMARK    3  A    between atoms: C_2  and  C_4
REMARK    4  A    between atoms: C_2  and  N_5
REMARK    5  A    between atoms: C_6  and  C_8
REMARK    6  A    between atoms: C_8  and  C_9
REMARK    7  A    between atoms: C_8  and  N_22
REMARK    8  A    between atoms: CA_10  and  C_11
REMARK    9  A    between atoms: C_11  and  OXT_13
REMARK   10  A    between atoms: N_22  and  C_25
REMARK   11  A    between atoms: C_25  and  C_26
REMARK                            x       y       z     vdW  Elec       q    Type
REMARK                         _______ _______ _______ _____ _____    ______ ____
ROOT
ATOM      1  C   UNL     1       4.611   5.491  18.715  0.00  0.00    +0.000 C 
ENDROOT
BRANCH   1   2
ATOM      2  C   UNL     1       5.761   5.240  17.729  0.00  0.00    +0.000 A 
ATOM      3  CA  UNL     1       7.116   5.443  18.021  0.00  0.00    +0.000 A 
ATOM      4  N   UNL     1       7.835   5.155  16.886  0.00  0.00    +0.000 N 
ATOM      5  C   UNL     1       7.004   4.772  15.867  0.00  0.00    +0.000 A 
ATOM      6  C   UNL     1       7.322   4.390  14.555  0.00  0.00    +0.000 A 
ATOM      7  C   UNL     1       6.269   4.020  13.717  0.00  0.00    +0.000 A 
ATOM      8 CL   UNL     1       6.607   3.520  12.106  0.00  0.00    +0.000 Cl
ATOM      9  C   UNL     1       4.956   4.050  14.162  0.00  0.00    +0.000 A 
ATOM     10  C   UNL     1       4.664   4.456  15.468  0.00  0.00    +0.000 A 
ATOM     11  C   UNL     1       5.698   4.811  16.358  0.00  0.00    +0.000 A 
ATOM     12  H   UNL     1       8.844   5.165  16.817  0.00  0.00    +0.000 HD
BRANCH   3  13
ATOM     13  C   UNL     1       7.715   5.822  19.283  0.00  0.00    +0.000 C 
ATOM     14  O   UNL     1       7.610   5.200  20.320  0.00  0.00    +0.000 OA
BRANCH  13  15
ATOM     15  OXT UNL     1       8.451   6.952  19.183  0.00  0.00    +0.000 OA
ATOM     16  HXT UNL     1       8.623   7.402  20.030  0.00  0.00    +0.000 HD
ENDBRANCH  13  15
ENDBRANCH   3  13
ENDBRANCH   1   2
BRANCH   1  18
ATOM     17  N   UNL     1       3.081   4.049  20.168  0.00  0.00    +0.000 N 
ATOM     18  C   UNL     1       3.589   4.318  18.904  0.00  0.00    +0.000 C 
ATOM     19  O   UNL     1       3.243   3.634  17.939  0.00  0.00    +0.000 OA
ATOM     20  H   UNL     1       3.480   4.513  20.976  0.00  0.00    +0.000 HD
BRANCH  17  22
ATOM     21  C   UNL     1       1.966   2.566  21.861  0.00  0.00    +0.000 C 
ATOM     22  C   UNL     1       2.029   3.015  20.387  0.00  0.00    +0.000 C 
ATOM     23  C   UNL     1       2.281   1.793  19.479  0.00  0.00    +0.000 C 
ATOM     24  C   UNL     1       0.635   3.569  20.029  0.00  0.00    +0.000 C 
ENDBRANCH  17  22
ENDBRANCH   1  18
BRANCH   1  25
ATOM     25  N   UNL     1       3.855   6.690  18.243  0.00  0.00    +0.000 N 
ATOM     26  C   UNL     1       4.355   7.359  17.121  0.00  0.00    +0.000 C 
ATOM     27  O   UNL     1       3.767   8.193  16.444  0.00  0.00    +0.000 OA
BRANCH  25  28
ATOM     28  C   UNL     1       2.404   6.682  18.447  0.00  0.00    +0.000 C 
BRANCH  28  29
ATOM     29  C   UNL     1       1.793   7.679  19.412  0.00  0.00    +0.000 A 
ATOM     30  C   UNL     1       1.688   7.497  20.799  0.00  0.00    +0.000 A 
ATOM     31  C   UNL     1       1.270   8.545  21.628  0.00  0.00    +0.000 A 
ATOM     32  C   UNL     1       0.893   9.762  21.070  0.00  0.00    +0.000 A 
ATOM     33  F   UNL     1       0.527  10.769  21.875  0.00  0.00    +0.000 F 
ATOM     34  C   UNL     1       0.900   9.932  19.695  0.00  0.00    +0.000 A 
ATOM     35  F   UNL     1       0.500  11.093  19.156  0.00  0.00    +0.000 F 
ATOM     36  C   UNL     1       1.346   8.900  18.878  0.00  0.00    +0.000 A 
ATOM     37  F   UNL     1       1.371   9.083  17.548  0.00  0.00    +0.000 F 
ENDBRANCH  28  29
ENDBRANCH  25  28
ENDBRANCH   1  25
TORSDOF 8
ENDMDL
MODEL 5
REMARK VINA RESULT:      -8.3      0.917      1.534
REMARK  Name = 
REMARK  11 active torsions:
REMARK  status: ('A' for Active; 'I' for Inactive)
REMARK    1  A    between atoms: C_1  and  C_2
REMARK    2  A    between atoms: C_2  and  C_3
REMARK    3  A    between atoms: C_2  and  C_4
REMARK    4  A    between atoms: C_2  and  N_5
REMARK    5  A    between atoms: C_6  and  C_8
REMARK    6  A    between atoms: C_8  and  C_9
REMARK    7  A    between atoms: C_8  and  N_22
REMARK    8  A    between atoms: CA_10  and  C_11
REMARK    9  A    between atoms: C_11  and  OXT_13
REMARK   10  A    between atoms: N_22  and  C_25
REMARK   11  A    between atoms: C_25  and  C_26
REMARK                            x       y       z     vdW  Elec       q    Type
REMARK                         _______ _______ _______ _____ _____    ______ ____
ROOT
ATOM      1  C   UNL     1       4.540   5.299  18.480  0.00  0.00    +0.000 C 
ENDROOT
BRANCH   1   2
ATOM      2  C   UNL     1       5.731   5.192  17.517  0.00  0.00    +0.000 A 
ATOM      3  CA  UNL     1       7.052   5.522  17.847  0.00  0.00    +0.000 A 
ATOM      4  N   UNL     1       7.821   5.338  16.724  0.00  0.00    +0.000 N 
ATOM      5  C   UNL     1       7.056   4.903  15.676  0.00  0.00    +0.000 A 
ATOM      6  C   UNL     1       7.439   4.591  14.362  0.00  0.00    +0.000 A 
ATOM      7  C   UNL     1       6.449   4.142  13.489  0.00  0.00    +0.000 A 
ATOM      8 CL   UNL     1       6.871   3.723  11.874  0.00  0.00    +0.000 Cl
ATOM      9  C   UNL     1       5.129   4.028  13.902  0.00  0.00    +0.000 A 
ATOM     10  C   UNL     1       4.769   4.366  15.210  0.00  0.00    +0.000 A 
ATOM     11  C   UNL     1       5.742   4.798  16.134  0.00  0.00    +0.000 A 
ATOM     12  H   UNL     1       8.826   5.451  16.680  0.00  0.00    +0.000 HD
BRANCH   3  13
ATOM     13  C   UNL     1       7.581   5.923  19.134  0.00  0.00    +0.000 C 
ATOM     14  O   UNL     1       7.387   5.341  20.181  0.00  0.00    +0.000 OA
BRANCH  13  15
ATOM     15  OXT UNL     1       8.364   7.022  19.046  0.00  0.00    +0.000 OA
ATOM     16  HXT UNL     1       8.574   7.301  18.137  0.00  0.00    +0.000 HD
ENDBRANCH  13  15
ENDBRANCH   3  13
ENDBRANCH   1   2
BRANCH   1  18
ATOM     17  N   UNL     1       3.071   3.987  20.108  0.00  0.00    +0.000 N 
ATOM     18  C   UNL     1       4.020   3.955  19.094  0.00  0.00    +0.000 C 
ATOM     19  O   UNL     1       4.453   2.876  18.685  0.00  0.00    +0.000 OA
ATOM     20  H   UNL     1       2.831   4.871  20.540  0.00  0.00    +0.000 HD
BRANCH  17  22
ATOM     21  C   UNL     1       3.516   1.848  21.347  0.00  0.00    +0.000 C 
ATOM     22  C   UNL     1       2.464   2.739  20.654  0.00  0.00    +0.000 C 
ATOM     23  C   UNL     1       1.766   1.945  19.530  0.00  0.00    +0.000 C 
ATOM     24  C   UNL     1       1.392   3.069  21.712  0.00  0.00    +0.000 C 
ENDBRANCH  17  22
ENDBRANCH   1  18
BRANCH   1  25
ATOM     25  N   UNL     1       3.409   5.938  17.742  0.00  0.00    +0.000 N 
ATOM     26  C   UNL     1       2.162   5.310  17.816  0.00  0.00    +0.000 C 
ATOM     27  O   UNL     1       1.082   5.789  17.496  0.00  0.00    +0.000 OA
BRANCH  25  28
ATOM     28  C   UNL     1       3.437   7.398  17.622  0.00  0.00    +0.000 C 
BRANCH  28  29
ATOM     29  C   UNL     1       2.395   8.216  18.361  0.00  0.00    +0.000 A 
ATOM     30  C   UNL     1       1.584   9.201  17.778  0.00  0.00    +0.000 A 
ATOM     31  C   UNL     1       0.530   9.777  18.498  0.00  0.00    +0.000 A 
ATOM     32  C   UNL     1       0.321   9.420  19.826  0.00  0.00    +0.000 A 
ATOM     33  F   UNL     1      -0.710   9.953  20.496  0.00  0.00    +0.000 F 
ATOM     34  C   UNL     1       1.169   8.519  20.448  0.00  0.00    +0.000 A 
ATOM     35  F   UNL     1       0.990   8.204  21.740  0.00  0.00    +0.000 F 
ATOM     36  C   UNL     1       2.194   7.925  19.720  0.00  0.00    +0.000 A 
ATOM     37  F   UNL     1       2.996   7.035  20.326  0.00  0.00    +0.000 F 
ENDBRANCH  28  29
ENDBRANCH  25  28
ENDBRANCH   1  25
TORSDOF 8
ENDMDL
MODEL 6
REMARK VINA RESULT:      -8.2      5.938     10.236
REMARK  Name = 
REMARK  11 active torsions:
REMARK  status: ('A' for Active; 'I' for Inactive)
REMARK    1  A    between atoms: C_1  and  C_2
REMARK    2  A    between atoms: C_2  and  C_3
REMARK    3  A    between atoms: C_2  and  C_4
REMARK    4  A    between atoms: C_2  and  N_5
REMARK    5  A    between atoms: C_6  and  C_8
REMARK    6  A    between atoms: C_8  and  C_9
REMARK    7  A    between atoms: C_8  and  N_22
REMARK    8  A    between atoms: CA_10  and  C_11
REMARK    9  A    between atoms: C_11  and  OXT_13
REMARK   10  A    between atoms: N_22  and  C_25
REMARK   11  A    between atoms: C_25  and  C_26
REMARK                            x       y       z     vdW  Elec       q    Type
REMARK                         _______ _______ _______ _____ _____    ______ ____
ROOT
ATOM      1  C   UNL     1       0.694  11.426  20.700  0.00  0.00    +0.000 C 
ENDROOT
BRANCH   1   2
ATOM      2  C   UNL     1      -0.473  11.701  21.660  0.00  0.00    +0.000 A 
ATOM      3  CA  UNL     1      -0.859  10.853  22.705  0.00  0.00    +0.000 A 
ATOM      4  N   UNL     1      -1.960  11.409  23.309  0.00  0.00    +0.000 N 
ATOM      5  C   UNL     1      -2.308  12.584  22.700  0.00  0.00    +0.000 A 
ATOM      6  C   UNL     1      -3.357  13.467  23.000  0.00  0.00    +0.000 A 
ATOM      7  C   UNL     1      -3.473  14.620  22.224  0.00  0.00    +0.000 A 
ATOM      8 CL   UNL     1      -4.727  15.748  22.567  0.00  0.00    +0.000 Cl
ATOM      9  C   UNL     1      -2.595  14.872  21.180  0.00  0.00    +0.000 A 
ATOM     10  C   UNL     1      -1.571  13.965  20.887  0.00  0.00    +0.000 A 
ATOM     11  C   UNL     1      -1.399  12.801  21.663  0.00  0.00    +0.000 A 
ATOM     12  H   UNL     1      -2.425  11.040  24.128  0.00  0.00    +0.000 HD
BRANCH   3  13
ATOM     13  C   UNL     1      -0.216   9.637  23.157  0.00  0.00    +0.000 C 
ATOM     14  O   UNL     1       0.830   9.586  23.770  0.00  0.00    +0.000 OA
BRANCH  13  15
ATOM     15  OXT UNL     1      -0.933   8.533  22.849  0.00  0.00    +0.000 OA
ATOM     16  HXT UNL     1      -0.403   7.776  22.541  0.00  0.00    +0.000 HD
ENDBRANCH  13  15
ENDBRANCH   3  13
ENDBRANCH   1   2
BRANCH   1  18
ATOM     17  N   UNL     1       2.259  13.437  20.510  0.00  0.00    +0.000 N 
ATOM     18  C   UNL     1       1.263  12.664  19.926  0.00  0.00    +0.000 C 
ATOM     19  O   UNL     1       0.828  12.954  18.811  0.00  0.00    +0.000 OA
ATOM     20  H   UNL     1       2.506  13.285  21.480  0.00  0.00    +0.000 HD
BRANCH  17  22
ATOM     21  C   UNL     1       1.940  15.741  19.561  0.00  0.00    +0.000 C 
ATOM     22  C   UNL     1       2.910  14.561  19.776  0.00  0.00    +0.000 C 
ATOM     23  C   UNL     1       3.449  14.072  18.415  0.00  0.00    +0.000 C 
ATOM     24  C   UNL     1       4.112  15.110  20.571  0.00  0.00    +0.000 C 
ENDBRANCH  17  22
ENDBRANCH   1  18
BRANCH   1  25
ATOM     25  N   UNL     1       0.234  10.424  19.693  0.00  0.00    +0.000 N 
ATOM     26  C   UNL     1      -1.032  10.617  19.131  0.00  0.00    +0.000 C 
ATOM     27  O   UNL     1      -1.484  10.065  18.136  0.00  0.00    +0.000 OA
BRANCH  25  28
ATOM     28  C   UNL     1       1.265   9.797  18.862  0.00  0.00    +0.000 C 
BRANCH  28  29
ATOM     29  C   UNL     1       1.768   8.415  19.231  0.00  0.00    +0.000 A 
ATOM     30  C   UNL     1       1.543   7.779  20.461  0.00  0.00    +0.000 A 
ATOM     31  C   UNL     1       1.894   6.436  20.646  0.00  0.00    +0.000 A 
ATOM     32  C   UNL     1       2.531   5.739  19.625  0.00  0.00    +0.000 A 
ATOM     33  F   UNL     1       2.833   4.446  19.800  0.00  0.00    +0.000 F 
ATOM     34  C   UNL     1       2.847   6.376  18.436  0.00  0.00    +0.000 A 
ATOM     35  F   UNL     1       3.496   5.715  17.466  0.00  0.00    +0.000 F 
ATOM     36  C   UNL     1       2.467   7.700  18.245  0.00  0.00    +0.000 A 
ATOM     37  F   UNL     1       2.758   8.302  17.080  0.00  0.00    +0.000 F 
ENDBRANCH  28  29
ENDBRANCH  25  28
ENDBRANCH   1  25
TORSDOF 8
ENDMDL
MODEL 7
REMARK VINA RESULT:      -8.1      7.238     10.634
REMARK  Name = 
REMARK  11 active torsions:
REMARK  status: ('A' for Active; 'I' for Inactive)
REMARK    1  A    between atoms: C_1  and  C_2
REMARK    2  A    between atoms: C_2  and  C_3
REMARK    3  A    between atoms: C_2  and  C_4
REMARK    4  A    between atoms: C_2  and  N_5
REMARK    5  A    between atoms: C_6  and  C_8
REMARK    6  A    between atoms: C_8  and  C_9
REMARK    7  A    between atoms: C_8  and  N_22
REMARK    8  A    between atoms: CA_10  and  C_11
REMARK    9  A    between atoms: C_11  and  OXT_13
REMARK   10  A    between atoms: N_22  and  C_25
REMARK   11  A    between atoms: C_25  and  C_26
REMARK                            x       y       z     vdW  Elec       q    Type
REMARK                         _______ _______ _______ _____ _____    ______ ____
ROOT
ATOM      1  C   UNL     1       0.654  11.854  20.359  0.00  0.00    +0.000 C 
ENDROOT
BRANCH   1   2
ATOM      2  C   UNL     1      -0.352  11.673  21.506  0.00  0.00    +0.000 A 
ATOM      3  CA  UNL     1      -0.400  10.556  22.350  0.00  0.00    +0.000 A 
ATOM      4  N   UNL     1      -1.451  10.735  23.217  0.00  0.00    +0.000 N 
ATOM      5  C   UNL     1      -2.089  11.920  22.972  0.00  0.00    +0.000 A 
ATOM      6  C   UNL     1      -3.196  12.487  23.621  0.00  0.00    +0.000 A 
ATOM      7  C   UNL     1      -3.636  13.735  23.179  0.00  0.00    +0.000 A 
ATOM      8 CL   UNL     1      -4.975  14.485  23.958  0.00  0.00    +0.000 Cl
ATOM      9  C   UNL     1      -3.012  14.380  22.121  0.00  0.00    +0.000 A 
ATOM     10  C   UNL     1      -1.923  13.784  21.476  0.00  0.00    +0.000 A 
ATOM     11  C   UNL     1      -1.428  12.537  21.908  0.00  0.00    +0.000 A 
ATOM     12  H   UNL     1      -1.695  10.109  23.974  0.00  0.00    +0.000 HD
BRANCH   3  13
ATOM     13  C   UNL     1       0.503   9.425  22.395  0.00  0.00    +0.000 C 
ATOM     14  O   UNL     1       0.407   8.428  21.711  0.00  0.00    +0.000 OA
BRANCH  13  15
ATOM     15  OXT UNL     1       1.512   9.609  23.276  0.00  0.00    +0.000 OA
ATOM     16  HXT UNL     1       1.602   8.906  23.944  0.00  0.00    +0.000 HD
ENDBRANCH  13  15
ENDBRANCH   3  13
ENDBRANCH   1   2
BRANCH   1  18
ATOM     17  N   UNL     1       1.445  14.284  20.364  0.00  0.00    +0.000 N 
ATOM     18  C   UNL     1       0.728  13.283  19.720  0.00  0.00    +0.000 C 
ATOM     19  O   UNL     1       0.151  13.520  18.658  0.00  0.00    +0.000 OA
ATOM     20  H   UNL     1       1.789  14.127  21.304  0.00  0.00    +0.000 HD
BRANCH  17  22
ATOM     21  C   UNL     1       0.290  16.332  19.480  0.00  0.00    +0.000 C 
ATOM     22  C   UNL     1       1.636  15.630  19.750  0.00  0.00    +0.000 C 
ATOM     23  C   UNL     1       2.436  15.510  18.436  0.00  0.00    +0.000 C 
ATOM     24  C   UNL     1       2.441  16.550  20.690  0.00  0.00    +0.000 C 
ENDBRANCH  17  22
ENDBRANCH   1  18
BRANCH   1  25
ATOM     25  N   UNL     1       0.299  10.884  19.281  0.00  0.00    +0.000 N 
ATOM     26  C   UNL     1       1.315  10.039  18.822  0.00  0.00    +0.000 C 
ATOM     27  O   UNL     1       1.177   9.034  18.137  0.00  0.00    +0.000 OA
BRANCH  25  28
ATOM     28  C   UNL     1      -1.074  10.372  19.275  0.00  0.00    +0.000 C 
BRANCH  28  29
ATOM     29  C   UNL     1      -1.895  10.484  18.005  0.00  0.00    +0.000 A 
ATOM     30  C   UNL     1      -1.677   9.738  16.837  0.00  0.00    +0.000 A 
ATOM     31  C   UNL     1      -2.593   9.782  15.780  0.00  0.00    +0.000 A 
ATOM     32  C   UNL     1      -3.699  10.622  15.855  0.00  0.00    +0.000 A 
ATOM     33  F   UNL     1      -4.587  10.632  14.851  0.00  0.00    +0.000 F 
ATOM     34  C   UNL     1      -3.883  11.437  16.960  0.00  0.00    +0.000 A 
ATOM     35  F   UNL     1      -4.929  12.275  17.015  0.00  0.00    +0.000 F 
ATOM     36  C   UNL     1      -2.989  11.366  18.022  0.00  0.00    +0.000 A 
ATOM     37  F   UNL     1      -3.188  12.144  19.098  0.00  0.00    +0.000 F 
ENDBRANCH  28  29
ENDBRANCH  25  28
ENDBRANCH   1  25
TORSDOF 8
ENDMDL
MODEL 8
REMARK VINA RESULT:      -8.1      0.812      1.067
REMARK  Name = 
REMARK  11 active torsions:
REMARK  status: ('A' for Active; 'I' for Inactive)
REMARK    1  A    between atoms: C_1  and  C_2
REMARK    2  A    between atoms: C_2  and  C_3
REMARK    3  A    between atoms: C_2  and  C_4
REMARK    4  A    between atoms: C_2  and  N_5
REMARK    5  A    between atoms: C_6  and  C_8
REMARK    6  A    between atoms: C_8  and  C_9
REMARK    7  A    between atoms: C_8  and  N_22
REMARK    8  A    between atoms: CA_10  and  C_11
REMARK    9  A    between atoms: C_11  and  OXT_13
REMARK   10  A    between atoms: N_22  and  C_25
REMARK   11  A    between atoms: C_25  and  C_26
REMARK                            x       y       z     vdW  Elec       q    Type
REMARK                         _______ _______ _______ _____ _____    ______ ____
ROOT
ATOM      1  C   UNL     1       4.589   5.604  18.628  0.00  0.00    +0.000 C 
ENDROOT
BRANCH   1   2
ATOM      2  C   UNL     1       5.744   5.384  17.640  0.00  0.00    +0.000 A 
ATOM      3  CA  UNL     1       7.091   5.642  17.924  0.00  0.00    +0.000 A 
ATOM      4  N   UNL     1       7.816   5.367  16.789  0.00  0.00    +0.000 N 
ATOM      5  C   UNL     1       6.996   4.943  15.778  0.00  0.00    +0.000 A 
ATOM      6  C   UNL     1       7.322   4.559  14.469  0.00  0.00    +0.000 A 
ATOM      7  C   UNL     1       6.281   4.141  13.640  0.00  0.00    +0.000 A 
ATOM      8 CL   UNL     1       6.631   3.635  12.033  0.00  0.00    +0.000 Cl
ATOM      9  C   UNL     1       4.969   4.127  14.090  0.00  0.00    +0.000 A 
ATOM     10  C   UNL     1       4.667   4.536  15.393  0.00  0.00    +0.000 A 
ATOM     11  C   UNL     1       5.691   4.939  16.275  0.00  0.00    +0.000 A 
ATOM     12  H   UNL     1       8.824   5.415  16.715  0.00  0.00    +0.000 HD
BRANCH   3  13
ATOM     13  C   UNL     1       7.680   6.056  19.179  0.00  0.00    +0.000 C 
ATOM     14  O   UNL     1       7.543   5.481  20.239  0.00  0.00    +0.000 OA
BRANCH  13  15
ATOM     15  OXT UNL     1       8.449   7.160  19.045  0.00  0.00    +0.000 OA
ATOM     16  HXT UNL     1       9.151   7.089  18.373  0.00  0.00    +0.000 HD
ENDBRANCH  13  15
ENDBRANCH   3  13
ENDBRANCH   1   2
BRANCH   1  18
ATOM     17  N   UNL     1       4.276   3.079  18.869  0.00  0.00    +0.000 N 
ATOM     18  C   UNL     1       4.105   4.342  19.422  0.00  0.00    +0.000 C 
ATOM     19  O   UNL     1       3.571   4.468  20.525  0.00  0.00    +0.000 OA
ATOM     20  H   UNL     1       4.576   2.991  17.906  0.00  0.00    +0.000 HD
BRANCH  17  22
ATOM     21  C   UNL     1       2.475   1.865  20.130  0.00  0.00    +0.000 C 
ATOM     22  C   UNL     1       3.931   1.840  19.624  0.00  0.00    +0.000 C 
ATOM     23  C   UNL     1       4.895   1.652  20.815  0.00  0.00    +0.000 C 
ATOM     24  C   UNL     1       4.070   0.595  18.725  0.00  0.00    +0.000 C 
ENDBRANCH  17  22
ENDBRANCH   1  18
BRANCH   1  25
ATOM     25  N   UNL     1       3.425   6.142  17.862  0.00  0.00    +0.000 N 
ATOM     26  C   UNL     1       2.314   5.306  17.716  0.00  0.00    +0.000 C 
ATOM     27  O   UNL     1       1.194   5.634  17.346  0.00  0.00    +0.000 OA
BRANCH  25  28
ATOM     28  C   UNL     1       3.191   7.587  17.941  0.00  0.00    +0.000 C 
BRANCH  28  29
ATOM     29  C   UNL     1       2.182   8.114  18.942  0.00  0.00    +0.000 A 
ATOM     30  C   UNL     1       1.963   7.581  20.221  0.00  0.00    +0.000 A 
ATOM     31  C   UNL     1       1.138   8.242  21.139  0.00  0.00    +0.000 A 
ATOM     32  C   UNL     1       0.475   9.406  20.763  0.00  0.00    +0.000 A 
ATOM     33  F   UNL     1      -0.286  10.048  21.660  0.00  0.00    +0.000 F 
ATOM     34  C   UNL     1       0.604   9.897  19.474  0.00  0.00    +0.000 A 
ATOM     35  F   UNL     1      -0.066  10.998  19.101  0.00  0.00    +0.000 F 
ATOM     36  C   UNL     1       1.450   9.256  18.576  0.00  0.00    +0.000 A 
ATOM     37  F   UNL     1       1.585   9.753  17.337  0.00  0.00    +0.000 F 
ENDBRANCH  28  29
ENDBRANCH  25  28
ENDBRANCH   1  25
TORSDOF 8
ENDMDL
MODEL 9
REMARK VINA RESULT:      -8.1      6.828     10.975
REMARK  Name = 
REMARK  11 active torsions:
REMARK  status: ('A' for Active; 'I' for Inactive)
REMARK    1  A    between atoms: C_1  and  C_2
REMARK    2  A    between atoms: C_2  and  C_3
REMARK    3  A    between atoms: C_2  and  C_4
REMARK    4  A    between atoms: C_2  and  N_5
REMARK    5  A    between atoms: C_6  and  C_8
REMARK    6  A    between atoms: C_8  and  C_9
REMARK    7  A    between atoms: C_8  and  N_22
REMARK    8  A    between atoms: CA_10  and  C_11
REMARK    9  A    between atoms: C_11  and  OXT_13
REMARK   10  A    between atoms: N_22  and  C_25
REMARK   11  A    between atoms: C_25  and  C_26
REMARK                            x       y       z     vdW  Elec       q    Type
REMARK                         _______ _______ _______ _____ _____    ______ ____
ROOT
ATOM      1  C   UNL     1      -0.589  13.303  19.007  0.00  0.00    +0.000 C 
ENDROOT
BRANCH   1   2
ATOM      2  C   UNL     1      -0.896  14.404  20.034  0.00  0.00    +0.000 A 
ATOM      3  CA  UNL     1      -0.657  15.769  19.829  0.00  0.00    +0.000 A 
ATOM      4  N   UNL     1      -1.016  16.431  20.979  0.00  0.00    +0.000 N 
ATOM      5  C   UNL     1      -1.478  15.554  21.922  0.00  0.00    +0.000 A 
ATOM      6  C   UNL     1      -1.946  15.808  23.220  0.00  0.00    +0.000 A 
ATOM      7  C   UNL     1      -2.385  14.718  23.973  0.00  0.00    +0.000 A 
ATOM      8 CL   UNL     1      -2.993  14.978  25.562  0.00  0.00    +0.000 Cl
ATOM      9  C   UNL     1      -2.339  13.430  23.462  0.00  0.00    +0.000 A 
ATOM     10  C   UNL     1      -1.846  13.201  22.173  0.00  0.00    +0.000 A 
ATOM     11  C   UNL     1      -1.419  14.275  21.366  0.00  0.00    +0.000 A 
ATOM     12  H   UNL     1      -0.999  17.436  21.102  0.00  0.00    +0.000 HD
BRANCH   3  13
ATOM     13  C   UNL     1      -0.185  16.428  18.630  0.00  0.00    +0.000 C 
ATOM     14  O   UNL     1      -0.871  17.092  17.881  0.00  0.00    +0.000 OA
BRANCH  13  15
ATOM     15  OXT UNL     1       1.142  16.253  18.438  0.00  0.00    +0.000 OA
ATOM     16  HXT UNL     1       1.692  16.415  19.225  0.00  0.00    +0.000 HD
ENDBRANCH  13  15
ENDBRANCH   3  13
ENDBRANCH   1   2
BRANCH   1  18
ATOM     17  N   UNL     1      -1.860  11.948  17.254  0.00  0.00    +0.000 N 
ATOM     18  C   UNL     1      -1.799  12.414  18.561  0.00  0.00    +0.000 C 
ATOM     19  O   UNL     1      -2.694  12.135  19.360  0.00  0.00    +0.000 OA
ATOM     20  H   UNL     1      -1.206  12.300  16.565  0.00  0.00    +0.000 HD
BRANCH  17  22
ATOM     21  C   UNL     1      -2.953   9.720  17.644  0.00  0.00    +0.000 C 
ATOM     22  C   UNL     1      -2.932  11.013  16.804  0.00  0.00    +0.000 C 
ATOM     23  C   UNL     1      -2.748  10.663  15.312  0.00  0.00    +0.000 C 
ATOM     24  C   UNL     1      -4.323  11.663  16.950  0.00  0.00    +0.000 C 
ENDBRANCH  17  22
ENDBRANCH   1  18
BRANCH   1  25
ATOM     25  N   UNL     1       0.452  12.407  19.593  0.00  0.00    +0.000 N 
ATOM     26  C   UNL     1       1.472  13.011  20.335  0.00  0.00    +0.000 C 
ATOM     27  O   UNL     1       2.262  12.452  21.084  0.00  0.00    +0.000 OA
BRANCH  25  28
ATOM     28  C   UNL     1       0.024  11.061  19.984  0.00  0.00    +0.000 C 
BRANCH  28  29
ATOM     29  C   UNL     1       0.761   9.862  19.420  0.00  0.00    +0.000 A 
ATOM     30  C   UNL     1       1.219   9.748  18.099  0.00  0.00    +0.000 A 
ATOM     31  C   UNL     1       2.042   8.682  17.718  0.00  0.00    +0.000 A 
ATOM     32  C   UNL     1       2.361   7.688  18.638  0.00  0.00    +0.000 A 
ATOM     33  F   UNL     1       3.177   6.690  18.272  0.00  0.00    +0.000 F 
ATOM     34  C   UNL     1       1.843   7.734  19.922  0.00  0.00    +0.000 A 
ATOM     35  F   UNL     1       2.120   6.756  20.797  0.00  0.00    +0.000 F 
ATOM     36  C   UNL     1       1.052   8.811  20.305  0.00  0.00    +0.000 A 
ATOM     37  F   UNL     1       0.573   8.857  21.559  0.00  0.00    +0.000 F 
ENDBRANCH  28  29
ENDBRANCH  25  28
ENDBRANCH   1  25
TORSDOF 8
ENDMDL
