MODEL 1
REMARK VINA RESULT:      -8.2      0.000      0.000
REMARK  Name = 
REMARK  9 active torsions:
REMARK  status: ('A' for Active; 'I' for Inactive)
REMARK    1  A    between atoms: C_1  and  O_2
REMARK    2  A    between atoms: O_2  and  C_3
REMARK    3  A    between atoms: C_6  and  C_7
REMARK    4  A    between atoms: C_10  and  N_11
REMARK    5  A    between atoms: N_11  and  C_12
REMARK    6  A    between atoms: N_16  and  O_17
REMARK    7  A    between atoms: N_20  and  C_21
REMARK    8  A    between atoms: C_24  and  O_25
REMARK    9  A    between atoms: O_25  and  C_26
REMARK                            x       y       z     vdW  Elec       q    Type
REMARK                         _______ _______ _______ _____ _____    ______ ____
ROOT
ATOM      1  C   UNL     1       0.801   9.599  19.500  0.00  0.00    +0.000 A 
ATOM      2  C   UNL     1       1.298   9.683  18.180  0.00  0.00    +0.000 A 
ATOM      3  C   UNL     1       2.188   8.744  17.638  0.00  0.00    +0.000 A 
ATOM      4  C   UNL     1       2.641   7.669  18.397  0.00  0.00    +0.000 A 
ATOM      5  C   UNL     1       2.195   7.566  19.706  0.00  0.00    +0.000 A 
ATOM      6  C   UNL     1       1.310   8.514  20.240  0.00  0.00    +0.000 A 
ENDROOT
BRANCH   1  10
ATOM      7  C   UNL     1      -2.235  12.447  20.898  0.00  0.00    +0.000 A 
ATOM      8  C   UNL     1      -2.130  12.091  19.565  0.00  0.00    +0.000 A 
ATOM      9  C   UNL     1      -1.143  11.191  19.147  0.00  0.00    +0.000 A 
ATOM     10  C   UNL     1      -0.217  10.590  20.034  0.00  0.00    +0.000 A 
ATOM     11  C   UNL     1      -0.353  10.971  21.401  0.00  0.00    +0.000 A 
ATOM     12  C   UNL     1      -1.342  11.892  21.810  0.00  0.00    +0.000 A 
BRANCH   7  14
ATOM     13  C   UNL     1      -4.574  12.848  21.031  0.00  0.00    +0.000 C 
ATOM     14  O   UNL     1      -3.242  13.323  21.184  0.00  0.00    +0.000 OA
ENDBRANCH   7  14
BRANCH  11  15
ATOM     15  O   UNL     1       0.503  10.407  22.310  0.00  0.00    +0.000 OA
ATOM     16  C   UNL     1       0.005   9.615  23.376  0.00  0.00    +0.000 C 
ENDBRANCH  11  15
ENDBRANCH   1  10
BRANCH   4  17
ATOM     17  N   UNL     1       3.455   6.638  17.873  0.00  0.00    +0.000 N 
ATOM     18  H   UNL     1       4.425   6.927  17.964  0.00  0.00    +0.000 HD
BRANCH  17  19
ATOM     19  C   UNL     1       3.267   5.300  18.197  0.00  0.00    +0.000 A 
ATOM     20  C   UNL     1       2.093   4.731  17.871  0.00  0.00    +0.000 A 
ATOM     21  C   UNL     1       1.829   3.323  18.155  0.00  0.00    +0.000 A 
ATOM     22  O   UNL     1       0.718   2.833  17.964  0.00  0.00    +0.000 OA
ATOM     23  N   UNL     1       2.896   2.625  18.649  0.00  0.00    +0.000 N 
ATOM     24  C   UNL     1       4.095   3.162  19.083  0.00  0.00    +0.000 A 
ATOM     25  O   UNL     1       4.955   2.499  19.661  0.00  0.00    +0.000 OA
ATOM     26  N   UNL     1       4.248   4.536  18.826  0.00  0.00    +0.000 N 
ATOM     27  C   UNL     1       5.470   5.175  19.307  0.00  0.00    +0.000 C 
BRANCH  23  28
ATOM     28  O   UNL     1       2.654   1.261  18.939  0.00  0.00    +0.000 OA
ATOM     29  H   UNL     1       3.477   1.006  19.405  0.00  0.00    +0.000 HD
ENDBRANCH  23  28
ENDBRANCH  17  19
ENDBRANCH   4  17
TORSDOF 6
ENDMDL
MODEL 2
REMARK VINA RESULT:      -8.1      2.245      3.027
REMARK  Name = 
REMARK  9 active torsions:
REMARK  status: ('A' for Active; 'I' for Inactive)
REMARK    1  A    between atoms: C_1  and  O_2
REMARK    2  A    between atoms: O_2  and  C_3
REMARK    3  A    between atoms: C_6  and  C_7
REMARK    4  A    between atoms: C_10  and  N_11
REMARK    5  A    between atoms: N_11  and  C_12
REMARK    6  A    between atoms: N_16  and  O_17
REMARK    7  A    between atoms: N_20  and  C_21
REMARK    8  A    between atoms: C_24  and  O_25
REMARK    9  A    between atoms: O_25  and  C_26
REMARK                            x       y       z     vdW  Elec       q    Type
REMARK                         _______ _______ _______ _____ _____    ______ ____
ROOT
ATOM      1  C   UNL     1       0.940   9.880  19.671  0.00  0.00    +0.000 A 
ATOM      2  C   UNL     1       0.680   9.303  20.934  0.00  0.00    +0.000 A 
ATOM      3  C   UNL     1       1.132   8.026  21.298  0.00  0.00    +0.000 A 
ATOM      4  C   UNL     1       1.863   7.246  20.406  0.00  0.00    +0.000 A 
ATOM      5  C   UNL     1       2.117   7.768  19.146  0.00  0.00    +0.000 A 
ATOM      6  C   UNL     1       1.655   9.043  18.791  0.00  0.00    +0.000 A 
ENDROOT
BRANCH   1  10
ATOM      7  C   UNL     1      -0.166  14.018  18.708  0.00  0.00    +0.000 A 
ATOM      8  C   UNL     1       1.043  13.709  19.304  0.00  0.00    +0.000 A 
ATOM      9  C   UNL     1       1.362  12.381  19.613  0.00  0.00    +0.000 A 
ATOM     10  C   UNL     1       0.500  11.292  19.333  0.00  0.00    +0.000 A 
ATOM     11  C   UNL     1      -0.735  11.642  18.713  0.00  0.00    +0.000 A 
ATOM     12  C   UNL     1      -1.054  12.986  18.421  0.00  0.00    +0.000 A 
BRANCH   7  14
ATOM     13  C   UNL     1       0.722  16.223  18.737  0.00  0.00    +0.000 C 
ATOM     14  O   UNL     1      -0.359  15.345  18.447  0.00  0.00    +0.000 OA
ENDBRANCH   7  14
BRANCH  11  15
ATOM     15  O   UNL     1      -1.602  10.628  18.400  0.00  0.00    +0.000 OA
ATOM     16  C   UNL     1      -2.116  10.498  17.085  0.00  0.00    +0.000 C 
ENDBRANCH  11  15
ENDBRANCH   1  10
BRANCH   4  17
ATOM     17  N   UNL     1       2.430   5.998  20.752  0.00  0.00    +0.000 N 
ATOM     18  H   UNL     1       2.119   5.762  21.691  0.00  0.00    +0.000 HD
BRANCH  17  19
ATOM     19  C   UNL     1       2.410   4.904  19.895  0.00  0.00    +0.000 A 
ATOM     20  C   UNL     1       1.278   4.182  19.823  0.00  0.00    +0.000 A 
ATOM     21  C   UNL     1       1.169   3.033  18.927  0.00  0.00    +0.000 A 
ATOM     22  O   UNL     1       0.179   2.304  18.944  0.00  0.00    +0.000 OA
ATOM     23  N   UNL     1       2.242   2.842  18.102  0.00  0.00    +0.000 N 
ATOM     24  C   UNL     1       3.462   3.489  18.183  0.00  0.00    +0.000 A 
ATOM     25  O   UNL     1       4.440   3.163  17.510  0.00  0.00    +0.000 OA
ATOM     26  N   UNL     1       3.504   4.546  19.111  0.00  0.00    +0.000 N 
ATOM     27  C   UNL     1       4.779   5.236  19.282  0.00  0.00    +0.000 C 
BRANCH  23  28
ATOM     28  O   UNL     1       2.157   1.727  17.235  0.00  0.00    +0.000 OA
ATOM     29  H   UNL     1       2.368   2.130  16.368  0.00  0.00    +0.000 HD
ENDBRANCH  23  28
ENDBRANCH  17  19
ENDBRANCH   4  17
TORSDOF 6
ENDMDL
MODEL 3
REMARK VINA RESULT:      -8.0      1.173      1.871
REMARK  Name = 
REMARK  9 active torsions:
REMARK  status: ('A' for Active; 'I' for Inactive)
REMARK    1  A    between atoms: C_1  and  O_2
REMARK    2  A    between atoms: O_2  and  C_3
REMARK    3  A    between atoms: C_6  and  C_7
REMARK    4  A    between atoms: C_10  and  N_11
REMARK    5  A    between atoms: N_11  and  C_12
REMARK    6  A    between atoms: N_16  and  O_17
REMARK    7  A    between atoms: N_20  and  C_21
REMARK    8  A    between atoms: C_24  and  O_25
REMARK    9  A    between atoms: O_25  and  C_26
REMARK                            x       y       z     vdW  Elec       q    Type
REMARK                         _______ _______ _______ _____ _____    ______ ____
ROOT
ATOM      1  C   UNL     1       0.872   9.349  20.192  0.00  0.00    +0.000 A 
ATOM      2  C   UNL     1       1.150   9.554  18.823  0.00  0.00    +0.000 A 
ATOM      3  C   UNL     1       1.910   8.658  18.055  0.00  0.00    +0.000 A 
ATOM      4  C   UNL     1       2.447   7.508  18.625  0.00  0.00    +0.000 A 
ATOM      5  C   UNL     1       2.217   7.285  19.975  0.00  0.00    +0.000 A 
ATOM      6  C   UNL     1       1.462   8.190  20.734  0.00  0.00    +0.000 A 
ENDROOT
BRANCH   1  10
ATOM      7  C   UNL     1      -1.643  12.015  22.611  0.00  0.00    +0.000 A 
ATOM      8  C   UNL     1      -1.166  10.815  23.108  0.00  0.00    +0.000 A 
ATOM      9  C   UNL     1      -0.378   9.980  22.308  0.00  0.00    +0.000 A 
ATOM     10  C   UNL     1      -0.014  10.299  20.977  0.00  0.00    +0.000 A 
ATOM     11  C   UNL     1      -0.515  11.544  20.495  0.00  0.00    +0.000 A 
ATOM     12  C   UNL     1      -1.322  12.372  21.304  0.00  0.00    +0.000 A 
BRANCH   7  14
ATOM     13  C   UNL     1      -3.592  13.322  22.987  0.00  0.00    +0.000 C 
ATOM     14  O   UNL     1      -2.391  12.747  23.488  0.00  0.00    +0.000 OA
ENDBRANCH   7  14
BRANCH  11  15
ATOM     15  O   UNL     1      -0.179  11.916  19.220  0.00  0.00    +0.000 OA
ATOM     16  C   UNL     1      -0.818  13.019  18.598  0.00  0.00    +0.000 C 
ENDBRANCH  11  15
ENDBRANCH   1  10
BRANCH   4  17
ATOM     17  N   UNL     1       3.133   6.520  17.880  0.00  0.00    +0.000 N 
ATOM     18  H   UNL     1       4.085   6.845  17.731  0.00  0.00    +0.000 HD
BRANCH  17  19
ATOM     19  C   UNL     1       3.076   5.169  18.199  0.00  0.00    +0.000 A 
ATOM     20  C   UNL     1       1.942   4.502  17.917  0.00  0.00    +0.000 A 
ATOM     21  C   UNL     1       1.814   3.075  18.198  0.00  0.00    +0.000 A 
ATOM     22  O   UNL     1       0.743   2.491  18.049  0.00  0.00    +0.000 OA
ATOM     23  N   UNL     1       2.957   2.470  18.641  0.00  0.00    +0.000 N 
ATOM     24  C   UNL     1       4.122   3.106  19.031  0.00  0.00    +0.000 A 
ATOM     25  O   UNL     1       5.060   2.518  19.567  0.00  0.00    +0.000 OA
ATOM     26  N   UNL     1       4.144   4.491  18.780  0.00  0.00    +0.000 N 
ATOM     27  C   UNL     1       5.326   5.230  19.216  0.00  0.00    +0.000 C 
BRANCH  23  28
ATOM     28  O   UNL     1       2.847   1.089  18.929  0.00  0.00    +0.000 OA
ATOM     29  H   UNL     1       2.911   1.081  19.905  0.00  0.00    +0.000 HD
ENDBRANCH  23  28
ENDBRANCH  17  19
ENDBRANCH   4  17
TORSDOF 6
ENDMDL
MODEL 4
REMARK VINA RESULT:      -8.0      2.703      3.830
REMARK  Name = 
REMARK  9 active torsions:
REMARK  status: ('A' for Active; 'I' for Inactive)
REMARK    1  A    between atoms: C_1  and  O_2
REMARK    2  A    between atoms: O_2  and  C_3
REMARK    3  A    between atoms: C_6  and  C_7
REMARK    4  A    between atoms: C_10  and  N_11
REMARK    5  A    between atoms: N_11  and  C_12
REMARK    6  A    between atoms: N_16  and  O_17
REMARK    7  A    between atoms: N_20  and  C_21
REMARK    8  A    between atoms: C_24  and  O_25
REMARK    9  A    between atoms: O_25  and  C_26
REMARK                            x       y       z     vdW  Elec       q    Type
REMARK                         _______ _______ _______ _____ _____    ______ ____
ROOT
ATOM      1  C   UNL     1       1.385   9.315  18.959  0.00  0.00    +0.000 A 
ATOM      2  C   UNL     1       1.325   8.613  20.183  0.00  0.00    +0.000 A 
ATOM      3  C   UNL     1       1.890   7.341  20.362  0.00  0.00    +0.000 A 
ATOM      4  C   UNL     1       2.538   6.694  19.314  0.00  0.00    +0.000 A 
ATOM      5  C   UNL     1       2.595   7.341  18.089  0.00  0.00    +0.000 A 
ATOM      6  C   UNL     1       2.022   8.609  17.919  0.00  0.00    +0.000 A 
ENDROOT
BRANCH   1  10
ATOM      7  C   UNL     1      -0.062  13.438  18.527  0.00  0.00    +0.000 A 
ATOM      8  C   UNL     1       1.264  13.158  18.805  0.00  0.00    +0.000 A 
ATOM      9  C   UNL     1       1.693  11.834  18.951  0.00  0.00    +0.000 A 
ATOM     10  C   UNL     1       0.828  10.719  18.817  0.00  0.00    +0.000 A 
ATOM     11  C   UNL     1      -0.530  11.040  18.525  0.00  0.00    +0.000 A 
ATOM     12  C   UNL     1      -0.956  12.379  18.395  0.00  0.00    +0.000 A 
BRANCH   7  14
ATOM     13  C   UNL     1      -0.148  15.587  19.539  0.00  0.00    +0.000 C 
ATOM     14  O   UNL     1      -0.357  14.765  18.397  0.00  0.00    +0.000 OA
ENDBRANCH   7  14
BRANCH  11  15
ATOM     15  O   UNL     1      -1.410  10.002  18.364  0.00  0.00    +0.000 OA
ATOM     16  C   UNL     1      -2.680  10.218  17.772  0.00  0.00    +0.000 C 
ENDBRANCH  11  15
ENDBRANCH   1  10
BRANCH   4  17
ATOM     17  N   UNL     1       3.213   5.460  19.464  0.00  0.00    +0.000 N 
ATOM     18  H   UNL     1       2.527   4.715  19.376  0.00  0.00    +0.000 HD
BRANCH  17  19
ATOM     19  C   UNL     1       4.399   5.171  18.800  0.00  0.00    +0.000 A 
ATOM     20  C   UNL     1       5.542   5.665  19.309  0.00  0.00    +0.000 A 
ATOM     21  C   UNL     1       6.832   5.385  18.683  0.00  0.00    +0.000 A 
ATOM     22  O   UNL     1       7.861   5.928  19.077  0.00  0.00    +0.000 OA
ATOM     23  N   UNL     1       6.787   4.498  17.643  0.00  0.00    +0.000 N 
ATOM     24  C   UNL     1       5.647   4.024  17.021  0.00  0.00    +0.000 A 
ATOM     25  O   UNL     1       5.676   3.350  15.991  0.00  0.00    +0.000 OA
ATOM     26  N   UNL     1       4.442   4.386  17.650  0.00  0.00    +0.000 N 
ATOM     27  C   UNL     1       3.199   3.960  17.013  0.00  0.00    +0.000 C 
BRANCH  23  28
ATOM     28  O   UNL     1       8.027   4.224  17.019  0.00  0.00    +0.000 OA
ATOM     29  H   UNL     1       8.247   3.345  17.388  0.00  0.00    +0.000 HD
ENDBRANCH  23  28
ENDBRANCH  17  19
ENDBRANCH   4  17
TORSDOF 6
ENDMDL
MODEL 5
REMARK VINA RESULT:      -8.0      1.700      2.971
REMARK  Name = 
REMARK  9 active torsions:
REMARK  status: ('A' for Active; 'I' for Inactive)
REMARK    1  A    between atoms: C_1  and  O_2
REMARK    2  A    between atoms: O_2  and  C_3
REMARK    3  A    between atoms: C_6  and  C_7
REMARK    4  A    between atoms: C_10  and  N_11
REMARK    5  A    between atoms: N_11  and  C_12
REMARK    6  A    between atoms: N_16  and  O_17
REMARK    7  A    between atoms: N_20  and  C_21
REMARK    8  A    between atoms: C_24  and  O_25
REMARK    9  A    between atoms: O_25  and  C_26
REMARK                            x       y       z     vdW  Elec       q    Type
REMARK                         _______ _______ _______ _____ _____    ______ ____
ROOT
ATOM      1  C   UNL     1       0.836   9.755  20.129  0.00  0.00    +0.000 A 
ATOM      2  C   UNL     1       1.375   8.561  20.657  0.00  0.00    +0.000 A 
ATOM      3  C   UNL     1       2.032   7.605  19.868  0.00  0.00    +0.000 A 
ATOM      4  C   UNL     1       2.175   7.788  18.496  0.00  0.00    +0.000 A 
ATOM      5  C   UNL     1       1.637   8.937  17.935  0.00  0.00    +0.000 A 
ATOM      6  C   UNL     1       0.976   9.883  18.732  0.00  0.00    +0.000 A 
ENDROOT
BRANCH   1  10
ATOM      7  C   UNL     1      -1.052  12.664  22.821  0.00  0.00    +0.000 A 
ATOM      8  C   UNL     1      -1.240  11.303  22.975  0.00  0.00    +0.000 A 
ATOM      9  C   UNL     1      -0.636  10.400  22.091  0.00  0.00    +0.000 A 
ATOM     10  C   UNL     1       0.195  10.804  21.018  0.00  0.00    +0.000 A 
ATOM     11  C   UNL     1       0.375  12.213  20.890  0.00  0.00    +0.000 A 
ATOM     12  C   UNL     1      -0.251  13.115  21.776  0.00  0.00    +0.000 A 
BRANCH   7  14
ATOM     13  C   UNL     1      -1.168  14.754  23.948  0.00  0.00    +0.000 C 
ATOM     14  O   UNL     1      -1.682  13.443  23.749  0.00  0.00    +0.000 OA
ENDBRANCH   7  14
BRANCH  11  15
ATOM     15  O   UNL     1       1.185  12.663  19.880  0.00  0.00    +0.000 OA
ATOM     16  C   UNL     1       2.379  13.370  20.175  0.00  0.00    +0.000 C 
ENDBRANCH  11  15
ENDBRANCH   1  10
BRANCH   4  17
ATOM     17  N   UNL     1       2.915   6.911  17.670  0.00  0.00    +0.000 N 
ATOM     18  H   UNL     1       3.569   7.469  17.126  0.00  0.00    +0.000 HD
BRANCH  17  19
ATOM     19  C   UNL     1       3.489   5.739  18.147  0.00  0.00    +0.000 A 
ATOM     20  C   UNL     1       4.772   5.783  18.548  0.00  0.00    +0.000 A 
ATOM     21  C   UNL     1       5.438   4.600  19.086  0.00  0.00    +0.000 A 
ATOM     22  O   UNL     1       6.639   4.608  19.344  0.00  0.00    +0.000 OA
ATOM     23  N   UNL     1       4.628   3.512  19.260  0.00  0.00    +0.000 N 
ATOM     24  C   UNL     1       3.333   3.373  18.795  0.00  0.00    +0.000 A 
ATOM     25  O   UNL     1       2.712   2.311  18.848  0.00  0.00    +0.000 OA
ATOM     26  N   UNL     1       2.783   4.541  18.236  0.00  0.00    +0.000 N 
ATOM     27  C   UNL     1       1.436   4.447  17.679  0.00  0.00    +0.000 C 
BRANCH  23  28
ATOM     28  O   UNL     1       5.260   2.353  19.771  0.00  0.00    +0.000 OA
ATOM     29  H   UNL     1       4.844   2.271  20.653  0.00  0.00    +0.000 HD
ENDBRANCH  23  28
ENDBRANCH  17  19
ENDBRANCH   4  17
TORSDOF 6
ENDMDL
MODEL 6
REMARK VINA RESULT:      -8.0      1.231      2.097
REMARK  Name = 
REMARK  9 active torsions:
REMARK  status: ('A' for Active; 'I' for Inactive)
REMARK    1  A    between atoms: C_1  and  O_2
REMARK    2  A    between atoms: O_2  and  C_3
REMARK    3  A    between atoms: C_6  and  C_7
REMARK    4  A    between atoms: C_10  and  N_11
REMARK    5  A    between atoms: N_11  and  C_12
REMARK    6  A    between atoms: N_16  and  O_17
REMARK    7  A    between atoms: N_20  and  C_21
REMARK    8  A    between atoms: C_24  and  O_25
REMARK    9  A    between atoms: O_25  and  C_26
REMARK                            x       y       z     vdW  Elec       q    Type
REMARK                         _______ _______ _______ _____ _____    ______ ____
ROOT
ATOM      1  C   UNL     1       0.724   9.805  19.527  0.00  0.00    +0.000 A 
ATOM      2  C   UNL     1       1.137   8.737  20.354  0.00  0.00    +0.000 A 
ATOM      3  C   UNL     1       1.978   7.706  19.908  0.00  0.00    +0.000 A 
ATOM      4  C   UNL     1       2.443   7.682  18.597  0.00  0.00    +0.000 A 
ATOM      5  C   UNL     1       2.039   8.701  17.746  0.00  0.00    +0.000 A 
ATOM      6  C   UNL     1       1.193   9.722  18.201  0.00  0.00    +0.000 A 
ENDROOT
BRANCH   1  10
ATOM      7  C   UNL     1      -1.597  13.162  21.146  0.00  0.00    +0.000 A 
ATOM      8  C   UNL     1      -0.364  12.812  21.667  0.00  0.00    +0.000 A 
ATOM      9  C   UNL     1       0.346  11.727  21.139  0.00  0.00    +0.000 A 
ATOM     10  C   UNL     1      -0.127  10.943  20.059  0.00  0.00    +0.000 A 
ATOM     11  C   UNL     1      -1.397  11.332  19.539  0.00  0.00    +0.000 A 
ATOM     12  C   UNL     1      -2.112  12.417  20.089  0.00  0.00    +0.000 A 
BRANCH   7  14
ATOM     13  C   UNL     1      -3.590  14.394  21.548  0.00  0.00    +0.000 C 
ATOM     14  O   UNL     1      -2.188  14.242  21.737  0.00  0.00    +0.000 OA
ENDBRANCH   7  14
BRANCH  11  15
ATOM     15  O   UNL     1      -1.897  10.622  18.480  0.00  0.00    +0.000 OA
ATOM     16  C   UNL     1      -2.342  11.289  17.309  0.00  0.00    +0.000 C 
ENDBRANCH  11  15
ENDBRANCH   1  10
BRANCH   4  17
ATOM     17  N   UNL     1       3.373   6.728  18.121  0.00  0.00    +0.000 N 
ATOM     18  H   UNL     1       4.307   7.066  18.339  0.00  0.00    +0.000 HD
BRANCH  17  19
ATOM     19  C   UNL     1       3.233   5.366  18.356  0.00  0.00    +0.000 A 
ATOM     20  C   UNL     1       2.068   4.785  18.017  0.00  0.00    +0.000 A 
ATOM     21  C   UNL     1       1.852   3.353  18.209  0.00  0.00    +0.000 A 
ATOM     22  O   UNL     1       0.752   2.843  18.009  0.00  0.00    +0.000 OA
ATOM     23  N   UNL     1       2.951   2.657  18.630  0.00  0.00    +0.000 N 
ATOM     24  C   UNL     1       4.143   3.199  19.074  0.00  0.00    +0.000 A 
ATOM     25  O   UNL     1       5.037   2.525  19.587  0.00  0.00    +0.000 OA
ATOM     26  N   UNL     1       4.250   4.592  18.910  0.00  0.00    +0.000 N 
ATOM     27  C   UNL     1       5.464   5.233  19.407  0.00  0.00    +0.000 C 
BRANCH  23  28
ATOM     28  O   UNL     1       2.756   1.269  18.831  0.00  0.00    +0.000 OA
ATOM     29  H   UNL     1       3.277   0.885  18.096  0.00  0.00    +0.000 HD
ENDBRANCH  23  28
ENDBRANCH  17  19
ENDBRANCH   4  17
TORSDOF 6
ENDMDL
MODEL 7
REMARK VINA RESULT:      -8.0      2.693      3.881
REMARK  Name = 
REMARK  9 active torsions:
REMARK  status: ('A' for Active; 'I' for Inactive)
REMARK    1  A    between atoms: C_1  and  O_2
REMARK    2  A    between atoms: O_2  and  C_3
REMARK    3  A    between atoms: C_6  and  C_7
REMARK    4  A    between atoms: C_10  and  N_11
REMARK    5  A    between atoms: N_11  and  C_12
REMARK    6  A    between atoms: N_16  and  O_17
REMARK    7  A    between atoms: N_20  and  C_21
REMARK    8  A    between atoms: C_24  and  O_25
REMARK    9  A    between atoms: O_25  and  C_26
REMARK                            x       y       z     vdW  Elec       q    Type
REMARK                         _______ _______ _______ _____ _____    ______ ____
ROOT
ATOM      1  C   UNL     1       1.543   7.557  20.209  0.00  0.00    +0.000 A 
ATOM      2  C   UNL     1       1.555   6.258  20.765  0.00  0.00    +0.000 A 
ATOM      3  C   UNL     1       2.241   5.183  20.179  0.00  0.00    +0.000 A 
ATOM      4  C   UNL     1       2.944   5.348  18.990  0.00  0.00    +0.000 A 
ATOM      5  C   UNL     1       2.934   6.603  18.399  0.00  0.00    +0.000 A 
ATOM      6  C   UNL     1       2.241   7.669  18.990  0.00  0.00    +0.000 A 
ENDROOT
BRANCH   1  10
ATOM      7  C   UNL     1      -0.387  10.855  22.372  0.00  0.00    +0.000 A 
ATOM      8  C   UNL     1       0.089   9.734  23.028  0.00  0.00    +0.000 A 
ATOM      9  C   UNL     1       0.686   8.692  22.310  0.00  0.00    +0.000 A 
ATOM     10  C   UNL     1       0.853   8.716  20.903  0.00  0.00    +0.000 A 
ATOM     11  C   UNL     1       0.359   9.886  20.256  0.00  0.00    +0.000 A 
ATOM     12  C   UNL     1      -0.257  10.924  20.987  0.00  0.00    +0.000 A 
BRANCH   7  14
ATOM     13  C   UNL     1      -1.122  13.101  22.619  0.00  0.00    +0.000 C 
ATOM     14  O   UNL     1      -0.940  11.806  23.179  0.00  0.00    +0.000 OA
ENDBRANCH   7  14
BRANCH  11  15
ATOM     15  O   UNL     1       0.510   9.975  18.897  0.00  0.00    +0.000 OA
ATOM     16  C   UNL     1      -0.616  10.178  18.057  0.00  0.00    +0.000 C 
ENDBRANCH  11  15
ENDBRANCH   1  10
BRANCH   4  17
ATOM     17  N   UNL     1       3.735   4.329  18.409  0.00  0.00    +0.000 N 
ATOM     18  H   UNL     1       3.111   3.593  18.087  0.00  0.00    +0.000 HD
BRANCH  17  19
ATOM     19  C   UNL     1       4.752   4.598  17.501  0.00  0.00    +0.000 A 
ATOM     20  C   UNL     1       4.541   4.289  16.209  0.00  0.00    +0.000 A 
ATOM     21  C   UNL     1       5.550   4.564  15.190  0.00  0.00    +0.000 A 
ATOM     22  O   UNL     1       5.408   4.178  14.032  0.00  0.00    +0.000 OA
ATOM     23  N   UNL     1       6.641   5.259  15.633  0.00  0.00    +0.000 N 
ATOM     24  C   UNL     1       6.958   5.531  16.952  0.00  0.00    +0.000 A 
ATOM     25  O   UNL     1       8.032   6.025  17.295  0.00  0.00    +0.000 OA
ATOM     26  N   UNL     1       5.959   5.182  17.878  0.00  0.00    +0.000 N 
ATOM     27  C   UNL     1       6.253   5.396  19.293  0.00  0.00    +0.000 C 
BRANCH  23  28
ATOM     28  O   UNL     1       7.634   5.525  14.661  0.00  0.00    +0.000 OA
ATOM     29  H   UNL     1       7.677   6.503  14.680  0.00  0.00    +0.000 HD
ENDBRANCH  23  28
ENDBRANCH  17  19
ENDBRANCH   4  17
TORSDOF 6
ENDMDL
MODEL 8
REMARK VINA RESULT:      -7.9      1.236      2.151
REMARK  Name = 
REMARK  9 active torsions:
REMARK  status: ('A' for Active; 'I' for Inactive)
REMARK    1  A    between atoms: C_1  and  O_2
REMARK    2  A    between atoms: O_2  and  C_3
REMARK    3  A    between atoms: C_6  and  C_7
REMARK    4  A    between atoms: C_10  and  N_11
REMARK    5  A    between atoms: N_11  and  C_12
REMARK    6  A    between atoms: N_16  and  O_17
REMARK    7  A    between atoms: N_20  and  C_21
REMARK    8  A    between atoms: C_24  and  O_25
REMARK    9  A    between atoms: O_25  and  C_26
REMARK                            x       y       z     vdW  Elec       q    Type
REMARK                         _______ _______ _______ _____ _____    ______ ____
ROOT
ATOM      1  C   UNL     1       0.523   9.606  20.160  0.00  0.00    +0.000 A 
ATOM      2  C   UNL     1       1.067   8.495  20.842  0.00  0.00    +0.000 A 
ATOM      3  C   UNL     1       1.919   7.564  20.228  0.00  0.00    +0.000 A 
ATOM      4  C   UNL     1       2.263   7.689  18.885  0.00  0.00    +0.000 A 
ATOM      5  C   UNL     1       1.728   8.754  18.175  0.00  0.00    +0.000 A 
ATOM      6  C   UNL     1       0.873   9.674  18.797  0.00  0.00    +0.000 A 
ENDROOT
BRANCH   1  10
ATOM      7  C   UNL     1      -1.888  12.539  22.366  0.00  0.00    +0.000 A 
ATOM      8  C   UNL     1      -1.223  11.511  23.011  0.00  0.00    +0.000 A 
ATOM      9  C   UNL     1      -0.474  10.582  22.279  0.00  0.00    +0.000 A 
ATOM     10  C   UNL     1      -0.337  10.635  20.870  0.00  0.00    +0.000 A 
ATOM     11  C   UNL     1      -1.028  11.708  20.235  0.00  0.00    +0.000 A 
ATOM     12  C   UNL     1      -1.794  12.630  20.980  0.00  0.00    +0.000 A 
BRANCH   7  14
ATOM     13  C   UNL     1      -3.602  12.814  23.989  0.00  0.00    +0.000 C 
ATOM     14  O   UNL     1      -2.576  13.386  23.186  0.00  0.00    +0.000 OA
ENDBRANCH   7  14
BRANCH  11  15
ATOM     15  O   UNL     1      -0.916  11.822  18.874  0.00  0.00    +0.000 OA
ATOM     16  C   UNL     1      -0.535  13.053  18.282  0.00  0.00    +0.000 C 
ENDBRANCH  11  15
ENDBRANCH   1  10
BRANCH   4  17
ATOM     17  N   UNL     1       3.196   6.843  18.242  0.00  0.00    +0.000 N 
ATOM     18  H   UNL     1       4.125   7.230  18.391  0.00  0.00    +0.000 HD
BRANCH  17  19
ATOM     19  C   UNL     1       3.169   5.460  18.376  0.00  0.00    +0.000 A 
ATOM     20  C   UNL     1       2.040   4.816  18.031  0.00  0.00    +0.000 A 
ATOM     21  C   UNL     1       1.941   3.362  18.120  0.00  0.00    +0.000 A 
ATOM     22  O   UNL     1       0.876   2.783  17.917  0.00  0.00    +0.000 OA
ATOM     23  N   UNL     1       3.104   2.725  18.453  0.00  0.00    +0.000 N 
ATOM     24  C   UNL     1       4.267   3.325  18.899  0.00  0.00    +0.000 A 
ATOM     25  O   UNL     1       5.228   2.687  19.330  0.00  0.00    +0.000 OA
ATOM     26  N   UNL     1       4.262   4.730  18.838  0.00  0.00    +0.000 N 
ATOM     27  C   UNL     1       5.442   5.427  19.343  0.00  0.00    +0.000 C 
BRANCH  23  28
ATOM     28  O   UNL     1       3.023   1.315  18.553  0.00  0.00    +0.000 OA
ATOM     29  H   UNL     1       3.854   1.035  18.119  0.00  0.00    +0.000 HD
ENDBRANCH  23  28
ENDBRANCH  17  19
ENDBRANCH   4  17
TORSDOF 6
ENDMDL
MODEL 9
REMARK VINA RESULT:      -7.9      1.263      1.963
REMARK  Name = 
REMARK  9 active torsions:
REMARK  status: ('A' for Active; 'I' for Inactive)
REMARK    1  A    between atoms: C_1  and  O_2
REMARK    2  A    between atoms: O_2  and  C_3
REMARK    3  A    between atoms: C_6  and  C_7
REMARK    4  A    between atoms: C_10  and  N_11
REMARK    5  A    between atoms: N_11  and  C_12
REMARK    6  A    between atoms: N_16  and  O_17
REMARK    7  A    between atoms: N_20  and  C_21
REMARK    8  A    between atoms: C_24  and  O_25
REMARK    9  A    between atoms: O_25  and  C_26
REMARK                            x       y       z     vdW  Elec       q    Type
REMARK                         _______ _______ _______ _____ _____    ______ ____
ROOT
ATOM      1  C   UNL     1       0.653   9.632  19.220  0.00  0.00    +0.000 A 
ATOM      2  C   UNL     1       1.276   9.633  17.952  0.00  0.00    +0.000 A 
ATOM      3  C   UNL     1       2.258   8.701  17.584  0.00  0.00    +0.000 A 
ATOM      4  C   UNL     1       2.682   7.720  18.475  0.00  0.00    +0.000 A 
ATOM      5  C   UNL     1       2.111   7.702  19.739  0.00  0.00    +0.000 A 
ATOM      6  C   UNL     1       1.135   8.642  20.099  0.00  0.00    +0.000 A 
ENDROOT
BRANCH   1  10
ATOM      7  C   UNL     1      -2.450  12.537  20.321  0.00  0.00    +0.000 A 
ATOM      8  C   UNL     1      -1.302  12.377  21.077  0.00  0.00    +0.000 A 
ATOM      9  C   UNL     1      -0.337  11.432  20.708  0.00  0.00    +0.000 A 
ATOM     10  C   UNL     1      -0.458  10.607  19.564  0.00  0.00    +0.000 A 
ATOM     11  C   UNL     1      -1.648  10.799  18.802  0.00  0.00    +0.000 A 
ATOM     12  C   UNL     1      -2.622  11.743  19.191  0.00  0.00    +0.000 A 
BRANCH   7  14
ATOM     13  C   UNL     1      -3.762  13.373  22.118  0.00  0.00    +0.000 C 
ATOM     14  O   UNL     1      -3.311  13.495  20.774  0.00  0.00    +0.000 OA
ENDBRANCH   7  14
BRANCH  11  15
ATOM     15  O   UNL     1      -1.811  10.042  17.672  0.00  0.00    +0.000 OA
ATOM     16  C   UNL     1      -3.057  10.016  16.995  0.00  0.00    +0.000 C 
ENDBRANCH  11  15
ENDBRANCH   1  10
BRANCH   4  17
ATOM     17  N   UNL     1       3.591   6.694  18.125  0.00  0.00    +0.000 N 
ATOM     18  H   UNL     1       4.518   6.979  18.432  0.00  0.00    +0.000 HD
BRANCH  17  19
ATOM     19  C   UNL     1       3.338   5.352  18.379  0.00  0.00    +0.000 A 
ATOM     20  C   UNL     1       2.129   4.865  18.046  0.00  0.00    +0.000 A 
ATOM     21  C   UNL     1       1.795   3.459  18.257  0.00  0.00    +0.000 A 
ATOM     22  O   UNL     1       0.656   3.039  18.062  0.00  0.00    +0.000 OA
ATOM     23  N   UNL     1       2.831   2.680  18.691  0.00  0.00    +0.000 N 
ATOM     24  C   UNL     1       4.064   3.127  19.130  0.00  0.00    +0.000 A 
ATOM     25  O   UNL     1       4.898   2.388  19.654  0.00  0.00    +0.000 OA
ATOM     26  N   UNL     1       4.286   4.504  18.946  0.00  0.00    +0.000 N 
ATOM     27  C   UNL     1       5.549   5.049  19.437  0.00  0.00    +0.000 C 
BRANCH  23  28
ATOM     28  O   UNL     1       2.522   1.316  18.911  0.00  0.00    +0.000 OA
ATOM     29  H   UNL     1       2.921   1.159  19.790  0.00  0.00    +0.000 HD
ENDBRANCH  23  28
ENDBRANCH  17  19
ENDBRANCH   4  17
TORSDOF 6
ENDMDL
