MODEL 1
REMARK VINA RESULT:      -8.3      0.000      0.000
REMARK  Name = 
REMARK  11 active torsions:
REMARK  status: ('A' for Active; 'I' for Inactive)
REMARK    1  A    between atoms: C_1  and  C_2
REMARK    2  A    between atoms: C_6  and  O_7
REMARK    3  A    between atoms: O_7  and  C_8
REMARK    4  A    between atoms: C_8  and  C_9
REMARK    5  A    between atoms: C_9  and  C_11
REMARK    6  A    between atoms: N_17  and  C_18
REMARK    7  A    between atoms: C_18  and  C_19
REMARK    8  A    between atoms: C_18  and  C_20
REMARK    9  A    between atoms: N_22  and  C_23
REMARK   10  A    between atoms: C_23  and  C_24
REMARK   11  A    between atoms: C_33  and  C_34
REMARK                            x       y       z     vdW  Elec       q    Type
REMARK                         _______ _______ _______ _____ _____    ______ ____
ROOT
ATOM      1  C   UNL     1       2.599   4.858  19.092  0.00  0.00    +0.000 A 
ATOM      2  C   UNL     1       1.986   4.014  18.176  0.00  0.00    +0.000 A 
ATOM      3  C   UNL     1       2.685   3.582  17.071  0.00  0.00    +0.000 A 
ATOM      4  C   UNL     1       4.016   3.950  16.903  0.00  0.00    +0.000 A 
ATOM      5  C   UNL     1       4.689   4.787  17.810  0.00  0.00    +0.000 A 
ATOM      6  C   UNL     1       3.930   5.281  18.885  0.00  0.00    +0.000 A 
ATOM      7  N   UNL     1       6.088   5.099  17.580  0.00  0.00    +0.000 N 
ATOM      8  C   UNL     1       6.702   4.482  16.489  0.00  0.00    +0.000 C 
ATOM      9  O   UNL     1       7.860   4.697  16.069  0.00  0.00    +0.000 OA
ATOM     10  C   UNL     1       5.939   3.399  15.781  0.00  0.00    +0.000 C 
ATOM     11  O   UNL     1       4.544   3.452  15.751  0.00  0.00    +0.000 OA
ENDROOT
BRANCH   1  12
ATOM     12  C   UNL     1       1.837   5.255  20.300  0.00  0.00    +0.000 C 
ATOM     13  O   UNL     1       0.947   4.478  20.723  0.00  0.00    +0.000 OA
BRANCH  12  14
ATOM     14  C   UNL     1       2.127   6.588  20.950  0.00  0.00    +0.000 C 
BRANCH  14  15
ATOM     15  O   UNL     1       1.897   7.639  20.024  0.00  0.00    +0.000 OA
BRANCH  15  21
ATOM     16  C   UNL     1      -0.390  11.812  18.809  0.00  0.00    +0.000 C 
ATOM     17  C   UNL     1       0.048  10.794  19.827  0.00  0.00    +0.000 A 
ATOM     18  C   UNL     1      -0.306  10.987  21.170  0.00  0.00    +0.000 A 
ATOM     19  C   UNL     1       0.061  10.063  22.141  0.00  0.00    +0.000 A 
ATOM     20  C   UNL     1       0.787   8.928  21.784  0.00  0.00    +0.000 A 
ATOM     21  C   UNL     1       1.169   8.719  20.454  0.00  0.00    +0.000 A 
ATOM     22  C   UNL     1       0.804   9.653  19.462  0.00  0.00    +0.000 A 
ATOM     23  C   UNL     1       1.221   9.457  18.024  0.00  0.00    +0.000 C 
ENDBRANCH  15  21
ENDBRANCH  14  15
ENDBRANCH  12  14
ENDBRANCH   1  12
BRANCH   7  24
ATOM     24  C   UNL     1       6.813   6.073  18.475  0.00  0.00    +0.000 C 
ATOM     25  C   UNL     1       8.037   5.468  19.210  0.00  0.00    +0.000 C 
BRANCH  24  26
ATOM     26  C   UNL     1       7.288   7.413  17.836  0.00  0.00    +0.000 C 
ATOM     27  O   UNL     1       6.890   7.822  16.738  0.00  0.00    +0.000 OA
ATOM     28  N   UNL     1       8.221   8.153  18.516  0.00  0.00    +0.000 N 
ATOM     29  H   UNL     1       8.614   7.792  19.379  0.00  0.00    +0.000 HD
BRANCH  28  30
ATOM     30  C   UNL     1       8.693   9.360  17.859  0.00  0.00    +0.000 C 
BRANCH  30  31
ATOM     31  C   UNL     1       8.824  10.565  18.764  0.00  0.00    +0.000 C 
ATOM     32  C   UNL     1       8.961  11.887  18.016  0.00  0.00    +0.000 C 
ATOM     33  C   UNL     1       9.880  12.679  18.904  0.00  0.00    +0.000 C 
ATOM     34  C   UNL     1      10.762  11.611  19.517  0.00  0.00    +0.000 C 
ATOM     35  O   UNL     1       9.995  10.410  19.587  0.00  0.00    +0.000 OA
ENDBRANCH  30  31
ENDBRANCH  28  30
ENDBRANCH  24  26
ENDBRANCH   7  24
TORSDOF 8
ENDMDL
MODEL 2
REMARK VINA RESULT:      -8.3      1.042      1.841
REMARK  Name = 
REMARK  11 active torsions:
REMARK  status: ('A' for Active; 'I' for Inactive)
REMARK    1  A    between atoms: C_1  and  C_2
REMARK    2  A    between atoms: C_6  and  O_7
REMARK    3  A    between atoms: O_7  and  C_8
REMARK    4  A    between atoms: C_8  and  C_9
REMARK    5  A    between atoms: C_9  and  C_11
REMARK    6  A    between atoms: N_17  and  C_18
REMARK    7  A    between atoms: C_18  and  C_19
REMARK    8  A    between atoms: C_18  and  C_20
REMARK    9  A    between atoms: N_22  and  C_23
REMARK   10  A    between atoms: C_23  and  C_24
REMARK   11  A    between atoms: C_33  and  C_34
REMARK                            x       y       z     vdW  Elec       q    Type
REMARK                         _______ _______ _______ _____ _____    ______ ____
ROOT
ATOM      1  C   UNL     1       2.704   5.724  19.154  0.00  0.00    +0.000 A 
ATOM      2  C   UNL     1       2.003   4.906  18.277  0.00  0.00    +0.000 A 
ATOM      3  C   UNL     1       2.668   4.284  17.245  0.00  0.00    +0.000 A 
ATOM      4  C   UNL     1       4.045   4.435  17.113  0.00  0.00    +0.000 A 
ATOM      5  C   UNL     1       4.804   5.237  17.984  0.00  0.00    +0.000 A 
ATOM      6  C   UNL     1       4.091   5.926  18.979  0.00  0.00    +0.000 A 
ATOM      7  N   UNL     1       6.241   5.317  17.798  0.00  0.00    +0.000 N 
ATOM      8  C   UNL     1       6.794   4.526  16.790  0.00  0.00    +0.000 C 
ATOM      9  O   UNL     1       7.985   4.531  16.410  0.00  0.00    +0.000 OA
ATOM     10  C   UNL     1       5.901   3.512  16.131  0.00  0.00    +0.000 C 
ATOM     11  O   UNL     1       4.532   3.770  16.030  0.00  0.00    +0.000 OA
ENDROOT
BRANCH   1  12
ATOM     12  C   UNL     1       1.968   6.330  20.289  0.00  0.00    +0.000 C 
ATOM     13  O   UNL     1       1.464   5.565  21.146  0.00  0.00    +0.000 OA
BRANCH  12  14
ATOM     14  C   UNL     1       1.817   7.833  20.352  0.00  0.00    +0.000 C 
BRANCH  14  15
ATOM     15  O   UNL     1       0.686   8.173  21.140  0.00  0.00    +0.000 OA
BRANCH  15  21
ATOM     16  C   UNL     1      -1.413  12.182  23.049  0.00  0.00    +0.000 C 
ATOM     17  C   UNL     1      -0.966  11.358  21.871  0.00  0.00    +0.000 A 
ATOM     18  C   UNL     1      -1.180  11.858  20.579  0.00  0.00    +0.000 A 
ATOM     19  C   UNL     1      -0.766  11.140  19.463  0.00  0.00    +0.000 A 
ATOM     20  C   UNL     1      -0.128   9.912  19.621  0.00  0.00    +0.000 A 
ATOM     21  C   UNL     1       0.083   9.380  20.899  0.00  0.00    +0.000 A 
ATOM     22  C   UNL     1      -0.337  10.100  22.037  0.00  0.00    +0.000 A 
ATOM     23  C   UNL     1      -0.136   9.538  23.424  0.00  0.00    +0.000 C 
ENDBRANCH  15  21
ENDBRANCH  14  15
ENDBRANCH  12  14
ENDBRANCH   1  12
BRANCH   7  24
ATOM     24  C   UNL     1       7.073   6.245  18.648  0.00  0.00    +0.000 C 
ATOM     25  C   UNL     1       8.284   5.560  19.334  0.00  0.00    +0.000 C 
BRANCH  24  26
ATOM     26  C   UNL     1       7.610   7.543  17.975  0.00  0.00    +0.000 C 
ATOM     27  O   UNL     1       7.457   7.800  16.774  0.00  0.00    +0.000 OA
ATOM     28  N   UNL     1       8.318   8.423  18.751  0.00  0.00    +0.000 N 
ATOM     29  H   UNL     1       8.518   8.189  19.718  0.00  0.00    +0.000 HD
BRANCH  28  30
ATOM     30  C   UNL     1       8.864   9.589  18.076  0.00  0.00    +0.000 C 
BRANCH  30  31
ATOM     31  C   UNL     1       9.686  10.505  18.954  0.00  0.00    +0.000 C 
ATOM     32  C   UNL     1       9.237  10.529  20.412  0.00  0.00    +0.000 C 
ATOM     33  C   UNL     1       9.502  11.951  20.819  0.00  0.00    +0.000 C 
ATOM     34  C   UNL     1       9.270  12.720  19.535  0.00  0.00    +0.000 C 
ATOM     35  O   UNL     1       9.591  11.850  18.451  0.00  0.00    +0.000 OA
ENDBRANCH  30  31
ENDBRANCH  28  30
ENDBRANCH  24  26
ENDBRANCH   7  24
TORSDOF 8
ENDMDL
MODEL 3
REMARK VINA RESULT:      -8.3      0.945      1.781
REMARK  Name = 
REMARK  11 active torsions:
REMARK  status: ('A' for Active; 'I' for Inactive)
REMARK    1  A    between atoms: C_1  and  C_2
REMARK    2  A    between atoms: C_6  and  O_7
REMARK    3  A    between atoms: O_7  and  C_8
REMARK    4  A    between atoms: C_8  and  C_9
REMARK    5  A    between atoms: C_9  and  C_11
REMARK    6  A    between atoms: N_17  and  C_18
REMARK    7  A    between atoms: C_18  and  C_19
REMARK    8  A    between atoms: C_18  and  C_20
REMARK    9  A    between atoms: N_22  and  C_23
REMARK   10  A    between atoms: C_23  and  C_24
REMARK   11  A    between atoms: C_33  and  C_34
REMARK                            x       y       z     vdW  Elec       q    Type
REMARK                         _______ _______ _______ _____ _____    ______ ____
ROOT
ATOM      1  C   UNL     1       3.044   4.172  18.875  0.00  0.00    +0.000 A 
ATOM      2  C   UNL     1       2.470   3.437  17.846  0.00  0.00    +0.000 A 
ATOM      3  C   UNL     1       3.114   3.343  16.632  0.00  0.00    +0.000 A 
ATOM      4  C   UNL     1       4.358   3.941  16.457  0.00  0.00    +0.000 A 
ATOM      5  C   UNL     1       4.990   4.682  17.471  0.00  0.00    +0.000 A 
ATOM      6  C   UNL     1       4.276   4.831  18.672  0.00  0.00    +0.000 A 
ATOM      7  N   UNL     1       6.303   5.248  17.219  0.00  0.00    +0.000 N 
ATOM      8  C   UNL     1       6.890   4.959  15.987  0.00  0.00    +0.000 C 
ATOM      9  O   UNL     1       7.960   5.431  15.544  0.00  0.00    +0.000 OA
ATOM     10  C   UNL     1       6.222   3.928  15.121  0.00  0.00    +0.000 C 
ATOM     11  O   UNL     1       4.837   3.766  15.195  0.00  0.00    +0.000 OA
ENDROOT
BRANCH   1  12
ATOM     12  C   UNL     1       2.353   4.203  20.186  0.00  0.00    +0.000 C 
ATOM     13  O   UNL     1       2.461   3.204  20.938  0.00  0.00    +0.000 OA
BRANCH  12  14
ATOM     14  C   UNL     1       1.517   5.408  20.552  0.00  0.00    +0.000 C 
BRANCH  14  15
ATOM     15  O   UNL     1       2.331   6.571  20.580  0.00  0.00    +0.000 OA
BRANCH  15  21
ATOM     16  C   UNL     1       0.104  10.919  20.077  0.00  0.00    +0.000 C 
ATOM     17  C   UNL     1       0.876   9.757  19.512  0.00  0.00    +0.000 A 
ATOM     18  C   UNL     1       1.225   9.775  18.154  0.00  0.00    +0.000 A 
ATOM     19  C   UNL     1       1.954   8.732  17.595  0.00  0.00    +0.000 A 
ATOM     20  C   UNL     1       2.348   7.654  18.385  0.00  0.00    +0.000 A 
ATOM     21  C   UNL     1       1.998   7.601  19.739  0.00  0.00    +0.000 A 
ATOM     22  C   UNL     1       1.255   8.654  20.315  0.00  0.00    +0.000 A 
ATOM     23  C   UNL     1       0.851   8.609  21.769  0.00  0.00    +0.000 C 
ENDBRANCH  15  21
ENDBRANCH  14  15
ENDBRANCH  12  14
ENDBRANCH   1  12
BRANCH   7  24
ATOM     24  C   UNL     1       6.966   6.132  18.246  0.00  0.00    +0.000 C 
ATOM     25  C   UNL     1       8.300   5.568  18.800  0.00  0.00    +0.000 C 
BRANCH  24  26
ATOM     26  C   UNL     1       7.233   7.615  17.848  0.00  0.00    +0.000 C 
ATOM     27  O   UNL     1       6.615   8.200  16.950  0.00  0.00    +0.000 OA
ATOM     28  N   UNL     1       8.230   8.286  18.507  0.00  0.00    +0.000 N 
ATOM     29  H   UNL     1       8.797   7.795  19.191  0.00  0.00    +0.000 HD
BRANCH  28  30
ATOM     30  C   UNL     1       8.499   9.643  18.063  0.00  0.00    +0.000 C 
BRANCH  30  31
ATOM     31  C   UNL     1       9.726  10.281  18.676  0.00  0.00    +0.000 C 
ATOM     32  C   UNL     1       9.491  10.861  20.066  0.00  0.00    +0.000 C 
ATOM     33  C   UNL     1      10.389  12.067  20.080  0.00  0.00    +0.000 C 
ATOM     34  C   UNL     1      10.378  12.514  18.633  0.00  0.00    +0.000 C 
ATOM     35  O   UNL     1      10.172  11.355  17.828  0.00  0.00    +0.000 OA
ENDBRANCH  30  31
ENDBRANCH  28  30
ENDBRANCH  24  26
ENDBRANCH   7  24
TORSDOF 8
ENDMDL
MODEL 4
REMARK VINA RESULT:      -8.2      2.939      5.472
REMARK  Name = 
REMARK  11 active torsions:
REMARK  status: ('A' for Active; 'I' for Inactive)
REMARK    1  A    between atoms: C_1  and  C_2
REMARK    2  A    between atoms: C_6  and  O_7
REMARK    3  A    between atoms: O_7  and  C_8
REMARK    4  A    between atoms: C_8  and  C_9
REMARK    5  A    between atoms: C_9  and  C_11
REMARK    6  A    between atoms: N_17  and  C_18
REMARK    7  A    between atoms: C_18  and  C_19
REMARK    8  A    between atoms: C_18  and  C_20
REMARK    9  A    between atoms: N_22  and  C_23
REMARK   10  A    between atoms: C_23  and  C_24
REMARK   11  A    between atoms: C_33  and  C_34
REMARK                            x       y       z     vdW  Elec       q    Type
REMARK                         _______ _______ _______ _____ _____    ______ ____
ROOT
ATOM      1  C   UNL     1       2.080   7.365  19.566  0.00  0.00    +0.000 A 
ATOM      2  C   UNL     1       1.520   6.322  20.291  0.00  0.00    +0.000 A 
ATOM      3  C   UNL     1       2.123   5.084  20.284  0.00  0.00    +0.000 A 
ATOM      4  C   UNL     1       3.316   4.896  19.594  0.00  0.00    +0.000 A 
ATOM      5  C   UNL     1       3.935   5.923  18.859  0.00  0.00    +0.000 A 
ATOM      6  C   UNL     1       3.257   7.153  18.815  0.00  0.00    +0.000 A 
ATOM      7  N   UNL     1       5.196   5.655  18.192  0.00  0.00    +0.000 N 
ATOM      8  C   UNL     1       5.755   4.391  18.383  0.00  0.00    +0.000 C 
ATOM      9  O   UNL     1       6.774   3.936  17.818  0.00  0.00    +0.000 OA
ATOM     10  C   UNL     1       5.127   3.499  19.417  0.00  0.00    +0.000 C 
ATOM     11  O   UNL     1       3.759   3.612  19.677  0.00  0.00    +0.000 OA
ENDROOT
BRANCH   1  12
ATOM     12  C   UNL     1       1.437   8.699  19.644  0.00  0.00    +0.000 C 
ATOM     13  O   UNL     1       1.201   9.178  20.779  0.00  0.00    +0.000 OA
BRANCH  12  14
ATOM     14  C   UNL     1       1.056   9.410  18.366  0.00  0.00    +0.000 C 
BRANCH  14  15
ATOM     15  O   UNL     1       0.287  10.565  18.665  0.00  0.00    +0.000 OA
BRANCH  15  21
ATOM     16  C   UNL     1      -4.238  12.333  19.385  0.00  0.00    +0.000 C 
ATOM     17  C   UNL     1      -3.260  11.471  18.632  0.00  0.00    +0.000 A 
ATOM     18  C   UNL     1      -3.721  10.729  17.534  0.00  0.00    +0.000 A 
ATOM     19  C   UNL     1      -2.850   9.934  16.799  0.00  0.00    +0.000 A 
ATOM     20  C   UNL     1      -1.502   9.871  17.146  0.00  0.00    +0.000 A 
ATOM     21  C   UNL     1      -1.018  10.586  18.247  0.00  0.00    +0.000 A 
ATOM     22  C   UNL     1      -1.896  11.393  19.002  0.00  0.00    +0.000 A 
ATOM     23  C   UNL     1      -1.399  12.160  20.204  0.00  0.00    +0.000 C 
ENDBRANCH  15  21
ENDBRANCH  14  15
ENDBRANCH  12  14
ENDBRANCH   1  12
BRANCH   7  24
ATOM     24  C   UNL     1       5.835   6.701  17.314  0.00  0.00    +0.000 C 
ATOM     25  C   UNL     1       7.277   7.087  17.736  0.00  0.00    +0.000 C 
BRANCH  24  26
ATOM     26  C   UNL     1       5.873   6.421  15.781  0.00  0.00    +0.000 C 
ATOM     27  O   UNL     1       5.060   6.901  14.981  0.00  0.00    +0.000 OA
ATOM     28  N   UNL     1       6.838   5.571  15.307  0.00  0.00    +0.000 N 
ATOM     29  H   UNL     1       7.463   5.109  15.961  0.00  0.00    +0.000 HD
BRANCH  28  30
ATOM     30  C   UNL     1       6.801   5.278  13.885  0.00  0.00    +0.000 C 
BRANCH  30  31
ATOM     31  C   UNL     1       6.326   3.885  13.535  0.00  0.00    +0.000 C 
ATOM     32  C   UNL     1       6.943   3.325  12.257  0.00  0.00    +0.000 C 
ATOM     33  C   UNL     1       5.825   2.503  11.680  0.00  0.00    +0.000 C 
ATOM     34  C   UNL     1       4.588   3.255  12.122  0.00  0.00    +0.000 C 
ATOM     35  O   UNL     1       4.899   3.906  13.352  0.00  0.00    +0.000 OA
ENDBRANCH  30  31
ENDBRANCH  28  30
ENDBRANCH  24  26
ENDBRANCH   7  24
TORSDOF 8
ENDMDL
MODEL 5
REMARK VINA RESULT:      -8.2      0.899      1.139
REMARK  Name = 
REMARK  11 active torsions:
REMARK  status: ('A' for Active; 'I' for Inactive)
REMARK    1  A    between atoms: C_1  and  C_2
REMARK    2  A    between atoms: C_6  and  O_7
REMARK    3  A    between atoms: O_7  and  C_8
REMARK    4  A    between atoms: C_8  and  C_9
REMARK    5  A    between atoms: C_9  and  C_11
REMARK    6  A    between atoms: N_17  and  C_18
REMARK    7  A    between atoms: C_18  and  C_19
REMARK    8  A    between atoms: C_18  and  C_20
REMARK    9  A    between atoms: N_22  and  C_23
REMARK   10  A    between atoms: C_23  and  C_24
REMARK   11  A    between atoms: C_33  and  C_34
REMARK                            x       y       z     vdW  Elec       q    Type
REMARK                         _______ _______ _______ _____ _____    ______ ____
ROOT
ATOM      1  C   UNL     1       2.633   5.584  19.095  0.00  0.00    +0.000 A 
ATOM      2  C   UNL     1       1.952   4.748  18.219  0.00  0.00    +0.000 A 
ATOM      3  C   UNL     1       2.631   4.145  17.184  0.00  0.00    +0.000 A 
ATOM      4  C   UNL     1       4.002   4.336  17.047  0.00  0.00    +0.000 A 
ATOM      5  C   UNL     1       4.741   5.158  17.916  0.00  0.00    +0.000 A 
ATOM      6  C   UNL     1       4.012   5.826  18.915  0.00  0.00    +0.000 A 
ATOM      7  N   UNL     1       6.175   5.281  17.725  0.00  0.00    +0.000 N 
ATOM      8  C   UNL     1       6.746   4.506  16.714  0.00  0.00    +0.000 C 
ATOM      9  O   UNL     1       7.935   4.546  16.331  0.00  0.00    +0.000 OA
ATOM     10  C   UNL     1       5.881   3.468  16.058  0.00  0.00    +0.000 C 
ATOM     11  O   UNL     1       4.504   3.686  15.962  0.00  0.00    +0.000 OA
ENDROOT
BRANCH   1  12
ATOM     12  C   UNL     1       1.883   6.168  20.233  0.00  0.00    +0.000 C 
ATOM     13  O   UNL     1       1.073   5.435  20.848  0.00  0.00    +0.000 OA
BRANCH  12  14
ATOM     14  C   UNL     1       2.089   7.624  20.583  0.00  0.00    +0.000 C 
BRANCH  14  15
ATOM     15  O   UNL     1       1.010   8.400  20.085  0.00  0.00    +0.000 OA
BRANCH  15  21
ATOM     16  C   UNL     1      -1.601  12.512  20.711  0.00  0.00    +0.000 C 
ATOM     17  C   UNL     1      -0.926  11.281  21.252  0.00  0.00    +0.000 A 
ATOM     18  C   UNL     1      -0.989  11.028  22.630  0.00  0.00    +0.000 A 
ATOM     19  C   UNL     1      -0.395   9.893  23.171  0.00  0.00    +0.000 A 
ATOM     20  C   UNL     1       0.268   8.990  22.342  0.00  0.00    +0.000 A 
ATOM     21  C   UNL     1       0.362   9.227  20.965  0.00  0.00    +0.000 A 
ATOM     22  C   UNL     1      -0.234  10.378  20.408  0.00  0.00    +0.000 A 
ATOM     23  C   UNL     1      -0.131  10.663  18.929  0.00  0.00    +0.000 C 
ENDBRANCH  15  21
ENDBRANCH  14  15
ENDBRANCH  12  14
ENDBRANCH   1  12
BRANCH   7  24
ATOM     24  C   UNL     1       6.983   6.231  18.574  0.00  0.00    +0.000 C 
ATOM     25  C   UNL     1       8.225   5.585  19.240  0.00  0.00    +0.000 C 
BRANCH  24  26
ATOM     26  C   UNL     1       7.465   7.553  17.905  0.00  0.00    +0.000 C 
ATOM     27  O   UNL     1       7.265   7.825  16.714  0.00  0.00    +0.000 OA
ATOM     28  N   UNL     1       8.178   8.437  18.671  0.00  0.00    +0.000 N 
ATOM     29  H   UNL     1       8.417   8.192  19.627  0.00  0.00    +0.000 HD
BRANCH  28  30
ATOM     30  C   UNL     1       8.672   9.626  17.998  0.00  0.00    +0.000 C 
BRANCH  30  31
ATOM     31  C   UNL     1       9.751  10.378  18.745  0.00  0.00    +0.000 C 
ATOM     32  C   UNL     1       9.399  10.681  20.198  0.00  0.00    +0.000 C 
ATOM     33  C   UNL     1      10.051  12.016  20.428  0.00  0.00    +0.000 C 
ATOM     34  C   UNL     1       9.967  12.672  19.066  0.00  0.00    +0.000 C 
ATOM     35  O   UNL     1       9.992  11.635  18.087  0.00  0.00    +0.000 OA
ENDBRANCH  30  31
ENDBRANCH  28  30
ENDBRANCH  24  26
ENDBRANCH   7  24
TORSDOF 8
ENDMDL
MODEL 6
REMARK VINA RESULT:      -8.0      4.677     10.794
REMARK  Name = 
REMARK  11 active torsions:
REMARK  status: ('A' for Active; 'I' for Inactive)
REMARK    1  A    between atoms: C_1  and  C_2
REMARK    2  A    between atoms: C_6  and  O_7
REMARK    3  A    between atoms: O_7  and  C_8
REMARK    4  A    between atoms: C_8  and  C_9
REMARK    5  A    between atoms: C_9  and  C_11
REMARK    6  A    between atoms: N_17  and  C_18
REMARK    7  A    between atoms: C_18  and  C_19
REMARK    8  A    between atoms: C_18  and  C_20
REMARK    9  A    between atoms: N_22  and  C_23
REMARK   10  A    between atoms: C_23  and  C_24
REMARK   11  A    between atoms: C_33  and  C_34
REMARK                            x       y       z     vdW  Elec       q    Type
REMARK                         _______ _______ _______ _____ _____    ______ ____
ROOT
ATOM      1  C   UNL     1       1.180   9.383  19.623  0.00  0.00    +0.000 A 
ATOM      2  C   UNL     1       1.587   8.831  20.830  0.00  0.00    +0.000 A 
ATOM      3  C   UNL     1       1.043   9.289  22.009  0.00  0.00    +0.000 A 
ATOM      4  C   UNL     1       0.053  10.267  21.985  0.00  0.00    +0.000 A 
ATOM      5  C   UNL     1      -0.407  10.847  20.789  0.00  0.00    +0.000 A 
ATOM      6  C   UNL     1       0.221  10.420  19.606  0.00  0.00    +0.000 A 
ATOM      7  N   UNL     1      -1.465  11.838  20.845  0.00  0.00    +0.000 N 
ATOM      8  C   UNL     1      -2.013  12.107  22.101  0.00  0.00    +0.000 C 
ATOM      9  O   UNL     1      -2.853  12.993  22.370  0.00  0.00    +0.000 OA
ATOM     10  C   UNL     1      -1.617  11.211  23.240  0.00  0.00    +0.000 C 
ATOM     11  O   UNL     1      -0.355  10.615  23.235  0.00  0.00    +0.000 OA
ENDROOT
BRANCH   1  12
ATOM     12  C   UNL     1       1.742   8.824  18.370  0.00  0.00    +0.000 C 
ATOM     13  O   UNL     1       2.046   9.620  17.449  0.00  0.00    +0.000 OA
BRANCH  12  14
ATOM     14  C   UNL     1       1.893   7.327  18.233  0.00  0.00    +0.000 C 
BRANCH  14  15
ATOM     15  O   UNL     1       3.219   6.941  18.560  0.00  0.00    +0.000 OA
BRANCH  15  21
ATOM     16  C   UNL     1       3.551   2.088  17.887  0.00  0.00    +0.000 C 
ATOM     17  C   UNL     1       3.935   3.500  17.535  0.00  0.00    +0.000 A 
ATOM     18  C   UNL     1       4.844   3.710  16.488  0.00  0.00    +0.000 A 
ATOM     19  C   UNL     1       5.213   4.998  16.117  0.00  0.00    +0.000 A 
ATOM     20  C   UNL     1       4.676   6.097  16.783  0.00  0.00    +0.000 A 
ATOM     21  C   UNL     1       3.779   5.916  17.843  0.00  0.00    +0.000 A 
ATOM     22  C   UNL     1       3.402   4.613  18.230  0.00  0.00    +0.000 A 
ATOM     23  C   UNL     1       2.451   4.393  19.381  0.00  0.00    +0.000 C 
ENDBRANCH  15  21
ENDBRANCH  14  15
ENDBRANCH  12  14
ENDBRANCH   1  12
BRANCH   7  24
ATOM     24  C   UNL     1      -1.913  12.553  19.595  0.00  0.00    +0.000 C 
ATOM     25  C   UNL     1      -0.754  12.955  18.646  0.00  0.00    +0.000 C 
BRANCH  24  26
ATOM     26  C   UNL     1      -2.992  11.851  18.717  0.00  0.00    +0.000 C 
ATOM     27  O   UNL     1      -2.726  10.975  17.884  0.00  0.00    +0.000 OA
ATOM     28  N   UNL     1      -4.294  12.255  18.855  0.00  0.00    +0.000 N 
ATOM     29  H   UNL     1      -4.516  13.026  19.477  0.00  0.00    +0.000 HD
BRANCH  28  30
ATOM     30  C   UNL     1      -5.263  11.628  17.972  0.00  0.00    +0.000 C 
BRANCH  30  31
ATOM     31  C   UNL     1      -6.619  11.378  18.593  0.00  0.00    +0.000 C 
ATOM     32  C   UNL     1      -6.790  12.000  19.974  0.00  0.00    +0.000 C 
ATOM     33  C   UNL     1      -7.667  11.006  20.682  0.00  0.00    +0.000 C 
ATOM     34  C   UNL     1      -7.255   9.688  20.061  0.00  0.00    +0.000 C 
ATOM     35  O   UNL     1      -6.820   9.960  18.730  0.00  0.00    +0.000 OA
ENDBRANCH  30  31
ENDBRANCH  28  30
ENDBRANCH  24  26
ENDBRANCH   7  24
TORSDOF 8
ENDMDL
MODEL 7
REMARK VINA RESULT:      -8.0      4.526      8.787
REMARK  Name = 
REMARK  11 active torsions:
REMARK  status: ('A' for Active; 'I' for Inactive)
REMARK    1  A    between atoms: C_1  and  C_2
REMARK    2  A    between atoms: C_6  and  O_7
REMARK    3  A    between atoms: O_7  and  C_8
REMARK    4  A    between atoms: C_8  and  C_9
REMARK    5  A    between atoms: C_9  and  C_11
REMARK    6  A    between atoms: N_17  and  C_18
REMARK    7  A    between atoms: C_18  and  C_19
REMARK    8  A    between atoms: C_18  and  C_20
REMARK    9  A    between atoms: N_22  and  C_23
REMARK   10  A    between atoms: C_23  and  C_24
REMARK   11  A    between atoms: C_33  and  C_34
REMARK                            x       y       z     vdW  Elec       q    Type
REMARK                         _______ _______ _______ _____ _____    ______ ____
ROOT
ATOM      1  C   UNL     1       1.294   8.990  19.861  0.00  0.00    +0.000 A 
ATOM      2  C   UNL     1       1.591   8.403  21.084  0.00  0.00    +0.000 A 
ATOM      3  C   UNL     1       1.033   8.907  22.238  0.00  0.00    +0.000 A 
ATOM      4  C   UNL     1       0.136   9.968  22.169  0.00  0.00    +0.000 A 
ATOM      5  C   UNL     1      -0.212  10.587  20.955  0.00  0.00    +0.000 A 
ATOM      6  C   UNL     1       0.433  10.107  19.803  0.00  0.00    +0.000 A 
ATOM      7  N   UNL     1      -1.180  11.668  20.965  0.00  0.00    +0.000 N 
ATOM      8  C   UNL     1      -1.763  11.984  22.193  0.00  0.00    +0.000 C 
ATOM      9  O   UNL     1      -2.534  12.940  22.425  0.00  0.00    +0.000 OA
ATOM     10  C   UNL     1      -1.504  11.056  23.346  0.00  0.00    +0.000 C 
ATOM     11  O   UNL     1      -0.300  10.350  23.400  0.00  0.00    +0.000 OA
ENDROOT
BRANCH   1  12
ATOM     12  C   UNL     1       1.866   8.384  18.635  0.00  0.00    +0.000 C 
ATOM     13  O   UNL     1       1.529   8.860  17.524  0.00  0.00    +0.000 OA
BRANCH  12  14
ATOM     14  C   UNL     1       2.795   7.199  18.762  0.00  0.00    +0.000 C 
BRANCH  14  15
ATOM     15  O   UNL     1       2.236   6.072  18.104  0.00  0.00    +0.000 OA
BRANCH  15  21
ATOM     16  C   UNL     1       3.533   1.357  18.563  0.00  0.00    +0.000 C 
ATOM     17  C   UNL     1       2.766   2.568  19.024  0.00  0.00    +0.000 A 
ATOM     18  C   UNL     1       1.961   2.460  20.167  0.00  0.00    +0.000 A 
ATOM     19  C   UNL     1       1.249   3.557  20.638  0.00  0.00    +0.000 A 
ATOM     20  C   UNL     1       1.332   4.780  19.976  0.00  0.00    +0.000 A 
ATOM     21  C   UNL     1       2.114   4.911  18.822  0.00  0.00    +0.000 A 
ATOM     22  C   UNL     1       2.837   3.802  18.334  0.00  0.00    +0.000 A 
ATOM     23  C   UNL     1       3.673   3.915  17.082  0.00  0.00    +0.000 C 
ENDBRANCH  15  21
ENDBRANCH  14  15
ENDBRANCH  12  14
ENDBRANCH   1  12
BRANCH   7  24
ATOM     24  C   UNL     1      -1.501  12.420  19.697  0.00  0.00    +0.000 C 
ATOM     25  C   UNL     1      -3.008  12.428  19.330  0.00  0.00    +0.000 C 
BRANCH  24  26
ATOM     26  C   UNL     1      -1.004  13.894  19.595  0.00  0.00    +0.000 C 
ATOM     27  O   UNL     1      -1.535  14.834  20.201  0.00  0.00    +0.000 OA
ATOM     28  N   UNL     1       0.051  14.159  18.762  0.00  0.00    +0.000 N 
ATOM     29  H   UNL     1       0.445  13.412  18.199  0.00  0.00    +0.000 HD
BRANCH  28  30
ATOM     30  C   UNL     1       0.443  15.553  18.637  0.00  0.00    +0.000 C 
BRANCH  30  31
ATOM     31  C   UNL     1       1.927  15.810  18.775  0.00  0.00    +0.000 C 
ATOM     32  C   UNL     1       2.801  14.689  18.224  0.00  0.00    +0.000 C 
ATOM     33  C   UNL     1       3.980  14.695  19.157  0.00  0.00    +0.000 C 
ATOM     34  C   UNL     1       3.367  15.132  20.472  0.00  0.00    +0.000 C 
ATOM     35  O   UNL     1       2.250  15.966  20.168  0.00  0.00    +0.000 OA
ENDBRANCH  30  31
ENDBRANCH  28  30
ENDBRANCH  24  26
ENDBRANCH   7  24
TORSDOF 8
ENDMDL
MODEL 8
REMARK VINA RESULT:      -8.0      4.481     10.390
REMARK  Name = 
REMARK  11 active torsions:
REMARK  status: ('A' for Active; 'I' for Inactive)
REMARK    1  A    between atoms: C_1  and  C_2
REMARK    2  A    between atoms: C_6  and  O_7
REMARK    3  A    between atoms: O_7  and  C_8
REMARK    4  A    between atoms: C_8  and  C_9
REMARK    5  A    between atoms: C_9  and  C_11
REMARK    6  A    between atoms: N_17  and  C_18
REMARK    7  A    between atoms: C_18  and  C_19
REMARK    8  A    between atoms: C_18  and  C_20
REMARK    9  A    between atoms: N_22  and  C_23
REMARK   10  A    between atoms: C_23  and  C_24
REMARK   11  A    between atoms: C_33  and  C_34
REMARK                            x       y       z     vdW  Elec       q    Type
REMARK                         _______ _______ _______ _____ _____    ______ ____
ROOT
ATOM      1  C   UNL     1       0.853   8.964  21.035  0.00  0.00    +0.000 A 
ATOM      2  C   UNL     1       0.729   8.763  22.403  0.00  0.00    +0.000 A 
ATOM      3  C   UNL     1       0.024   9.668  23.165  0.00  0.00    +0.000 A 
ATOM      4  C   UNL     1      -0.602  10.751  22.557  0.00  0.00    +0.000 A 
ATOM      5  C   UNL     1      -0.522  10.991  21.173  0.00  0.00    +0.000 A 
ATOM      6  C   UNL     1       0.270  10.099  20.430  0.00  0.00    +0.000 A 
ATOM      7  N   UNL     1      -1.230  12.126  20.610  0.00  0.00    +0.000 N 
ATOM      8  C   UNL     1      -2.013  12.880  21.486  0.00  0.00    +0.000 C 
ATOM      9  O   UNL     1      -2.612  13.944  21.217  0.00  0.00    +0.000 OA
ATOM     10  C   UNL     1      -2.225  12.340  22.872  0.00  0.00    +0.000 C 
ATOM     11  O   UNL     1      -1.233  11.551  23.458  0.00  0.00    +0.000 OA
ENDROOT
BRANCH   1  12
ATOM     12  C   UNL     1       1.568   7.939  20.237  0.00  0.00    +0.000 C 
ATOM     13  O   UNL     1       1.724   6.799  20.738  0.00  0.00    +0.000 OA
BRANCH  12  14
ATOM     14  C   UNL     1       2.114   8.310  18.878  0.00  0.00    +0.000 C 
BRANCH  14  15
ATOM     15  O   UNL     1       1.978   7.214  17.985  0.00  0.00    +0.000 OA
BRANCH  15  21
ATOM     16  C   UNL     1       3.895   2.712  17.563  0.00  0.00    +0.000 C 
ATOM     17  C   UNL     1       4.025   4.212  17.536  0.00  0.00    +0.000 A 
ATOM     18  C   UNL     1       5.277   4.775  17.250  0.00  0.00    +0.000 A 
ATOM     19  C   UNL     1       5.439   6.154  17.197  0.00  0.00    +0.000 A 
ATOM     20  C   UNL     1       4.351   6.994  17.425  0.00  0.00    +0.000 A 
ATOM     21  C   UNL     1       3.094   6.459  17.731  0.00  0.00    +0.000 A 
ATOM     22  C   UNL     1       2.921   5.060  17.791  0.00  0.00    +0.000 A 
ATOM     23  C   UNL     1       1.578   4.462  18.136  0.00  0.00    +0.000 C 
ENDBRANCH  15  21
ENDBRANCH  14  15
ENDBRANCH  12  14
ENDBRANCH   1  12
BRANCH   7  24
ATOM     24  C   UNL     1      -1.085  12.471  19.149  0.00  0.00    +0.000 C 
ATOM     25  C   UNL     1       0.371  12.385  18.620  0.00  0.00    +0.000 C 
BRANCH  24  26
ATOM     26  C   UNL     1      -1.980  11.693  18.138  0.00  0.00    +0.000 C 
ATOM     27  O   UNL     1      -1.587  10.707  17.501  0.00  0.00    +0.000 OA
ATOM     28  N   UNL     1      -3.253  12.152  17.923  0.00  0.00    +0.000 N 
ATOM     29  H   UNL     1      -3.562  13.004  18.379  0.00  0.00    +0.000 HD
BRANCH  28  30
ATOM     30  C   UNL     1      -4.035  11.445  16.923  0.00  0.00    +0.000 C 
BRANCH  30  31
ATOM     31  C   UNL     1      -5.514  11.347  17.226  0.00  0.00    +0.000 C 
ATOM     32  C   UNL     1      -6.248  12.682  17.152  0.00  0.00    +0.000 C 
ATOM     33  C   UNL     1      -7.290  12.550  18.227  0.00  0.00    +0.000 C 
ATOM     34  C   UNL     1      -6.606  11.672  19.255  0.00  0.00    +0.000 C 
ATOM     35  O   UNL     1      -5.689  10.831  18.557  0.00  0.00    +0.000 OA
ENDBRANCH  30  31
ENDBRANCH  28  30
ENDBRANCH  24  26
ENDBRANCH   7  24
TORSDOF 8
ENDMDL
MODEL 9
REMARK VINA RESULT:      -7.9      0.720      1.484
REMARK  Name = 
REMARK  11 active torsions:
REMARK  status: ('A' for Active; 'I' for Inactive)
REMARK    1  A    between atoms: C_1  and  C_2
REMARK    2  A    between atoms: C_6  and  O_7
REMARK    3  A    between atoms: O_7  and  C_8
REMARK    4  A    between atoms: C_8  and  C_9
REMARK    5  A    between atoms: C_9  and  C_11
REMARK    6  A    between atoms: N_17  and  C_18
REMARK    7  A    between atoms: C_18  and  C_19
REMARK    8  A    between atoms: C_18  and  C_20
REMARK    9  A    between atoms: N_22  and  C_23
REMARK   10  A    between atoms: C_23  and  C_24
REMARK   11  A    between atoms: C_33  and  C_34
REMARK                            x       y       z     vdW  Elec       q    Type
REMARK                         _______ _______ _______ _____ _____    ______ ____
ROOT
ATOM      1  C   UNL     1       2.741   4.903  19.395  0.00  0.00    +0.000 A 
ATOM      2  C   UNL     1       2.095   4.032  18.528  0.00  0.00    +0.000 A 
ATOM      3  C   UNL     1       2.716   3.643  17.362  0.00  0.00    +0.000 A 
ATOM      4  C   UNL     1       4.005   4.083  17.081  0.00  0.00    +0.000 A 
ATOM      5  C   UNL     1       4.710   4.952  17.933  0.00  0.00    +0.000 A 
ATOM      6  C   UNL     1       4.024   5.399  19.075  0.00  0.00    +0.000 A 
ATOM      7  N   UNL     1       6.065   5.340  17.584  0.00  0.00    +0.000 N 
ATOM      8  C   UNL     1       6.612   4.762  16.439  0.00  0.00    +0.000 C 
ATOM      9  O   UNL     1       7.715   5.041  15.920  0.00  0.00    +0.000 OA
ATOM     10  C   UNL     1       5.848   3.642  15.790  0.00  0.00    +0.000 C 
ATOM     11  O   UNL     1       4.455   3.620  15.883  0.00  0.00    +0.000 OA
ENDROOT
BRANCH   1  12
ATOM     12  C   UNL     1       2.067   5.254  20.669  0.00  0.00    +0.000 C 
ATOM     13  O   UNL     1       2.286   4.534  21.673  0.00  0.00    +0.000 OA
BRANCH  12  14
ATOM     14  C   UNL     1       1.120   6.430  20.703  0.00  0.00    +0.000 C 
BRANCH  14  15
ATOM     15  O   UNL     1       1.853   7.638  20.839  0.00  0.00    +0.000 OA
BRANCH  15  21
ATOM     16  C   UNL     1      -0.584  11.826  21.645  0.00  0.00    +0.000 C 
ATOM     17  C   UNL     1       0.091  10.846  20.723  0.00  0.00    +0.000 A 
ATOM     18  C   UNL     1       0.142  11.136  19.351  0.00  0.00    +0.000 A 
ATOM     19  C   UNL     1       0.772  10.269  18.466  0.00  0.00    +0.000 A 
ATOM     20  C   UNL     1       1.364   9.099  18.937  0.00  0.00    +0.000 A 
ATOM     21  C   UNL     1       1.312   8.775  20.298  0.00  0.00    +0.000 A 
ATOM     22  C   UNL     1       0.672   9.648  21.204  0.00  0.00    +0.000 A 
ATOM     23  C   UNL     1       0.589   9.311  22.674  0.00  0.00    +0.000 C 
ENDBRANCH  15  21
ENDBRANCH  14  15
ENDBRANCH  12  14
ENDBRANCH   1  12
BRANCH   7  24
ATOM     24  C   UNL     1       6.812   6.348  18.421  0.00  0.00    +0.000 C 
ATOM     25  C   UNL     1       8.095   5.789  19.089  0.00  0.00    +0.000 C 
BRANCH  24  26
ATOM     26  C   UNL     1       7.208   7.692  17.738  0.00  0.00    +0.000 C 
ATOM     27  O   UNL     1       6.665   8.118  16.711  0.00  0.00    +0.000 OA
ATOM     28  N   UNL     1       8.235   8.414  18.289  0.00  0.00    +0.000 N 
ATOM     29  H   UNL     1       8.740   8.038  19.085  0.00  0.00    +0.000 HD
BRANCH  28  30
ATOM     30  C   UNL     1       8.623   9.625  17.587  0.00  0.00    +0.000 C 
BRANCH  30  31
ATOM     31  C   UNL     1       8.950  10.801  18.481  0.00  0.00    +0.000 C 
ATOM     32  C   UNL     1      10.367  11.335  18.305  0.00  0.00    +0.000 C 
ATOM     33  C   UNL     1      10.734  11.774  19.695  0.00  0.00    +0.000 C 
ATOM     34  C   UNL     1       9.977  10.796  20.569  0.00  0.00    +0.000 C 
ATOM     35  O   UNL     1       8.806  10.400  19.856  0.00  0.00    +0.000 OA
ENDBRANCH  30  31
ENDBRANCH  28  30
ENDBRANCH  24  26
ENDBRANCH   7  24
TORSDOF 8
ENDMDL
