MODEL 1
REMARK VINA RESULT:      -7.7      0.000      0.000
REMARK  Name = 
REMARK  9 active torsions:
REMARK  status: ('A' for Active; 'I' for Inactive)
REMARK    1  A    between atoms: C_1  and  C_2
REMARK    2  A    between atoms: C_2  and  C_3
REMARK    3  A    between atoms: C_2  and  O_4
REMARK    4  A    between atoms: O_4  and  C_5
REMARK    5  A    between atoms: C_8  and  C_9
REMARK    6  A    between atoms: C_11  and  C_12
REMARK    7  A    between atoms: C_12  and  O_14
REMARK    8  A    between atoms: O_14  and  C_15
REMARK    9  A    between atoms: C_15  and  C_16
REMARK                            x       y       z     vdW  Elec       q    Type
REMARK                         _______ _______ _______ _____ _____    ______ ____
ROOT
ATOM      1  C   UNL     1       8.035   8.533  18.024  0.00  0.00    +0.000 A 
ATOM      2  N   UNL     1       7.134   8.162  17.131  0.00  0.00    +0.000 NA
ATOM      3  C   UNL     1       6.952   6.808  17.378  0.00  0.00    +0.000 A 
ATOM      4  C   UNL     1       7.772   6.432  18.417  0.00  0.00    +0.000 A 
ATOM      5  O   UNL     1       8.472   7.519  18.835  0.00  0.00    +0.000 OA
ENDROOT
BRANCH   1   9
ATOM      6  C   UNL     1       9.817  12.364  18.754  0.00  0.00    +0.000 A 
ATOM      7  C   UNL     1      10.138  11.261  19.540  0.00  0.00    +0.000 A 
ATOM      8  C   UNL     1       9.535  10.021  19.303  0.00  0.00    +0.000 A 
ATOM      9  C   UNL     1       8.589   9.862  18.282  0.00  0.00    +0.000 A 
ATOM     10  C   UNL     1       8.228  10.988  17.531  0.00  0.00    +0.000 A 
ATOM     11  C   UNL     1       8.839  12.228  17.766  0.00  0.00    +0.000 A 
BRANCH   6  12
ATOM     12  O   UNL     1      10.375  13.609  18.850  0.00  0.00    +0.000 OA
BRANCH  12  14
ATOM     13  C   UNL     1      11.114  15.698  17.961  0.00  0.00    +0.000 C 
ATOM     14  C   UNL     1      10.899  14.217  17.663  0.00  0.00    +0.000 C 
ATOM     15  C   UNL     1      12.222  13.552  17.296  0.00  0.00    +0.000 C 
ENDBRANCH  12  14
ENDBRANCH   6  12
ENDBRANCH   1   9
BRANCH   3  16
ATOM     16  C   UNL     1       6.091   5.909  16.625  0.00  0.00    +0.000 C 
ATOM     17  O   UNL     1       6.462   5.348  15.598  0.00  0.00    +0.000 OA
BRANCH  16  18
ATOM     18  O   UNL     1       4.826   5.836  17.131  0.00  0.00    +0.000 OA
BRANCH  18  19
ATOM     19  C   UNL     1       4.193   4.560  16.998  0.00  0.00    +0.000 C 
BRANCH  19  20
ATOM     20  C   UNL     1       3.095   4.359  18.009  0.00  0.00    +0.000 A 
ATOM     21  C   UNL     1       2.107   3.385  17.803  0.00  0.00    +0.000 A 
ATOM     22  C   UNL     1       1.122   3.158  18.764  0.00  0.00    +0.000 A 
ATOM     23  C   UNL     1       1.106   3.909  19.938  0.00  0.00    +0.000 A 
ATOM     24  C   UNL     1       2.074   4.890  20.149  0.00  0.00    +0.000 A 
ATOM     25  C   UNL     1       3.061   5.118  19.188  0.00  0.00    +0.000 A 
ENDBRANCH  19  20
ENDBRANCH  18  19
ENDBRANCH  16  18
ENDBRANCH   3  16
TORSDOF 7
ENDMDL
MODEL 2
REMARK VINA RESULT:      -7.7      1.078      1.809
REMARK  Name = 
REMARK  9 active torsions:
REMARK  status: ('A' for Active; 'I' for Inactive)
REMARK    1  A    between atoms: C_1  and  C_2
REMARK    2  A    between atoms: C_2  and  C_3
REMARK    3  A    between atoms: C_2  and  O_4
REMARK    4  A    between atoms: O_4  and  C_5
REMARK    5  A    between atoms: C_8  and  C_9
REMARK    6  A    between atoms: C_11  and  C_12
REMARK    7  A    between atoms: C_12  and  O_14
REMARK    8  A    between atoms: O_14  and  C_15
REMARK    9  A    between atoms: C_15  and  C_16
REMARK                            x       y       z     vdW  Elec       q    Type
REMARK                         _______ _______ _______ _____ _____    ______ ____
ROOT
ATOM      1  C   UNL     1       8.177   8.239  18.114  0.00  0.00    +0.000 A 
ATOM      2  N   UNL     1       7.538   7.801  17.043  0.00  0.00    +0.000 NA
ATOM      3  C   UNL     1       7.325   6.454  17.304  0.00  0.00    +0.000 A 
ATOM      4  C   UNL     1       7.862   6.150  18.534  0.00  0.00    +0.000 A 
ATOM      5  O   UNL     1       8.413   7.275  19.060  0.00  0.00    +0.000 OA
ENDROOT
BRANCH   1   9
ATOM      6  C   UNL     1       9.318  12.266  19.042  0.00  0.00    +0.000 A 
ATOM      7  C   UNL     1       8.725  11.951  17.823  0.00  0.00    +0.000 A 
ATOM      8  C   UNL     1       8.375  10.629  17.526  0.00  0.00    +0.000 A 
ATOM      9  C   UNL     1       8.622   9.594  18.436  0.00  0.00    +0.000 A 
ATOM     10  C   UNL     1       9.270   9.908  19.638  0.00  0.00    +0.000 A 
ATOM     11  C   UNL     1       9.614  11.235  19.937  0.00  0.00    +0.000 A 
BRANCH   6  12
ATOM     12  O   UNL     1       9.656  13.520  19.471  0.00  0.00    +0.000 OA
BRANCH  12  14
ATOM     13  C   UNL     1      11.913  13.777  18.736  0.00  0.00    +0.000 C 
ATOM     14  C   UNL     1      10.988  13.744  19.950  0.00  0.00    +0.000 C 
ATOM     15  C   UNL     1      11.042  15.074  20.694  0.00  0.00    +0.000 C 
ENDBRANCH  12  14
ENDBRANCH   6  12
ENDBRANCH   1   9
BRANCH   3  16
ATOM     16  C   UNL     1       6.700   5.496  16.405  0.00  0.00    +0.000 C 
ATOM     17  O   UNL     1       7.333   4.890  15.545  0.00  0.00    +0.000 OA
BRANCH  16  18
ATOM     18  O   UNL     1       5.348   5.421  16.565  0.00  0.00    +0.000 OA
BRANCH  18  19
ATOM     19  C   UNL     1       4.778   4.135  16.304  0.00  0.00    +0.000 C 
BRANCH  19  20
ATOM     20  C   UNL     1       3.639   3.815  17.237  0.00  0.00    +0.000 A 
ATOM     21  C   UNL     1       2.781   4.830  17.687  0.00  0.00    +0.000 A 
ATOM     22  C   UNL     1       1.692   4.527  18.505  0.00  0.00    +0.000 A 
ATOM     23  C   UNL     1       1.453   3.209  18.890  0.00  0.00    +0.000 A 
ATOM     24  C   UNL     1       2.306   2.193  18.461  0.00  0.00    +0.000 A 
ATOM     25  C   UNL     1       3.397   2.495  17.641  0.00  0.00    +0.000 A 
ENDBRANCH  19  20
ENDBRANCH  18  19
ENDBRANCH  16  18
ENDBRANCH   3  16
TORSDOF 7
ENDMDL
MODEL 3
REMARK VINA RESULT:      -7.6      6.000      8.057
REMARK  Name = 
REMARK  9 active torsions:
REMARK  status: ('A' for Active; 'I' for Inactive)
REMARK    1  A    between atoms: C_1  and  C_2
REMARK    2  A    between atoms: C_2  and  C_3
REMARK    3  A    between atoms: C_2  and  O_4
REMARK    4  A    between atoms: O_4  and  C_5
REMARK    5  A    between atoms: C_8  and  C_9
REMARK    6  A    between atoms: C_11  and  C_12
REMARK    7  A    between atoms: C_12  and  O_14
REMARK    8  A    between atoms: O_14  and  C_15
REMARK    9  A    between atoms: C_15  and  C_16
REMARK                            x       y       z     vdW  Elec       q    Type
REMARK                         _______ _______ _______ _____ _____    ______ ____
ROOT
ATOM      1  C   UNL     1       1.809   8.294  19.525  0.00  0.00    +0.000 A 
ATOM      2  N   UNL     1       2.507   7.182  19.686  0.00  0.00    +0.000 NA
ATOM      3  C   UNL     1       3.080   6.960  18.442  0.00  0.00    +0.000 A 
ATOM      4  C   UNL     1       2.684   7.962  17.585  0.00  0.00    +0.000 A 
ATOM      5  O   UNL     1       1.869   8.816  18.260  0.00  0.00    +0.000 OA
ENDROOT
BRANCH   1   9
ATOM      6  C   UNL     1      -0.622  10.461  22.315  0.00  0.00    +0.000 A 
ATOM      7  C   UNL     1      -0.592  10.808  20.967  0.00  0.00    +0.000 A 
ATOM      8  C   UNL     1       0.221  10.104  20.071  0.00  0.00    +0.000 A 
ATOM      9  C   UNL     1       1.029   9.047  20.507  0.00  0.00    +0.000 A 
ATOM     10  C   UNL     1       1.038   8.738  21.873  0.00  0.00    +0.000 A 
ATOM     11  C   UNL     1       0.217   9.440  22.768  0.00  0.00    +0.000 A 
BRANCH   6  12
ATOM     12  O   UNL     1      -1.410  11.033  23.275  0.00  0.00    +0.000 OA
BRANCH  12  14
ATOM     13  C   UNL     1      -3.394  12.258  23.788  0.00  0.00    +0.000 C 
ATOM     14  C   UNL     1      -2.118  12.236  22.950  0.00  0.00    +0.000 C 
ATOM     15  C   UNL     1      -1.245  13.442  23.281  0.00  0.00    +0.000 C 
ENDBRANCH  12  14
ENDBRANCH   6  12
ENDBRANCH   1   9
BRANCH   3  16
ATOM     16  C   UNL     1       3.909   5.823  18.071  0.00  0.00    +0.000 C 
ATOM     17  O   UNL     1       5.095   5.746  18.378  0.00  0.00    +0.000 OA
BRANCH  16  18
ATOM     18  O   UNL     1       3.253   4.922  17.286  0.00  0.00    +0.000 OA
BRANCH  18  19
ATOM     19  C   UNL     1       3.350   3.561  17.716  0.00  0.00    +0.000 C 
BRANCH  19  20
ATOM     20  C   UNL     1       2.673   3.331  19.042  0.00  0.00    +0.000 A 
ATOM     21  C   UNL     1       1.290   3.520  19.177  0.00  0.00    +0.000 A 
ATOM     22  C   UNL     1       0.652   3.253  20.389  0.00  0.00    +0.000 A 
ATOM     23  C   UNL     1       1.391   2.805  21.483  0.00  0.00    +0.000 A 
ATOM     24  C   UNL     1       2.769   2.627  21.366  0.00  0.00    +0.000 A 
ATOM     25  C   UNL     1       3.408   2.893  20.153  0.00  0.00    +0.000 A 
ENDBRANCH  19  20
ENDBRANCH  18  19
ENDBRANCH  16  18
ENDBRANCH   3  16
TORSDOF 7
ENDMDL
MODEL 4
REMARK VINA RESULT:      -7.6      1.268      1.603
REMARK  Name = 
REMARK  9 active torsions:
REMARK  status: ('A' for Active; 'I' for Inactive)
REMARK    1  A    between atoms: C_1  and  C_2
REMARK    2  A    between atoms: C_2  and  C_3
REMARK    3  A    between atoms: C_2  and  O_4
REMARK    4  A    between atoms: O_4  and  C_5
REMARK    5  A    between atoms: C_8  and  C_9
REMARK    6  A    between atoms: C_11  and  C_12
REMARK    7  A    between atoms: C_12  and  O_14
REMARK    8  A    between atoms: O_14  and  C_15
REMARK    9  A    between atoms: C_15  and  C_16
REMARK                            x       y       z     vdW  Elec       q    Type
REMARK                         _______ _______ _______ _____ _____    ______ ____
ROOT
ATOM      1  C   UNL     1       8.224   8.641  18.089  0.00  0.00    +0.000 A 
ATOM      2  N   UNL     1       7.510   8.192  17.072  0.00  0.00    +0.000 NA
ATOM      3  C   UNL     1       7.377   6.834  17.327  0.00  0.00    +0.000 A 
ATOM      4  C   UNL     1       8.035   6.535  18.499  0.00  0.00    +0.000 A 
ATOM      5  O   UNL     1       8.584   7.676  18.993  0.00  0.00    +0.000 OA
ENDROOT
BRANCH   1   9
ATOM      6  C   UNL     1       9.609  12.600  18.984  0.00  0.00    +0.000 A 
ATOM      7  C   UNL     1       9.861  11.538  19.849  0.00  0.00    +0.000 A 
ATOM      8  C   UNL     1       9.386  10.255  19.553  0.00  0.00    +0.000 A 
ATOM      9  C   UNL     1       8.641  10.010  18.394  0.00  0.00    +0.000 A 
ATOM     10  C   UNL     1       8.342  11.092  17.556  0.00  0.00    +0.000 A 
ATOM     11  C   UNL     1       8.824  12.376  17.850  0.00  0.00    +0.000 A 
BRANCH   6  12
ATOM     12  O   UNL     1      10.062  13.881  19.132  0.00  0.00    +0.000 OA
BRANCH  12  14
ATOM     13  C   UNL     1      10.923  15.545  20.613  0.00  0.00    +0.000 C 
ATOM     14  C   UNL     1       9.777  14.570  20.356  0.00  0.00    +0.000 C 
ATOM     15  C   UNL     1       8.459  15.325  20.218  0.00  0.00    +0.000 C 
ENDBRANCH  12  14
ENDBRANCH   6  12
ENDBRANCH   1   9
BRANCH   3  16
ATOM     16  C   UNL     1       6.713   5.862  16.471  0.00  0.00    +0.000 C 
ATOM     17  O   UNL     1       7.208   5.463  15.422  0.00  0.00    +0.000 OA
BRANCH  16  18
ATOM     18  O   UNL     1       5.468   5.527  16.915  0.00  0.00    +0.000 OA
BRANCH  18  19
ATOM     19  C   UNL     1       5.382   4.264  17.581  0.00  0.00    +0.000 C 
BRANCH  19  20
ATOM     20  C   UNL     1       3.956   3.832  17.806  0.00  0.00    +0.000 A 
ATOM     21  C   UNL     1       3.658   2.498  18.122  0.00  0.00    +0.000 A 
ATOM     22  C   UNL     1       2.345   2.109  18.388  0.00  0.00    +0.000 A 
ATOM     23  C   UNL     1       1.314   3.044  18.330  0.00  0.00    +0.000 A 
ATOM     24  C   UNL     1       1.595   4.370  18.004  0.00  0.00    +0.000 A 
ATOM     25  C   UNL     1       2.909   4.762  17.739  0.00  0.00    +0.000 A 
ENDBRANCH  19  20
ENDBRANCH  18  19
ENDBRANCH  16  18
ENDBRANCH   3  16
TORSDOF 7
ENDMDL
MODEL 5
REMARK VINA RESULT:      -7.6      0.823      1.411
REMARK  Name = 
REMARK  9 active torsions:
REMARK  status: ('A' for Active; 'I' for Inactive)
REMARK    1  A    between atoms: C_1  and  C_2
REMARK    2  A    between atoms: C_2  and  C_3
REMARK    3  A    between atoms: C_2  and  O_4
REMARK    4  A    between atoms: O_4  and  C_5
REMARK    5  A    between atoms: C_8  and  C_9
REMARK    6  A    between atoms: C_11  and  C_12
REMARK    7  A    between atoms: C_12  and  O_14
REMARK    8  A    between atoms: O_14  and  C_15
REMARK    9  A    between atoms: C_15  and  C_16
REMARK                            x       y       z     vdW  Elec       q    Type
REMARK                         _______ _______ _______ _____ _____    ______ ____
ROOT
ATOM      1  C   UNL     1       8.044   8.521  18.014  0.00  0.00    +0.000 A 
ATOM      2  N   UNL     1       7.116   8.241  17.115  0.00  0.00    +0.000 NA
ATOM      3  C   UNL     1       6.909   6.877  17.258  0.00  0.00    +0.000 A 
ATOM      4  C   UNL     1       7.742   6.401  18.245  0.00  0.00    +0.000 A 
ATOM      5  O   UNL     1       8.476   7.437  18.732  0.00  0.00    +0.000 OA
ENDROOT
BRANCH   1   9
ATOM      6  C   UNL     1       9.612  12.376  19.048  0.00  0.00    +0.000 A 
ATOM      7  C   UNL     1       8.864  12.192  17.888  0.00  0.00    +0.000 A 
ATOM      8  C   UNL     1       8.375  10.924  17.553  0.00  0.00    +0.000 A 
ATOM      9  C   UNL     1       8.633   9.813  18.365  0.00  0.00    +0.000 A 
ATOM     10  C   UNL     1       9.433   9.993  19.501  0.00  0.00    +0.000 A 
ATOM     11  C   UNL     1       9.916  11.266  19.838  0.00  0.00    +0.000 A 
BRANCH   6  12
ATOM     12  O   UNL     1      10.097  13.568  19.510  0.00  0.00    +0.000 OA
BRANCH  12  14
ATOM     13  C   UNL     1      11.039  15.745  19.238  0.00  0.00    +0.000 C 
ATOM     14  C   UNL     1      10.949  14.338  18.653  0.00  0.00    +0.000 C 
ATOM     15  C   UNL     1      12.332  13.695  18.604  0.00  0.00    +0.000 C 
ENDBRANCH  12  14
ENDBRANCH   6  12
ENDBRANCH   1   9
BRANCH   3  16
ATOM     16  C   UNL     1       6.012   6.058  16.455  0.00  0.00    +0.000 C 
ATOM     17  O   UNL     1       5.706   6.352  15.304  0.00  0.00    +0.000 OA
BRANCH  16  18
ATOM     18  O   UNL     1       5.494   5.003  17.148  0.00  0.00    +0.000 OA
BRANCH  18  19
ATOM     19  C   UNL     1       4.495   5.345  18.113  0.00  0.00    +0.000 C 
BRANCH  19  20
ATOM     20  C   UNL     1       3.418   4.297  18.216  0.00  0.00    +0.000 A 
ATOM     21  C   UNL     1       3.626   3.010  17.698  0.00  0.00    +0.000 A 
ATOM     22  C   UNL     1       2.652   2.021  17.844  0.00  0.00    +0.000 A 
ATOM     23  C   UNL     1       1.456   2.310  18.498  0.00  0.00    +0.000 A 
ATOM     24  C   UNL     1       1.232   3.589  19.005  0.00  0.00    +0.000 A 
ATOM     25  C   UNL     1       2.206   4.579  18.861  0.00  0.00    +0.000 A 
ENDBRANCH  19  20
ENDBRANCH  18  19
ENDBRANCH  16  18
ENDBRANCH   3  16
TORSDOF 7
ENDMDL
MODEL 6
REMARK VINA RESULT:      -7.6      4.549      7.524
REMARK  Name = 
REMARK  9 active torsions:
REMARK  status: ('A' for Active; 'I' for Inactive)
REMARK    1  A    between atoms: C_1  and  C_2
REMARK    2  A    between atoms: C_2  and  C_3
REMARK    3  A    between atoms: C_2  and  O_4
REMARK    4  A    between atoms: O_4  and  C_5
REMARK    5  A    between atoms: C_8  and  C_9
REMARK    6  A    between atoms: C_11  and  C_12
REMARK    7  A    between atoms: C_12  and  O_14
REMARK    8  A    between atoms: O_14  and  C_15
REMARK    9  A    between atoms: C_15  and  C_16
REMARK                            x       y       z     vdW  Elec       q    Type
REMARK                         _______ _______ _______ _____ _____    ______ ____
ROOT
ATOM      1  C   UNL     1       2.831   6.506  18.819  0.00  0.00    +0.000 A 
ATOM      2  N   UNL     1       2.969   5.825  17.694  0.00  0.00    +0.000 NA
ATOM      3  C   UNL     1       3.681   4.695  18.069  0.00  0.00    +0.000 A 
ATOM      4  C   UNL     1       3.943   4.762  19.419  0.00  0.00    +0.000 A 
ATOM      5  O   UNL     1       3.412   5.913  19.909  0.00  0.00    +0.000 OA
ENDROOT
BRANCH   1   9
ATOM      6  C   UNL     1       0.638  10.144  19.403  0.00  0.00    +0.000 A 
ATOM      7  C   UNL     1       1.188   9.828  18.164  0.00  0.00    +0.000 A 
ATOM      8  C   UNL     1       1.918   8.646  17.992  0.00  0.00    +0.000 A 
ATOM      9  C   UNL     1       2.122   7.762  19.059  0.00  0.00    +0.000 A 
ATOM     10  C   UNL     1       1.614   8.113  20.317  0.00  0.00    +0.000 A 
ATOM     11  C   UNL     1       0.877   9.294  20.485  0.00  0.00    +0.000 A 
BRANCH   6  12
ATOM     12  O   UNL     1      -0.137  11.235  19.683  0.00  0.00    +0.000 OA
BRANCH  12  14
ATOM     13  C   UNL     1      -2.301  11.924  18.946  0.00  0.00    +0.000 C 
ATOM     14  C   UNL     1      -0.815  11.888  18.602  0.00  0.00    +0.000 C 
ATOM     15  C   UNL     1      -0.272  13.305  18.447  0.00  0.00    +0.000 C 
ENDBRANCH  12  14
ENDBRANCH   6  12
ENDBRANCH   1   9
BRANCH   3  16
ATOM     16  C   UNL     1       4.142   3.639  17.180  0.00  0.00    +0.000 C 
ATOM     17  O   UNL     1       4.013   2.448  17.451  0.00  0.00    +0.000 OA
BRANCH  16  18
ATOM     18  O   UNL     1       4.797   4.115  16.083  0.00  0.00    +0.000 OA
BRANCH  18  19
ATOM     19  C   UNL     1       6.223   4.019  16.141  0.00  0.00    +0.000 C 
BRANCH  19  20
ATOM     20  C   UNL     1       6.833   5.084  17.015  0.00  0.00    +0.000 A 
ATOM     21  C   UNL     1       7.456   4.742  18.225  0.00  0.00    +0.000 A 
ATOM     22  C   UNL     1       8.071   5.719  19.007  0.00  0.00    +0.000 A 
ATOM     23  C   UNL     1       8.062   7.051  18.596  0.00  0.00    +0.000 A 
ATOM     24  C   UNL     1       7.435   7.406  17.403  0.00  0.00    +0.000 A 
ATOM     25  C   UNL     1       6.819   6.428  16.618  0.00  0.00    +0.000 A 
ENDBRANCH  19  20
ENDBRANCH  18  19
ENDBRANCH  16  18
ENDBRANCH   3  16
TORSDOF 7
ENDMDL
MODEL 7
REMARK VINA RESULT:      -7.6      0.942      1.499
REMARK  Name = 
REMARK  9 active torsions:
REMARK  status: ('A' for Active; 'I' for Inactive)
REMARK    1  A    between atoms: C_1  and  C_2
REMARK    2  A    between atoms: C_2  and  C_3
REMARK    3  A    between atoms: C_2  and  O_4
REMARK    4  A    between atoms: O_4  and  C_5
REMARK    5  A    between atoms: C_8  and  C_9
REMARK    6  A    between atoms: C_11  and  C_12
REMARK    7  A    between atoms: C_12  and  O_14
REMARK    8  A    between atoms: O_14  and  C_15
REMARK    9  A    between atoms: C_15  and  C_16
REMARK                            x       y       z     vdW  Elec       q    Type
REMARK                         _______ _______ _______ _____ _____    ______ ____
ROOT
ATOM      1  C   UNL     1       8.095   8.751  18.055  0.00  0.00    +0.000 A 
ATOM      2  N   UNL     1       7.142   8.485  17.179  0.00  0.00    +0.000 NA
ATOM      3  C   UNL     1       6.915   7.124  17.331  0.00  0.00    +0.000 A 
ATOM      4  C   UNL     1       7.762   6.638  18.301  0.00  0.00    +0.000 A 
ATOM      5  O   UNL     1       8.524   7.662  18.767  0.00  0.00    +0.000 OA
ENDROOT
BRANCH   1   9
ATOM      6  C   UNL     1      10.065  12.439  19.010  0.00  0.00    +0.000 A 
ATOM      7  C   UNL     1      10.241  11.305  19.798  0.00  0.00    +0.000 A 
ATOM      8  C   UNL     1       9.577  10.113  19.485  0.00  0.00    +0.000 A 
ATOM      9  C   UNL     1       8.714  10.034  18.386  0.00  0.00    +0.000 A 
ATOM     10  C   UNL     1       8.496  11.194  17.630  0.00  0.00    +0.000 A 
ATOM     11  C   UNL     1       9.168  12.385  17.941  0.00  0.00    +0.000 A 
BRANCH   6  12
ATOM     12  O   UNL     1      10.695  13.640  19.179  0.00  0.00    +0.000 OA
BRANCH  12  14
ATOM     13  C   UNL     1      10.157  14.721  21.238  0.00  0.00    +0.000 C 
ATOM     14  C   UNL     1       9.948  14.733  19.726  0.00  0.00    +0.000 C 
ATOM     15  C   UNL     1      10.456  16.043  19.131  0.00  0.00    +0.000 C 
ENDBRANCH  12  14
ENDBRANCH   6  12
ENDBRANCH   1   9
BRANCH   3  16
ATOM     16  C   UNL     1       5.986   6.318  16.554  0.00  0.00    +0.000 C 
ATOM     17  O   UNL     1       6.229   5.956  15.407  0.00  0.00    +0.000 OA
BRANCH  16  18
ATOM     18  O   UNL     1       4.805   6.096  17.200  0.00  0.00    +0.000 OA
BRANCH  18  19
ATOM     19  C   UNL     1       4.370   4.734  17.216  0.00  0.00    +0.000 C 
BRANCH  19  20
ATOM     20  C   UNL     1       3.291   4.490  18.238  0.00  0.00    +0.000 A 
ATOM     21  C   UNL     1       3.414   5.002  19.538  0.00  0.00    +0.000 A 
ATOM     22  C   UNL     1       2.390   4.827  20.470  0.00  0.00    +0.000 A 
ATOM     23  C   UNL     1       1.237   4.129  20.116  0.00  0.00    +0.000 A 
ATOM     24  C   UNL     1       1.108   3.603  18.832  0.00  0.00    +0.000 A 
ATOM     25  C   UNL     1       2.132   3.779  17.898  0.00  0.00    +0.000 A 
ENDBRANCH  19  20
ENDBRANCH  18  19
ENDBRANCH  16  18
ENDBRANCH   3  16
TORSDOF 7
ENDMDL
MODEL 8
REMARK VINA RESULT:      -7.6      4.571      7.612
REMARK  Name = 
REMARK  9 active torsions:
REMARK  status: ('A' for Active; 'I' for Inactive)
REMARK    1  A    between atoms: C_1  and  C_2
REMARK    2  A    between atoms: C_2  and  C_3
REMARK    3  A    between atoms: C_2  and  O_4
REMARK    4  A    between atoms: O_4  and  C_5
REMARK    5  A    between atoms: C_8  and  C_9
REMARK    6  A    between atoms: C_11  and  C_12
REMARK    7  A    between atoms: C_12  and  O_14
REMARK    8  A    between atoms: O_14  and  C_15
REMARK    9  A    between atoms: C_15  and  C_16
REMARK                            x       y       z     vdW  Elec       q    Type
REMARK                         _______ _______ _______ _____ _____    ______ ____
ROOT
ATOM      1  C   UNL     1       2.833   6.378  18.839  0.00  0.00    +0.000 A 
ATOM      2  N   UNL     1       3.130   5.786  17.695  0.00  0.00    +0.000 NA
ATOM      3  C   UNL     1       3.644   4.554  18.076  0.00  0.00    +0.000 A 
ATOM      4  C   UNL     1       3.633   4.474  19.450  0.00  0.00    +0.000 A 
ATOM      5  O   UNL     1       3.125   5.631  19.950  0.00  0.00    +0.000 OA
ENDROOT
BRANCH   1   9
ATOM      6  C   UNL     1       0.903  10.167  19.391  0.00  0.00    +0.000 A 
ATOM      7  C   UNL     1       1.527   9.848  18.189  0.00  0.00    +0.000 A 
ATOM      8  C   UNL     1       2.170   8.615  18.029  0.00  0.00    +0.000 A 
ATOM      9  C   UNL     1       2.211   7.681  19.072  0.00  0.00    +0.000 A 
ATOM     10  C   UNL     1       1.630   8.030  20.298  0.00  0.00    +0.000 A 
ATOM     11  C   UNL     1       0.981   9.263  20.454  0.00  0.00    +0.000 A 
BRANCH   6  12
ATOM     12  O   UNL     1       0.199  11.310  19.653  0.00  0.00    +0.000 OA
BRANCH  12  14
ATOM     13  C   UNL     1      -1.758  12.640  19.973  0.00  0.00    +0.000 C 
ATOM     14  C   UNL     1      -1.229  11.226  19.753  0.00  0.00    +0.000 C 
ATOM     15  C   UNL     1      -1.794  10.642  18.462  0.00  0.00    +0.000 C 
ENDBRANCH  12  14
ENDBRANCH   6  12
ENDBRANCH   1   9
BRANCH   3  16
ATOM     16  C   UNL     1       4.173   3.534  17.183  0.00  0.00    +0.000 C 
ATOM     17  O   UNL     1       4.104   2.336  17.441  0.00  0.00    +0.000 OA
BRANCH  16  18
ATOM     18  O   UNL     1       4.818   4.056  16.102  0.00  0.00    +0.000 OA
BRANCH  18  19
ATOM     19  C   UNL     1       6.243   3.937  16.130  0.00  0.00    +0.000 C 
BRANCH  19  20
ATOM     20  C   UNL     1       6.889   5.007  16.971  0.00  0.00    +0.000 A 
ATOM     21  C   UNL     1       6.858   6.349  16.561  0.00  0.00    +0.000 A 
ATOM     22  C   UNL     1       7.406   7.349  17.366  0.00  0.00    +0.000 A 
ATOM     23  C   UNL     1       8.000   7.019  18.582  0.00  0.00    +0.000 A 
ATOM     24  C   UNL     1       8.051   5.688  18.993  0.00  0.00    +0.000 A 
ATOM     25  C   UNL     1       7.502   4.686  18.190  0.00  0.00    +0.000 A 
ENDBRANCH  19  20
ENDBRANCH  18  19
ENDBRANCH  16  18
ENDBRANCH   3  16
TORSDOF 7
ENDMDL
MODEL 9
REMARK VINA RESULT:      -7.5      5.549      7.040
REMARK  Name = 
REMARK  9 active torsions:
REMARK  status: ('A' for Active; 'I' for Inactive)
REMARK    1  A    between atoms: C_1  and  C_2
REMARK    2  A    between atoms: C_2  and  C_3
REMARK    3  A    between atoms: C_2  and  O_4
REMARK    4  A    between atoms: O_4  and  C_5
REMARK    5  A    between atoms: C_8  and  C_9
REMARK    6  A    between atoms: C_11  and  C_12
REMARK    7  A    between atoms: C_12  and  O_14
REMARK    8  A    between atoms: O_14  and  C_15
REMARK    9  A    between atoms: C_15  and  C_16
REMARK                            x       y       z     vdW  Elec       q    Type
REMARK                         _______ _______ _______ _____ _____    ______ ____
ROOT
ATOM      1  C   UNL     1       3.159   7.124  17.975  0.00  0.00    +0.000 A 
ATOM      2  N   UNL     1       3.289   5.810  18.028  0.00  0.00    +0.000 NA
ATOM      3  C   UNL     1       4.337   5.539  17.160  0.00  0.00    +0.000 A 
ATOM      4  C   UNL     1       4.783   6.723  16.618  0.00  0.00    +0.000 A 
ATOM      5  O   UNL     1       4.038   7.741  17.124  0.00  0.00    +0.000 OA
ENDROOT
BRANCH   1   9
ATOM      6  C   UNL     1       0.361   9.635  20.037  0.00  0.00    +0.000 A 
ATOM      7  C   UNL     1       0.688   9.868  18.704  0.00  0.00    +0.000 A 
ATOM      8  C   UNL     1       1.618   9.052  18.049  0.00  0.00    +0.000 A 
ATOM      9  C   UNL     1       2.247   7.995  18.717  0.00  0.00    +0.000 A 
ATOM     10  C   UNL     1       1.956   7.800  20.074  0.00  0.00    +0.000 A 
ATOM     11  C   UNL     1       1.019   8.614  20.726  0.00  0.00    +0.000 A 
BRANCH   6  12
ATOM     12  O   UNL     1      -0.567  10.324  20.769  0.00  0.00    +0.000 OA
BRANCH  12  14
ATOM     13  C   UNL     1      -0.440  12.429  21.889  0.00  0.00    +0.000 C 
ATOM     14  C   UNL     1      -0.152  10.934  21.998  0.00  0.00    +0.000 C 
ATOM     15  C   UNL     1      -0.938  10.326  23.155  0.00  0.00    +0.000 C 
ENDBRANCH  12  14
ENDBRANCH   6  12
ENDBRANCH   1   9
BRANCH   3  16
ATOM     16  C   UNL     1       4.846   4.220  16.817  0.00  0.00    +0.000 C 
ATOM     17  O   UNL     1       5.179   3.919  15.674  0.00  0.00    +0.000 OA
BRANCH  16  18
ATOM     18  O   UNL     1       4.824   3.352  17.868  0.00  0.00    +0.000 OA
BRANCH  18  19
ATOM     19  C   UNL     1       3.712   2.451  17.886  0.00  0.00    +0.000 C 
BRANCH  19  20
ATOM     20  C   UNL     1       2.849   2.632  19.108  0.00  0.00    +0.000 A 
ATOM     21  C   UNL     1       1.466   2.828  18.979  0.00  0.00    +0.000 A 
ATOM     22  C   UNL     1       0.657   2.939  20.110  0.00  0.00    +0.000 A 
ATOM     23  C   UNL     1       1.222   2.866  21.383  0.00  0.00    +0.000 A 
ATOM     24  C   UNL     1       2.597   2.685  21.524  0.00  0.00    +0.000 A 
ATOM     25  C   UNL     1       3.408   2.573  20.392  0.00  0.00    +0.000 A 
ENDBRANCH  19  20
ENDBRANCH  18  19
ENDBRANCH  16  18
ENDBRANCH   3  16
TORSDOF 7
ENDMDL
