MODEL 1
REMARK VINA RESULT:      -7.2      0.000      0.000
REMARK  Name = 
REMARK  6 active torsions:
REMARK  status: ('A' for Active; 'I' for Inactive)
REMARK    1  A    between atoms: C_1  and  S_2
REMARK    2  A    between atoms: S_2  and  C_3
REMARK    3  A    between atoms: C_6  and  S_7
REMARK    4  A    between atoms: S_7  and  C_8
REMARK    5  A    between atoms: C_8  and  C_9
REMARK    6  A    between atoms: C_10  and  O_11
REMARK                            x       y       z     vdW  Elec       q    Type
REMARK                         _______ _______ _______ _____ _____    ______ ____
ROOT
ATOM      1  C   UNL     1       4.232   3.686  17.696  0.00  0.00    +0.000 C 
ATOM      2  C   UNL     1       4.996   3.371  18.753  0.00  0.00    +0.000 C 
ATOM      3  C   UNL     1       4.513   2.365  19.741  0.00  0.00    +0.000 C 
ATOM      4  O   UNL     1       5.236   1.541  20.279  0.00  0.00    +0.000 OA
ATOM      5  C   UNL     1       3.098   2.523  20.088  0.00  0.00    +0.000 A 
ATOM      6  C   UNL     1       2.671   2.247  21.385  0.00  0.00    +0.000 A 
ATOM      7  C   UNL     1       1.437   2.743  21.797  0.00  0.00    +0.000 A 
ATOM      8  C   UNL     1       0.645   3.476  20.905  0.00  0.00    +0.000 A 
ATOM      9  C   UNL     1       1.025   3.644  19.573  0.00  0.00    +0.000 A 
ATOM     10  C   UNL     1       2.269   3.152  19.163  0.00  0.00    +0.000 A 
ATOM     11  C   UNL     1       2.784   3.379  17.782  0.00  0.00    +0.000 C 
ATOM     12  O   UNL     1       2.036   3.412  16.823  0.00  0.00    +0.000 OA
ENDROOT
BRANCH   2  13
ATOM     13  O   UNL     1       6.169   4.046  19.025  0.00  0.00    +0.000 OA
ATOM     14  H   UNL     1       6.874   3.364  19.020  0.00  0.00    +0.000 HD
ENDBRANCH   2  13
BRANCH   1  15
ATOM     15  C   UNL     1       4.771   4.351  16.460  0.00  0.00    +0.000 C 
BRANCH  15  16
ATOM     16  S   UNL     1       5.434   5.993  16.882  0.00  0.00    +0.000 S 
BRANCH  16  20
ATOM     17  C   UNL     1       1.988   8.178  19.044  0.00  0.00    +0.000 A 
ATOM     18  C   UNL     1       2.667   7.109  19.629  0.00  0.00    +0.000 A 
ATOM     19  C   UNL     1       3.679   6.437  18.927  0.00  0.00    +0.000 A 
ATOM     20  C   UNL     1       4.033   6.812  17.628  0.00  0.00    +0.000 A 
ATOM     21  C   UNL     1       3.338   7.870  17.035  0.00  0.00    +0.000 A 
ATOM     22  C   UNL     1       2.313   8.531  17.728  0.00  0.00    +0.000 A 
BRANCH  17  24
ATOM     23  C   UNL     1       0.145  10.182  18.592  0.00  0.00    +0.000 C 
ATOM     24  S   UNL     1       0.721   9.076  19.913  0.00  0.00    +0.000 S 
ENDBRANCH  17  24
ENDBRANCH  16  20
ENDBRANCH  15  16
ENDBRANCH   1  15
TORSDOF 5
ENDMDL
MODEL 2
REMARK VINA RESULT:      -7.1      2.854      5.641
REMARK  Name = 
REMARK  6 active torsions:
REMARK  status: ('A' for Active; 'I' for Inactive)
REMARK    1  A    between atoms: C_1  and  S_2
REMARK    2  A    between atoms: S_2  and  C_3
REMARK    3  A    between atoms: C_6  and  S_7
REMARK    4  A    between atoms: S_7  and  C_8
REMARK    5  A    between atoms: C_8  and  C_9
REMARK    6  A    between atoms: C_10  and  O_11
REMARK                            x       y       z     vdW  Elec       q    Type
REMARK                         _______ _______ _______ _____ _____    ______ ____
ROOT
ATOM      1  C   UNL     1       5.393   5.819  18.223  0.00  0.00    +0.000 C 
ATOM      2  C   UNL     1       4.381   6.404  17.564  0.00  0.00    +0.000 C 
ATOM      3  C   UNL     1       2.987   6.260  18.072  0.00  0.00    +0.000 C 
ATOM      4  O   UNL     1       2.159   7.157  18.045  0.00  0.00    +0.000 OA
ATOM      5  C   UNL     1       2.666   4.901  18.517  0.00  0.00    +0.000 A 
ATOM      6  C   UNL     1       1.382   4.397  18.324  0.00  0.00    +0.000 A 
ATOM      7  C   UNL     1       1.191   3.021  18.403  0.00  0.00    +0.000 A 
ATOM      8  C   UNL     1       2.271   2.180  18.698  0.00  0.00    +0.000 A 
ATOM      9  C   UNL     1       3.527   2.702  19.008  0.00  0.00    +0.000 A 
ATOM     10  C   UNL     1       3.719   4.085  18.920  0.00  0.00    +0.000 A 
ATOM     11  C   UNL     1       5.057   4.704  19.143  0.00  0.00    +0.000 C 
ATOM     12  O   UNL     1       5.844   4.246  19.950  0.00  0.00    +0.000 OA
ENDROOT
BRANCH   2  13
ATOM     13  O   UNL     1       4.575   7.035  16.352  0.00  0.00    +0.000 OA
ATOM     14  H   UNL     1       5.266   6.514  15.890  0.00  0.00    +0.000 HD
ENDBRANCH   2  13
BRANCH   1  15
ATOM     15  C   UNL     1       6.830   6.222  18.050  0.00  0.00    +0.000 C 
BRANCH  15  16
ATOM     16  S   UNL     1       7.778   4.838  17.341  0.00  0.00    +0.000 S 
BRANCH  16  20
ATOM     17  C   UNL     1       5.749   3.796  13.326  0.00  0.00    +0.000 A 
ATOM     18  C   UNL     1       6.865   4.630  13.395  0.00  0.00    +0.000 A 
ATOM     19  C   UNL     1       7.431   4.964  14.635  0.00  0.00    +0.000 A 
ATOM     20  C   UNL     1       6.894   4.479  15.832  0.00  0.00    +0.000 A 
ATOM     21  C   UNL     1       5.763   3.659  15.762  0.00  0.00    +0.000 A 
ATOM     22  C   UNL     1       5.185   3.340  14.524  0.00  0.00    +0.000 A 
BRANCH  17  24
ATOM     23  C   UNL     1       5.903   1.765  11.463  0.00  0.00    +0.000 C 
ATOM     24  S   UNL     1       5.022   3.324  11.771  0.00  0.00    +0.000 S 
ENDBRANCH  17  24
ENDBRANCH  16  20
ENDBRANCH  15  16
ENDBRANCH   1  15
TORSDOF 5
ENDMDL
MODEL 3
REMARK VINA RESULT:      -7.1      2.666      4.795
REMARK  Name = 
REMARK  6 active torsions:
REMARK  status: ('A' for Active; 'I' for Inactive)
REMARK    1  A    between atoms: C_1  and  S_2
REMARK    2  A    between atoms: S_2  and  C_3
REMARK    3  A    between atoms: C_6  and  S_7
REMARK    4  A    between atoms: S_7  and  C_8
REMARK    5  A    between atoms: C_8  and  C_9
REMARK    6  A    between atoms: C_10  and  O_11
REMARK                            x       y       z     vdW  Elec       q    Type
REMARK                         _______ _______ _______ _____ _____    ______ ____
ROOT
ATOM      1  C   UNL     1       3.446   5.981  18.687  0.00  0.00    +0.000 C 
ATOM      2  C   UNL     1       4.232   5.083  19.299  0.00  0.00    +0.000 C 
ATOM      3  C   UNL     1       5.705   5.113  19.073  0.00  0.00    +0.000 C 
ATOM      4  O   UNL     1       6.530   4.895  19.946  0.00  0.00    +0.000 OA
ATOM      5  C   UNL     1       6.074   5.329  17.671  0.00  0.00    +0.000 A 
ATOM      6  C   UNL     1       7.205   4.705  17.151  0.00  0.00    +0.000 A 
ATOM      7  C   UNL     1       7.337   4.615  15.769  0.00  0.00    +0.000 A 
ATOM      8  C   UNL     1       6.358   5.170  14.935  0.00  0.00    +0.000 A 
ATOM      9  C   UNL     1       5.292   5.899  15.462  0.00  0.00    +0.000 A 
ATOM     10  C   UNL     1       5.157   5.981  16.852  0.00  0.00    +0.000 A 
ATOM     11  C   UNL     1       3.990   6.660  17.485  0.00  0.00    +0.000 C 
ATOM     12  O   UNL     1       3.471   7.637  16.980  0.00  0.00    +0.000 OA
ENDROOT
BRANCH   2  13
ATOM     13  O   UNL     1       3.704   4.045  20.041  0.00  0.00    +0.000 OA
ATOM     14  H   UNL     1       3.202   3.493  19.404  0.00  0.00    +0.000 HD
ENDBRANCH   2  13
BRANCH   1  15
ATOM     15  C   UNL     1       2.050   6.300  19.143  0.00  0.00    +0.000 C 
BRANCH  15  16
ATOM     16  S   UNL     1       2.109   7.235  20.704  0.00  0.00    +0.000 S 
BRANCH  16  20
ATOM     17  C   UNL     1      -0.408  10.910  19.486  0.00  0.00    +0.000 A 
ATOM     18  C   UNL     1       0.458  10.279  18.593  0.00  0.00    +0.000 A 
ATOM     19  C   UNL     1       1.243   9.193  19.007  0.00  0.00    +0.000 A 
ATOM     20  C   UNL     1       1.186   8.715  20.320  0.00  0.00    +0.000 A 
ATOM     21  C   UNL     1       0.333   9.361  21.220  0.00  0.00    +0.000 A 
ATOM     22  C   UNL     1      -0.438  10.460  20.812  0.00  0.00    +0.000 A 
BRANCH  17  24
ATOM     23  C   UNL     1      -2.200  11.572  17.495  0.00  0.00    +0.000 C 
ATOM     24  S   UNL     1      -1.443  12.271  18.991  0.00  0.00    +0.000 S 
ENDBRANCH  17  24
ENDBRANCH  16  20
ENDBRANCH  15  16
ENDBRANCH   1  15
TORSDOF 5
ENDMDL
MODEL 4
REMARK VINA RESULT:      -7.0      2.624      4.733
REMARK  Name = 
REMARK  6 active torsions:
REMARK  status: ('A' for Active; 'I' for Inactive)
REMARK    1  A    between atoms: C_1  and  S_2
REMARK    2  A    between atoms: S_2  and  C_3
REMARK    3  A    between atoms: C_6  and  S_7
REMARK    4  A    between atoms: S_7  and  C_8
REMARK    5  A    between atoms: C_8  and  C_9
REMARK    6  A    between atoms: C_10  and  O_11
REMARK                            x       y       z     vdW  Elec       q    Type
REMARK                         _______ _______ _______ _____ _____    ______ ____
ROOT
ATOM      1  C   UNL     1       3.402   5.913  18.679  0.00  0.00    +0.000 C 
ATOM      2  C   UNL     1       4.189   5.007  19.279  0.00  0.00    +0.000 C 
ATOM      3  C   UNL     1       5.663   5.046  19.058  0.00  0.00    +0.000 C 
ATOM      4  O   UNL     1       6.486   4.816  19.930  0.00  0.00    +0.000 OA
ATOM      5  C   UNL     1       6.037   5.289  17.662  0.00  0.00    +0.000 A 
ATOM      6  C   UNL     1       7.172   4.677  17.135  0.00  0.00    +0.000 A 
ATOM      7  C   UNL     1       7.309   4.612  15.752  0.00  0.00    +0.000 A 
ATOM      8  C   UNL     1       6.331   5.179  14.925  0.00  0.00    +0.000 A 
ATOM      9  C   UNL     1       5.260   5.894  15.460  0.00  0.00    +0.000 A 
ATOM     10  C   UNL     1       5.120   5.952  16.851  0.00  0.00    +0.000 A 
ATOM     11  C   UNL     1       3.949   6.615  17.492  0.00  0.00    +0.000 C 
ATOM     12  O   UNL     1       3.428   7.599  17.001  0.00  0.00    +0.000 OA
ENDROOT
BRANCH   2  13
ATOM     13  O   UNL     1       3.663   3.955  20.000  0.00  0.00    +0.000 OA
ATOM     14  H   UNL     1       4.409   3.591  20.522  0.00  0.00    +0.000 HD
ENDBRANCH   2  13
BRANCH   1  15
ATOM     15  C   UNL     1       2.004   6.219  19.136  0.00  0.00    +0.000 C 
BRANCH  15  16
ATOM     16  S   UNL     1       2.056   7.265  20.625  0.00  0.00    +0.000 S 
BRANCH  16  20
ATOM     17  C   UNL     1      -0.179  11.167  19.572  0.00  0.00    +0.000 A 
ATOM     18  C   UNL     1      -0.345  10.529  20.802  0.00  0.00    +0.000 A 
ATOM     19  C   UNL     1       0.314   9.320  21.074  0.00  0.00    +0.000 A 
ATOM     20  C   UNL     1       1.147   8.719  20.125  0.00  0.00    +0.000 A 
ATOM     21  C   UNL     1       1.297   9.348  18.886  0.00  0.00    +0.000 A 
ATOM     22  C   UNL     1       0.623  10.548  18.606  0.00  0.00    +0.000 A 
BRANCH  17  24
ATOM     23  C   UNL     1      -2.663  12.355  19.759  0.00  0.00    +0.000 C 
ATOM     24  S   UNL     1      -0.972  12.717  19.202  0.00  0.00    +0.000 S 
ENDBRANCH  17  24
ENDBRANCH  16  20
ENDBRANCH  15  16
ENDBRANCH   1  15
TORSDOF 5
ENDMDL
MODEL 5
REMARK VINA RESULT:      -6.9      0.632      1.244
REMARK  Name = 
REMARK  6 active torsions:
REMARK  status: ('A' for Active; 'I' for Inactive)
REMARK    1  A    between atoms: C_1  and  S_2
REMARK    2  A    between atoms: S_2  and  C_3
REMARK    3  A    between atoms: C_6  and  S_7
REMARK    4  A    between atoms: S_7  and  C_8
REMARK    5  A    between atoms: C_8  and  C_9
REMARK    6  A    between atoms: C_10  and  O_11
REMARK                            x       y       z     vdW  Elec       q    Type
REMARK                         _______ _______ _______ _____ _____    ______ ____
ROOT
ATOM      1  C   UNL     1       4.205   3.620  17.636  0.00  0.00    +0.000 C 
ATOM      2  C   UNL     1       4.985   3.299  18.679  0.00  0.00    +0.000 C 
ATOM      3  C   UNL     1       4.494   2.329  19.698  0.00  0.00    +0.000 C 
ATOM      4  O   UNL     1       5.203   1.490  20.233  0.00  0.00    +0.000 OA
ATOM      5  C   UNL     1       3.095   2.541  20.079  0.00  0.00    +0.000 A 
ATOM      6  C   UNL     1       2.693   2.304  21.391  0.00  0.00    +0.000 A 
ATOM      7  C   UNL     1       1.488   2.849  21.824  0.00  0.00    +0.000 A 
ATOM      8  C   UNL     1       0.698   3.592  20.939  0.00  0.00    +0.000 A 
ATOM      9  C   UNL     1       1.048   3.722  19.595  0.00  0.00    +0.000 A 
ATOM     10  C   UNL     1       2.264   3.181  19.163  0.00  0.00    +0.000 A 
ATOM     11  C   UNL     1       2.750   3.365  17.765  0.00  0.00    +0.000 C 
ATOM     12  O   UNL     1       1.979   3.406  16.825  0.00  0.00    +0.000 OA
ENDROOT
BRANCH   2  13
ATOM     13  O   UNL     1       6.187   3.938  18.908  0.00  0.00    +0.000 OA
ATOM     14  H   UNL     1       6.686   3.354  19.517  0.00  0.00    +0.000 HD
ENDBRANCH   2  13
BRANCH   1  15
ATOM     15  C   UNL     1       4.733   4.243  16.374  0.00  0.00    +0.000 C 
BRANCH  15  16
ATOM     16  S   UNL     1       5.550   5.824  16.761  0.00  0.00    +0.000 S 
BRANCH  16  20
ATOM     17  C   UNL     1       2.122   8.055  18.906  0.00  0.00    +0.000 A 
ATOM     18  C   UNL     1       2.559   8.421  17.633  0.00  0.00    +0.000 A 
ATOM     19  C   UNL     1       3.634   7.752  17.027  0.00  0.00    +0.000 A 
ATOM     20  C   UNL     1       4.298   6.708  17.678  0.00  0.00    +0.000 A 
ATOM     21  C   UNL     1       3.873   6.356  18.963  0.00  0.00    +0.000 A 
ATOM     22  C   UNL     1       2.811   7.037  19.577  0.00  0.00    +0.000 A 
BRANCH  17  24
ATOM     23  C   UNL     1       1.097   8.474  21.434  0.00  0.00    +0.000 C 
ATOM     24  S   UNL     1       0.743   8.858  19.694  0.00  0.00    +0.000 S 
ENDBRANCH  17  24
ENDBRANCH  16  20
ENDBRANCH  15  16
ENDBRANCH   1  15
TORSDOF 5
ENDMDL
MODEL 6
REMARK VINA RESULT:      -6.8      2.563      5.012
REMARK  Name = 
REMARK  6 active torsions:
REMARK  status: ('A' for Active; 'I' for Inactive)
REMARK    1  A    between atoms: C_1  and  S_2
REMARK    2  A    between atoms: S_2  and  C_3
REMARK    3  A    between atoms: C_6  and  S_7
REMARK    4  A    between atoms: S_7  and  C_8
REMARK    5  A    between atoms: C_8  and  C_9
REMARK    6  A    between atoms: C_10  and  O_11
REMARK                            x       y       z     vdW  Elec       q    Type
REMARK                         _______ _______ _______ _____ _____    ______ ____
ROOT
ATOM      1  C   UNL     1       3.135   6.241  17.875  0.00  0.00    +0.000 C 
ATOM      2  C   UNL     1       2.814   4.939  17.839  0.00  0.00    +0.000 C 
ATOM      3  C   UNL     1       3.889   3.917  17.693  0.00  0.00    +0.000 C 
ATOM      4  O   UNL     1       3.886   2.842  18.273  0.00  0.00    +0.000 OA
ATOM      5  C   UNL     1       4.907   4.280  16.704  0.00  0.00    +0.000 A 
ATOM      6  C   UNL     1       5.500   3.286  15.927  0.00  0.00    +0.000 A 
ATOM      7  C   UNL     1       6.170   3.663  14.767  0.00  0.00    +0.000 A 
ATOM      8  C   UNL     1       6.260   5.016  14.419  0.00  0.00    +0.000 A 
ATOM      9  C   UNL     1       5.770   6.012  15.263  0.00  0.00    +0.000 A 
ATOM     10  C   UNL     1       5.090   5.631  16.425  0.00  0.00    +0.000 A 
ATOM     11  C   UNL     1       4.455   6.637  17.325  0.00  0.00    +0.000 C 
ATOM     12  O   UNL     1       4.946   7.736  17.497  0.00  0.00    +0.000 OA
ENDROOT
BRANCH   2  13
ATOM     13  O   UNL     1       1.501   4.518  17.807  0.00  0.00    +0.000 OA
ATOM     14  H   UNL     1       1.248   4.508  16.859  0.00  0.00    +0.000 HD
ENDBRANCH   2  13
BRANCH   1  15
ATOM     15  C   UNL     1       2.216   7.301  18.415  0.00  0.00    +0.000 C 
BRANCH  15  16
ATOM     16  S   UNL     1       2.055   7.118  20.219  0.00  0.00    +0.000 S 
BRANCH  16  20
ATOM     17  C   UNL     1      -0.071  10.965  21.636  0.00  0.00    +0.000 A 
ATOM     18  C   UNL     1       0.263   9.937  22.519  0.00  0.00    +0.000 A 
ATOM     19  C   UNL     1       0.867   8.761  22.049  0.00  0.00    +0.000 A 
ATOM     20  C   UNL     1       1.148   8.582  20.691  0.00  0.00    +0.000 A 
ATOM     21  C   UNL     1       0.795   9.604  19.805  0.00  0.00    +0.000 A 
ATOM     22  C   UNL     1       0.172  10.773  20.271  0.00  0.00    +0.000 A 
BRANCH  17  24
ATOM     23  C   UNL     1      -2.213  11.828  23.148  0.00  0.00    +0.000 C 
ATOM     24  S   UNL     1      -0.810  12.484  22.198  0.00  0.00    +0.000 S 
ENDBRANCH  17  24
ENDBRANCH  16  20
ENDBRANCH  15  16
ENDBRANCH   1  15
TORSDOF 5
ENDMDL
MODEL 7
REMARK VINA RESULT:      -6.8      5.460     10.082
REMARK  Name = 
REMARK  6 active torsions:
REMARK  status: ('A' for Active; 'I' for Inactive)
REMARK    1  A    between atoms: C_1  and  S_2
REMARK    2  A    between atoms: S_2  and  C_3
REMARK    3  A    between atoms: C_6  and  S_7
REMARK    4  A    between atoms: S_7  and  C_8
REMARK    5  A    between atoms: C_8  and  C_9
REMARK    6  A    between atoms: C_10  and  O_11
REMARK                            x       y       z     vdW  Elec       q    Type
REMARK                         _______ _______ _______ _____ _____    ______ ____
ROOT
ATOM      1  C   UNL     1       0.612  13.034  18.782  0.00  0.00    +0.000 C 
ATOM      2  C   UNL     1       1.844  13.242  18.294  0.00  0.00    +0.000 C 
ATOM      3  C   UNL     1       2.571  14.499  18.634  0.00  0.00    +0.000 C 
ATOM      4  O   UNL     1       3.770  14.549  18.858  0.00  0.00    +0.000 OA
ATOM      5  C   UNL     1       1.726  15.694  18.575  0.00  0.00    +0.000 A 
ATOM      6  C   UNL     1       2.269  16.902  18.143  0.00  0.00    +0.000 A 
ATOM      7  C   UNL     1       1.402  17.914  17.742  0.00  0.00    +0.000 A 
ATOM      8  C   UNL     1       0.017  17.714  17.805  0.00  0.00    +0.000 A 
ATOM      9  C   UNL     1      -0.519  16.549  18.352  0.00  0.00    +0.000 A 
ATOM     10  C   UNL     1       0.355  15.529  18.747  0.00  0.00    +0.000 A 
ATOM     11  C   UNL     1      -0.149  14.219  19.249  0.00  0.00    +0.000 C 
ATOM     12  O   UNL     1      -1.171  14.139  19.905  0.00  0.00    +0.000 OA
ENDROOT
BRANCH   2  13
ATOM     13  O   UNL     1       2.416  12.381  17.380  0.00  0.00    +0.000 OA
ATOM     14  H   UNL     1       2.463  11.511  17.829  0.00  0.00    +0.000 HD
ENDBRANCH   2  13
BRANCH   1  15
ATOM     15  C   UNL     1      -0.029  11.676  18.846  0.00  0.00    +0.000 C 
BRANCH  15  16
ATOM     16  S   UNL     1       0.515  10.807  20.350  0.00  0.00    +0.000 S 
BRANCH  16  20
ATOM     17  C   UNL     1       2.574   7.068  18.586  0.00  0.00    +0.000 A 
ATOM     18  C   UNL     1       2.243   8.171  17.798  0.00  0.00    +0.000 A 
ATOM     19  C   UNL     1       1.576   9.273  18.355  0.00  0.00    +0.000 A 
ATOM     20  C   UNL     1       1.222   9.298  19.707  0.00  0.00    +0.000 A 
ATOM     21  C   UNL     1       1.536   8.184  20.492  0.00  0.00    +0.000 A 
ATOM     22  C   UNL     1       2.185   7.073  19.931  0.00  0.00    +0.000 A 
BRANCH  17  24
ATOM     23  C   UNL     1       2.298   4.331  18.369  0.00  0.00    +0.000 C 
ATOM     24  S   UNL     1       3.446   5.666  17.922  0.00  0.00    +0.000 S 
ENDBRANCH  17  24
ENDBRANCH  16  20
ENDBRANCH  15  16
ENDBRANCH   1  15
TORSDOF 5
ENDMDL
MODEL 8
REMARK VINA RESULT:      -6.8      2.557      5.085
REMARK  Name = 
REMARK  6 active torsions:
REMARK  status: ('A' for Active; 'I' for Inactive)
REMARK    1  A    between atoms: C_1  and  S_2
REMARK    2  A    between atoms: S_2  and  C_3
REMARK    3  A    between atoms: C_6  and  S_7
REMARK    4  A    between atoms: S_7  and  C_8
REMARK    5  A    between atoms: C_8  and  C_9
REMARK    6  A    between atoms: C_10  and  O_11
REMARK                            x       y       z     vdW  Elec       q    Type
REMARK                         _______ _______ _______ _____ _____    ______ ____
ROOT
ATOM      1  C   UNL     1       2.986   6.236  18.006  0.00  0.00    +0.000 C 
ATOM      2  C   UNL     1       2.713   4.923  17.997  0.00  0.00    +0.000 C 
ATOM      3  C   UNL     1       3.821   3.938  17.843  0.00  0.00    +0.000 C 
ATOM      4  O   UNL     1       3.871   2.873  18.439  0.00  0.00    +0.000 OA
ATOM      5  C   UNL     1       4.803   4.321  16.824  0.00  0.00    +0.000 A 
ATOM      6  C   UNL     1       5.414   3.337  16.050  0.00  0.00    +0.000 A 
ATOM      7  C   UNL     1       6.043   3.719  14.868  0.00  0.00    +0.000 A 
ATOM      8  C   UNL     1       6.075   5.069  14.497  0.00  0.00    +0.000 A 
ATOM      9  C   UNL     1       5.568   6.060  15.337  0.00  0.00    +0.000 A 
ATOM     10  C   UNL     1       4.928   5.674  16.521  0.00  0.00    +0.000 A 
ATOM     11  C   UNL     1       4.277   6.670  17.419  0.00  0.00    +0.000 C 
ATOM     12  O   UNL     1       4.732   7.790  17.562  0.00  0.00    +0.000 OA
ENDROOT
BRANCH   2  13
ATOM     13  O   UNL     1       1.415   4.453  18.002  0.00  0.00    +0.000 OA
ATOM     14  H   UNL     1       1.462   3.542  17.641  0.00  0.00    +0.000 HD
ENDBRANCH   2  13
BRANCH   1  15
ATOM     15  C   UNL     1       2.041   7.270  18.550  0.00  0.00    +0.000 C 
BRANCH  15  16
ATOM     16  S   UNL     1       1.965   7.143  20.364  0.00  0.00    +0.000 S 
BRANCH  16  20
ATOM     17  C   UNL     1      -0.377  10.984  21.405  0.00  0.00    +0.000 A 
ATOM     18  C   UNL     1      -0.012  10.674  20.095  0.00  0.00    +0.000 A 
ATOM     19  C   UNL     1       0.739   9.522  19.817  0.00  0.00    +0.000 A 
ATOM     20  C   UNL     1       1.146   8.657  20.838  0.00  0.00    +0.000 A 
ATOM     21  C   UNL     1       0.796   8.980  22.153  0.00  0.00    +0.000 A 
ATOM     22  C   UNL     1       0.062  10.143  22.434  0.00  0.00    +0.000 A 
BRANCH  17  24
ATOM     23  C   UNL     1      -2.287  11.798  23.225  0.00  0.00    +0.000 C 
ATOM     24  S   UNL     1      -1.356  12.419  21.793  0.00  0.00    +0.000 S 
ENDBRANCH  17  24
ENDBRANCH  16  20
ENDBRANCH  15  16
ENDBRANCH   1  15
TORSDOF 5
ENDMDL
MODEL 9
REMARK VINA RESULT:      -6.8      2.572      4.940
REMARK  Name = 
REMARK  6 active torsions:
REMARK  status: ('A' for Active; 'I' for Inactive)
REMARK    1  A    between atoms: C_1  and  S_2
REMARK    2  A    between atoms: S_2  and  C_3
REMARK    3  A    between atoms: C_6  and  S_7
REMARK    4  A    between atoms: S_7  and  C_8
REMARK    5  A    between atoms: C_8  and  C_9
REMARK    6  A    between atoms: C_10  and  O_11
REMARK                            x       y       z     vdW  Elec       q    Type
REMARK                         _______ _______ _______ _____ _____    ______ ____
ROOT
ATOM      1  C   UNL     1       3.226   5.458  18.783  0.00  0.00    +0.000 C 
ATOM      2  C   UNL     1       2.598   4.624  17.941  0.00  0.00    +0.000 C 
ATOM      3  C   UNL     1       3.338   3.470  17.355  0.00  0.00    +0.000 C 
ATOM      4  O   UNL     1       2.844   2.367  17.177  0.00  0.00    +0.000 OA
ATOM      5  C   UNL     1       4.693   3.810  16.914  0.00  0.00    +0.000 A 
ATOM      6  C   UNL     1       5.225   3.196  15.782  0.00  0.00    +0.000 A 
ATOM      7  C   UNL     1       6.330   3.778  15.169  0.00  0.00    +0.000 A 
ATOM      8  C   UNL     1       6.898   4.940  15.707  0.00  0.00    +0.000 A 
ATOM      9  C   UNL     1       6.434   5.479  16.907  0.00  0.00    +0.000 A 
ATOM     10  C   UNL     1       5.318   4.897  17.518  0.00  0.00    +0.000 A 
ATOM     11  C   UNL     1       4.709   5.478  18.749  0.00  0.00    +0.000 C 
ATOM     12  O   UNL     1       5.388   6.018  19.601  0.00  0.00    +0.000 OA
ENDROOT
BRANCH   2  13
ATOM     13  O   UNL     1       1.315   4.873  17.497  0.00  0.00    +0.000 OA
ATOM     14  H   UNL     1       0.734   4.282  18.021  0.00  0.00    +0.000 HD
ENDBRANCH   2  13
BRANCH   1  15
ATOM     15  C   UNL     1       2.500   6.379  19.724  0.00  0.00    +0.000 C 
BRANCH  15  16
ATOM     16  S   UNL     1       2.120   7.947  18.881  0.00  0.00    +0.000 S 
BRANCH  16  20
ATOM     17  C   UNL     1      -0.377  10.335  21.946  0.00  0.00    +0.000 A 
ATOM     18  C   UNL     1      -0.199  10.776  20.634  0.00  0.00    +0.000 A 
ATOM     19  C   UNL     1       0.603  10.050  19.740  0.00  0.00    +0.000 A 
ATOM     20  C   UNL     1       1.248   8.874  20.135  0.00  0.00    +0.000 A 
ATOM     21  C   UNL     1       1.086   8.445  21.455  0.00  0.00    +0.000 A 
ATOM     22  C   UNL     1       0.300   9.180  22.356  0.00  0.00    +0.000 A 
BRANCH  17  24
ATOM     23  C   UNL     1      -0.986  12.926  22.678  0.00  0.00    +0.000 C 
ATOM     24  S   UNL     1      -1.412  11.211  23.100  0.00  0.00    +0.000 S 
ENDBRANCH  17  24
ENDBRANCH  16  20
ENDBRANCH  15  16
ENDBRANCH   1  15
TORSDOF 5
ENDMDL
