MODEL 1
REMARK VINA RESULT:      -8.7      0.000      0.000
REMARK  Name = 
REMARK  10 active torsions:
REMARK  status: ('A' for Active; 'I' for Inactive)
REMARK    1  A    between atoms: C_1  and  N_2
REMARK    2  A    between atoms: C_5  and  S_6
REMARK    3  A    between atoms: S_6  and  N_9
REMARK    4  A    between atoms: C_13  and  C_14
REMARK    5  A    between atoms: N_20  and  C_21
REMARK    6  A    between atoms: N_24  and  C_25
REMARK    7  A    between atoms: C_25  and  C_26
REMARK    8  A    between atoms: C_26  and  C_27
REMARK    9  A    between atoms: C_26  and  C_28
REMARK   10  A    between atoms: C_26  and  C_29
REMARK                            x       y       z     vdW  Elec       q    Type
REMARK                         _______ _______ _______ _____ _____    ______ ____
ROOT
ATOM      1  C   UNL     1       2.577   7.140  17.993  0.00  0.00    +0.000 A 
ATOM      2  C   UNL     1       1.925   5.912  18.064  0.00  0.00    +0.000 A 
ATOM      3  C   UNL     1       2.543   4.809  17.510  0.00  0.00    +0.000 A 
ATOM      4  C   UNL     1       3.911   4.890  17.449  0.00  0.00    +0.000 A 
ATOM      5  C   UNL     1       4.517   6.103  17.168  0.00  0.00    +0.000 A 
ATOM      6  N   UNL     1       3.846   7.271  17.470  0.00  0.00    +0.000 NA
ATOM      7  N   UNL     1       5.928   5.938  17.399  0.00  0.00    +0.000 N 
ATOM      8  C   UNL     1       6.793   5.698  16.257  0.00  0.00    +0.000 C 
ATOM      9  C   UNL     1       6.029   4.828  18.300  0.00  0.00    +0.000 A 
ATOM     10  O   UNL     1       7.054   4.464  18.857  0.00  0.00    +0.000 OA
ATOM     11  N   UNL     1       4.754   4.218  18.387  0.00  0.00    +0.000 N 
ENDROOT
BRANCH   1  16
ATOM     12  N   UNL     1       0.636   9.478  20.451  0.00  0.00    +0.000 NA
ATOM     13  C   UNL     1       0.963  10.809  19.880  0.00  0.00    +0.000 C 
ATOM     14  C   UNL     1       1.011  10.716  18.360  0.00  0.00    +0.000 C 
ATOM     15  C   UNL     1       2.039   9.677  17.890  0.00  0.00    +0.000 C 
ATOM     16  C   UNL     1       1.728   8.321  18.523  0.00  0.00    +0.000 C 
ATOM     17  C   UNL     1       1.620   8.406  20.058  0.00  0.00    +0.000 C 
BRANCH  12  18
ATOM     18  S   UNL     1       0.242   9.538  22.128  0.00  0.00    +0.000 S 
ATOM     19  O   UNL     1       1.490   9.607  22.880  0.00  0.00    +0.000 OA
ATOM     20  O   UNL     1      -0.748   8.512  22.410  0.00  0.00    +0.000 OA
BRANCH  18  25
ATOM     21  C   UNL     1      -3.101  13.189  23.843  0.00  0.00    +0.000 C 
ATOM     22  N   UNL     1      -1.978  12.531  23.224  0.00  0.00    +0.000 N 
ATOM     23  C   UNL     1      -0.878  13.151  22.708  0.00  0.00    +0.000 A 
ATOM     24  N   UNL     1      -0.001  12.282  22.256  0.00  0.00    +0.000 NA
ATOM     25  C   UNL     1      -0.565  11.036  22.500  0.00  0.00    +0.000 A 
ATOM     26  C   UNL     1      -1.812  11.181  23.080  0.00  0.00    +0.000 A 
ENDBRANCH  18  25
ENDBRANCH  12  18
ENDBRANCH   1  16
BRANCH  11  27
ATOM     27  C   UNL     1       4.226   3.958  19.728  0.00  0.00    +0.000 C 
BRANCH  27  28
ATOM     28  C   UNL     1       3.777   2.525  20.059  0.00  0.00    +0.000 C 
ATOM     29  C   UNL     1       4.893   1.747  20.761  0.00  0.00    +0.000 C 
ATOM     30  C   UNL     1       2.576   2.654  21.022  0.00  0.00    +0.000 C 
ATOM     31  C   UNL     1       3.321   1.785  18.795  0.00  0.00    +0.000 C 
ENDBRANCH  27  28
ENDBRANCH  11  27
TORSDOF 5
ENDMDL
MODEL 2
REMARK VINA RESULT:      -8.5      2.498      3.486
REMARK  Name = 
REMARK  10 active torsions:
REMARK  status: ('A' for Active; 'I' for Inactive)
REMARK    1  A    between atoms: C_1  and  N_2
REMARK    2  A    between atoms: C_5  and  S_6
REMARK    3  A    between atoms: S_6  and  N_9
REMARK    4  A    between atoms: C_13  and  C_14
REMARK    5  A    between atoms: N_20  and  C_21
REMARK    6  A    between atoms: N_24  and  C_25
REMARK    7  A    between atoms: C_25  and  C_26
REMARK    8  A    between atoms: C_26  and  C_27
REMARK    9  A    between atoms: C_26  and  C_28
REMARK   10  A    between atoms: C_26  and  C_29
REMARK                            x       y       z     vdW  Elec       q    Type
REMARK                         _______ _______ _______ _____ _____    ______ ____
ROOT
ATOM      1  C   UNL     1       2.455   7.306  18.831  0.00  0.00    +0.000 A 
ATOM      2  C   UNL     1       1.757   6.103  18.871  0.00  0.00    +0.000 A 
ATOM      3  C   UNL     1       2.145   5.092  18.015  0.00  0.00    +0.000 A 
ATOM      4  C   UNL     1       3.460   5.143  17.628  0.00  0.00    +0.000 A 
ATOM      5  C   UNL     1       4.062   6.369  17.396  0.00  0.00    +0.000 A 
ATOM      6  N   UNL     1       3.566   7.488  18.034  0.00  0.00    +0.000 NA
ATOM      7  N   UNL     1       5.473   6.128  17.240  0.00  0.00    +0.000 N 
ATOM      8  C   UNL     1       6.017   6.059  15.894  0.00  0.00    +0.000 C 
ATOM      9  C   UNL     1       5.711   4.880  17.903  0.00  0.00    +0.000 A 
ATOM     10  O   UNL     1       6.813   4.400  18.122  0.00  0.00    +0.000 OA
ATOM     11  N   UNL     1       4.457   4.301  18.210  0.00  0.00    +0.000 N 
ENDROOT
BRANCH   1  16
ATOM     12  N   UNL     1       0.450  10.471  19.948  0.00  0.00    +0.000 NA
ATOM     13  C   UNL     1      -0.106  10.001  21.241  0.00  0.00    +0.000 C 
ATOM     14  C   UNL     1       0.916   9.120  21.949  0.00  0.00    +0.000 C 
ATOM     15  C   UNL     1       1.319   7.917  21.084  0.00  0.00    +0.000 C 
ATOM     16  C   UNL     1       1.842   8.405  19.733  0.00  0.00    +0.000 C 
ATOM     17  C   UNL     1       0.844   9.344  19.027  0.00  0.00    +0.000 C 
BRANCH  12  18
ATOM     18  S   UNL     1      -0.486  11.722  19.222  0.00  0.00    +0.000 S 
ATOM     19  O   UNL     1       0.402  12.515  18.378  0.00  0.00    +0.000 OA
ATOM     20  O   UNL     1      -1.301  12.349  20.249  0.00  0.00    +0.000 OA
BRANCH  18  25
ATOM     21  C   UNL     1      -3.339  10.544  14.988  0.00  0.00    +0.000 C 
ATOM     22  N   UNL     1      -2.809  10.574  16.329  0.00  0.00    +0.000 N 
ATOM     23  C   UNL     1      -3.136   9.709  17.332  0.00  0.00    +0.000 A 
ATOM     24  N   UNL     1      -2.452   9.959  18.426  0.00  0.00    +0.000 NA
ATOM     25  C   UNL     1      -1.637  11.038  18.108  0.00  0.00    +0.000 A 
ATOM     26  C   UNL     1      -1.872  11.447  16.807  0.00  0.00    +0.000 A 
ENDBRANCH  18  25
ENDBRANCH  12  18
ENDBRANCH   1  16
BRANCH  11  27
ATOM     27  C   UNL     1       4.252   3.834  19.582  0.00  0.00    +0.000 C 
BRANCH  27  28
ATOM     28  C   UNL     1       3.800   2.379  19.789  0.00  0.00    +0.000 C 
ATOM     29  C   UNL     1       4.822   1.597  20.618  0.00  0.00    +0.000 C 
ATOM     30  C   UNL     1       2.466   2.441  20.567  0.00  0.00    +0.000 C 
ATOM     31  C   UNL     1       3.557   1.682  18.443  0.00  0.00    +0.000 C 
ENDBRANCH  27  28
ENDBRANCH  11  27
TORSDOF 5
ENDMDL
MODEL 3
REMARK VINA RESULT:      -8.4      2.483      3.013
REMARK  Name = 
REMARK  10 active torsions:
REMARK  status: ('A' for Active; 'I' for Inactive)
REMARK    1  A    between atoms: C_1  and  N_2
REMARK    2  A    between atoms: C_5  and  S_6
REMARK    3  A    between atoms: S_6  and  N_9
REMARK    4  A    between atoms: C_13  and  C_14
REMARK    5  A    between atoms: N_20  and  C_21
REMARK    6  A    between atoms: N_24  and  C_25
REMARK    7  A    between atoms: C_25  and  C_26
REMARK    8  A    between atoms: C_26  and  C_27
REMARK    9  A    between atoms: C_26  and  C_28
REMARK   10  A    between atoms: C_26  and  C_29
REMARK                            x       y       z     vdW  Elec       q    Type
REMARK                         _______ _______ _______ _____ _____    ______ ____
ROOT
ATOM      1  C   UNL     1       2.447   7.240  18.963  0.00  0.00    +0.000 A 
ATOM      2  C   UNL     1       1.762   6.034  19.070  0.00  0.00    +0.000 A 
ATOM      3  C   UNL     1       2.082   5.018  18.191  0.00  0.00    +0.000 A 
ATOM      4  C   UNL     1       3.358   5.073  17.693  0.00  0.00    +0.000 A 
ATOM      5  C   UNL     1       3.932   6.301  17.403  0.00  0.00    +0.000 A 
ATOM      6  N   UNL     1       3.485   7.421  18.073  0.00  0.00    +0.000 NA
ATOM      7  N   UNL     1       5.325   6.066  17.128  0.00  0.00    +0.000 N 
ATOM      8  C   UNL     1       5.753   5.990  15.742  0.00  0.00    +0.000 C 
ATOM      9  C   UNL     1       5.626   4.824  17.777  0.00  0.00    +0.000 A 
ATOM     10  O   UNL     1       6.746   4.351  17.905  0.00  0.00    +0.000 OA
ATOM     11  N   UNL     1       4.406   4.240  18.193  0.00  0.00    +0.000 N 
ENDROOT
BRANCH   1  16
ATOM     12  N   UNL     1       0.835  10.582  20.191  0.00  0.00    +0.000 NA
ATOM     13  C   UNL     1       0.061  10.100  21.362  0.00  0.00    +0.000 C 
ATOM     14  C   UNL     1       0.841   9.004  22.076  0.00  0.00    +0.000 C 
ATOM     15  C   UNL     1       1.156   7.831  21.136  0.00  0.00    +0.000 C 
ATOM     16  C   UNL     1       1.907   8.342  19.907  0.00  0.00    +0.000 C 
ATOM     17  C   UNL     1       1.158   9.490  19.202  0.00  0.00    +0.000 C 
BRANCH  12  18
ATOM     18  S   UNL     1       0.198  12.030  19.507  0.00  0.00    +0.000 S 
ATOM     19  O   UNL     1       1.019  12.380  18.353  0.00  0.00    +0.000 OA
ATOM     20  O   UNL     1      -0.039  12.985  20.577  0.00  0.00    +0.000 OA
BRANCH  18  25
ATOM     21  C   UNL     1      -4.955  11.893  18.564  0.00  0.00    +0.000 C 
ATOM     22  N   UNL     1      -3.530  11.689  18.471  0.00  0.00    +0.000 N 
ATOM     23  C   UNL     1      -2.877  11.104  17.426  0.00  0.00    +0.000 A 
ATOM     24  N   UNL     1      -1.576  11.104  17.608  0.00  0.00    +0.000 NA
ATOM     25  C   UNL     1      -1.380  11.729  18.833  0.00  0.00    +0.000 A 
ATOM     26  C   UNL     1      -2.597  12.075  19.393  0.00  0.00    +0.000 A 
ENDBRANCH  18  25
ENDBRANCH  12  18
ENDBRANCH   1  16
BRANCH  11  27
ATOM     27  C   UNL     1       4.321   3.782  19.581  0.00  0.00    +0.000 C 
BRANCH  27  28
ATOM     28  C   UNL     1       3.764   2.373  19.842  0.00  0.00    +0.000 C 
ATOM     29  C   UNL     1       3.505   1.631  18.528  0.00  0.00    +0.000 C 
ATOM     30  C   UNL     1       4.848   1.614  20.639  0.00  0.00    +0.000 C 
ATOM     31  C   UNL     1       2.482   2.435  20.683  0.00  0.00    +0.000 C 
ENDBRANCH  27  28
ENDBRANCH  11  27
TORSDOF 5
ENDMDL
MODEL 4
REMARK VINA RESULT:      -8.4      0.544      1.130
REMARK  Name = 
REMARK  10 active torsions:
REMARK  status: ('A' for Active; 'I' for Inactive)
REMARK    1  A    between atoms: C_1  and  N_2
REMARK    2  A    between atoms: C_5  and  S_6
REMARK    3  A    between atoms: S_6  and  N_9
REMARK    4  A    between atoms: C_13  and  C_14
REMARK    5  A    between atoms: N_20  and  C_21
REMARK    6  A    between atoms: N_24  and  C_25
REMARK    7  A    between atoms: C_25  and  C_26
REMARK    8  A    between atoms: C_26  and  C_27
REMARK    9  A    between atoms: C_26  and  C_28
REMARK   10  A    between atoms: C_26  and  C_29
REMARK                            x       y       z     vdW  Elec       q    Type
REMARK                         _______ _______ _______ _____ _____    ______ ____
ROOT
ATOM      1  C   UNL     1       2.624   7.074  17.936  0.00  0.00    +0.000 A 
ATOM      2  C   UNL     1       1.962   5.854  18.044  0.00  0.00    +0.000 A 
ATOM      3  C   UNL     1       2.550   4.737  17.486  0.00  0.00    +0.000 A 
ATOM      4  C   UNL     1       3.916   4.802  17.381  0.00  0.00    +0.000 A 
ATOM      5  C   UNL     1       4.526   6.005  17.064  0.00  0.00    +0.000 A 
ATOM      6  N   UNL     1       3.877   7.184  17.371  0.00  0.00    +0.000 NA
ATOM      7  N   UNL     1       5.942   5.829  17.253  0.00  0.00    +0.000 N 
ATOM      8  C   UNL     1       6.767   5.564  16.087  0.00  0.00    +0.000 C 
ATOM      9  C   UNL     1       6.059   4.730  18.166  0.00  0.00    +0.000 A 
ATOM     10  O   UNL     1       7.098   4.362  18.695  0.00  0.00    +0.000 OA
ATOM     11  N   UNL     1       4.782   4.135  18.301  0.00  0.00    +0.000 N 
ENDROOT
BRANCH   1  16
ATOM     12  N   UNL     1       0.700   9.414  20.405  0.00  0.00    +0.000 NA
ATOM     13  C   UNL     1       1.092  10.747  19.882  0.00  0.00    +0.000 C 
ATOM     14  C   UNL     1       1.181  10.695  18.363  0.00  0.00    +0.000 C 
ATOM     15  C   UNL     1       2.183   9.632  17.892  0.00  0.00    +0.000 C 
ATOM     16  C   UNL     1       1.804   8.271  18.476  0.00  0.00    +0.000 C 
ATOM     17  C   UNL     1       1.654   8.316  20.009  0.00  0.00    +0.000 C 
BRANCH  12  18
ATOM     18  S   UNL     1       0.259   9.442  22.071  0.00  0.00    +0.000 S 
ATOM     19  O   UNL     1       1.485   9.531  22.857  0.00  0.00    +0.000 OA
ATOM     20  O   UNL     1      -0.712   8.387  22.313  0.00  0.00    +0.000 OA
BRANCH  18  25
ATOM     21  C   UNL     1      -1.424  14.400  22.252  0.00  0.00    +0.000 C 
ATOM     22  N   UNL     1      -1.269  12.987  22.495  0.00  0.00    +0.000 N 
ATOM     23  C   UNL     1      -2.107  12.212  23.241  0.00  0.00    +0.000 A 
ATOM     24  N   UNL     1      -1.731  10.953  23.237  0.00  0.00    +0.000 NA
ATOM     25  C   UNL     1      -0.595  10.914  22.440  0.00  0.00    +0.000 A 
ATOM     26  C   UNL     1      -0.283  12.185  21.992  0.00  0.00    +0.000 A 
ENDBRANCH  18  25
ENDBRANCH  12  18
ENDBRANCH   1  16
BRANCH  11  27
ATOM     27  C   UNL     1       4.294   3.898  19.661  0.00  0.00    +0.000 C 
BRANCH  27  28
ATOM     28  C   UNL     1       3.762   2.496  20.002  0.00  0.00    +0.000 C 
ATOM     29  C   UNL     1       3.442   1.705  18.731  0.00  0.00    +0.000 C 
ATOM     30  C   UNL     1       4.892   1.774  20.770  0.00  0.00    +0.000 C 
ATOM     31  C   UNL     1       2.524   2.582  20.905  0.00  0.00    +0.000 C 
ENDBRANCH  27  28
ENDBRANCH  11  27
TORSDOF 5
ENDMDL
MODEL 5
REMARK VINA RESULT:      -8.3      2.476      3.353
REMARK  Name = 
REMARK  10 active torsions:
REMARK  status: ('A' for Active; 'I' for Inactive)
REMARK    1  A    between atoms: C_1  and  N_2
REMARK    2  A    between atoms: C_5  and  S_6
REMARK    3  A    between atoms: S_6  and  N_9
REMARK    4  A    between atoms: C_13  and  C_14
REMARK    5  A    between atoms: N_20  and  C_21
REMARK    6  A    between atoms: N_24  and  C_25
REMARK    7  A    between atoms: C_25  and  C_26
REMARK    8  A    between atoms: C_26  and  C_27
REMARK    9  A    between atoms: C_26  and  C_28
REMARK   10  A    between atoms: C_26  and  C_29
REMARK                            x       y       z     vdW  Elec       q    Type
REMARK                         _______ _______ _______ _____ _____    ______ ____
ROOT
ATOM      1  C   UNL     1       2.509   7.267  18.852  0.00  0.00    +0.000 A 
ATOM      2  C   UNL     1       1.804   6.068  18.892  0.00  0.00    +0.000 A 
ATOM      3  C   UNL     1       2.169   5.063  18.019  0.00  0.00    +0.000 A 
ATOM      4  C   UNL     1       3.476   5.109  17.606  0.00  0.00    +0.000 A 
ATOM      5  C   UNL     1       4.082   6.334  17.376  0.00  0.00    +0.000 A 
ATOM      6  N   UNL     1       3.606   7.449  18.035  0.00  0.00    +0.000 NA
ATOM      7  N   UNL     1       5.488   6.086  17.190  0.00  0.00    +0.000 N 
ATOM      8  C   UNL     1       6.005   6.027  15.834  0.00  0.00    +0.000 C 
ATOM      9  C   UNL     1       5.731   4.829  17.836  0.00  0.00    +0.000 A 
ATOM     10  O   UNL     1       6.833   4.339  18.028  0.00  0.00    +0.000 OA
ATOM     11  N   UNL     1       4.478   4.255  18.160  0.00  0.00    +0.000 N 
ENDROOT
BRANCH   1  16
ATOM     12  N   UNL     1       0.665  10.507  20.026  0.00  0.00    +0.000 NA
ATOM     13  C   UNL     1       0.002  10.013  21.259  0.00  0.00    +0.000 C 
ATOM     14  C   UNL     1       0.917   9.027  21.974  0.00  0.00    +0.000 C 
ATOM     15  C   UNL     1       1.287   7.843  21.068  0.00  0.00    +0.000 C 
ATOM     16  C   UNL     1       1.922   8.360  19.777  0.00  0.00    +0.000 C 
ATOM     17  C   UNL     1       1.034   9.402  19.068  0.00  0.00    +0.000 C 
BRANCH  12  18
ATOM     18  S   UNL     1      -0.138  11.857  19.319  0.00  0.00    +0.000 S 
ATOM     19  O   UNL     1      -0.925  12.507  20.360  0.00  0.00    +0.000 OA
ATOM     20  O   UNL     1      -0.750  11.433  18.070  0.00  0.00    +0.000 OA
BRANCH  18  25
ATOM     21  C   UNL     1       2.411  16.347  18.427  0.00  0.00    +0.000 C 
ATOM     22  N   UNL     1       2.059  14.950  18.485  0.00  0.00    +0.000 N 
ATOM     23  C   UNL     1       2.881  13.909  18.169  0.00  0.00    +0.000 A 
ATOM     24  N   UNL     1       2.292  12.751  18.368  0.00  0.00    +0.000 NA
ATOM     25  C   UNL     1       1.026  13.064  18.846  0.00  0.00    +0.000 A 
ATOM     26  C   UNL     1       0.861  14.436  18.898  0.00  0.00    +0.000 A 
ENDBRANCH  18  25
ENDBRANCH  12  18
ENDBRANCH   1  16
BRANCH  11  27
ATOM     27  C   UNL     1       4.297   3.775  19.531  0.00  0.00    +0.000 C 
BRANCH  27  28
ATOM     28  C   UNL     1       3.743   2.354  19.730  0.00  0.00    +0.000 C 
ATOM     29  C   UNL     1       3.567   1.639  18.388  0.00  0.00    +0.000 C 
ATOM     30  C   UNL     1       4.790   1.589  20.571  0.00  0.00    +0.000 C 
ATOM     31  C   UNL     1       2.415   2.384  20.499  0.00  0.00    +0.000 C 
ENDBRANCH  27  28
ENDBRANCH  11  27
TORSDOF 5
ENDMDL
MODEL 6
REMARK VINA RESULT:      -8.2      2.407      3.334
REMARK  Name = 
REMARK  10 active torsions:
REMARK  status: ('A' for Active; 'I' for Inactive)
REMARK    1  A    between atoms: C_1  and  N_2
REMARK    2  A    between atoms: C_5  and  S_6
REMARK    3  A    between atoms: S_6  and  N_9
REMARK    4  A    between atoms: C_13  and  C_14
REMARK    5  A    between atoms: N_20  and  C_21
REMARK    6  A    between atoms: N_24  and  C_25
REMARK    7  A    between atoms: C_25  and  C_26
REMARK    8  A    between atoms: C_26  and  C_27
REMARK    9  A    between atoms: C_26  and  C_28
REMARK   10  A    between atoms: C_26  and  C_29
REMARK                            x       y       z     vdW  Elec       q    Type
REMARK                         _______ _______ _______ _____ _____    ______ ____
ROOT
ATOM      1  C   UNL     1       2.476   7.223  18.883  0.00  0.00    +0.000 A 
ATOM      2  C   UNL     1       1.793   6.015  18.986  0.00  0.00    +0.000 A 
ATOM      3  C   UNL     1       2.137   4.992  18.126  0.00  0.00    +0.000 A 
ATOM      4  C   UNL     1       3.425   5.047  17.657  0.00  0.00    +0.000 A 
ATOM      5  C   UNL     1       4.001   6.274  17.369  0.00  0.00    +0.000 A 
ATOM      6  N   UNL     1       3.534   7.399  18.017  0.00  0.00    +0.000 NA
ATOM      7  N   UNL     1       5.402   6.042  17.130  0.00  0.00    +0.000 N 
ATOM      8  C   UNL     1       5.863   5.954  15.756  0.00  0.00    +0.000 C 
ATOM      9  C   UNL     1       5.692   4.808  17.799  0.00  0.00    +0.000 A 
ATOM     10  O   UNL     1       6.809   4.340  17.959  0.00  0.00    +0.000 OA
ATOM     11  N   UNL     1       4.464   4.223  18.191  0.00  0.00    +0.000 N 
ENDROOT
BRANCH   1  16
ATOM     12  N   UNL     1       0.680  10.496  20.040  0.00  0.00    +0.000 NA
ATOM     13  C   UNL     1       0.023  10.024  21.284  0.00  0.00    +0.000 C 
ATOM     14  C   UNL     1       0.932   9.034  22.000  0.00  0.00    +0.000 C 
ATOM     15  C   UNL     1       1.280   7.837  21.104  0.00  0.00    +0.000 C 
ATOM     16  C   UNL     1       1.909   8.333  19.802  0.00  0.00    +0.000 C 
ATOM     17  C   UNL     1       1.028   9.378  19.091  0.00  0.00    +0.000 C 
BRANCH  12  18
ATOM     18  S   UNL     1      -0.112  11.849  19.326  0.00  0.00    +0.000 S 
ATOM     19  O   UNL     1      -1.033  12.402  20.313  0.00  0.00    +0.000 OA
ATOM     20  O   UNL     1      -0.572  11.472  18.000  0.00  0.00    +0.000 OA
BRANCH  18  25
ATOM     21  C   UNL     1       4.106  14.659  17.998  0.00  0.00    +0.000 C 
ATOM     22  N   UNL     1       2.804  14.272  18.482  0.00  0.00    +0.000 N 
ATOM     23  C   UNL     1       1.807  15.126  18.855  0.00  0.00    +0.000 A 
ATOM     24  N   UNL     1       0.720  14.476  19.204  0.00  0.00    +0.000 NA
ATOM     25  C   UNL     1       1.032  13.132  19.042  0.00  0.00    +0.000 A 
ATOM     26  C   UNL     1       2.340  12.993  18.616  0.00  0.00    +0.000 A 
ENDBRANCH  18  25
ENDBRANCH  12  18
ENDBRANCH   1  16
BRANCH  11  27
ATOM     27  C   UNL     1       4.347   3.779  19.582  0.00  0.00    +0.000 C 
BRANCH  27  28
ATOM     28  C   UNL     1       3.860   2.344  19.841  0.00  0.00    +0.000 C 
ATOM     29  C   UNL     1       4.884   1.555  20.662  0.00  0.00    +0.000 C 
ATOM     30  C   UNL     1       2.553   2.466  20.655  0.00  0.00    +0.000 C 
ATOM     31  C   UNL     1       3.558   1.619  18.523  0.00  0.00    +0.000 C 
ENDBRANCH  27  28
ENDBRANCH  11  27
TORSDOF 5
ENDMDL
MODEL 7
REMARK VINA RESULT:      -8.2      2.402      2.996
REMARK  Name = 
REMARK  10 active torsions:
REMARK  status: ('A' for Active; 'I' for Inactive)
REMARK    1  A    between atoms: C_1  and  N_2
REMARK    2  A    between atoms: C_5  and  S_6
REMARK    3  A    between atoms: S_6  and  N_9
REMARK    4  A    between atoms: C_13  and  C_14
REMARK    5  A    between atoms: N_20  and  C_21
REMARK    6  A    between atoms: N_24  and  C_25
REMARK    7  A    between atoms: C_25  and  C_26
REMARK    8  A    between atoms: C_26  and  C_27
REMARK    9  A    between atoms: C_26  and  C_28
REMARK   10  A    between atoms: C_26  and  C_29
REMARK                            x       y       z     vdW  Elec       q    Type
REMARK                         _______ _______ _______ _____ _____    ______ ____
ROOT
ATOM      1  C   UNL     1       2.354   7.297  19.029  0.00  0.00    +0.000 A 
ATOM      2  C   UNL     1       1.704   6.077  19.190  0.00  0.00    +0.000 A 
ATOM      3  C   UNL     1       1.981   5.064  18.295  0.00  0.00    +0.000 A 
ATOM      4  C   UNL     1       3.217   5.143  17.706  0.00  0.00    +0.000 A 
ATOM      5  C   UNL     1       3.742   6.380  17.370  0.00  0.00    +0.000 A 
ATOM      6  N   UNL     1       3.321   7.495  18.066  0.00  0.00    +0.000 NA
ATOM      7  N   UNL     1       5.117   6.173  16.997  0.00  0.00    +0.000 N 
ATOM      8  C   UNL     1       5.446   6.099  15.584  0.00  0.00    +0.000 C 
ATOM      9  C   UNL     1       5.490   4.942  17.628  0.00  0.00    +0.000 A 
ATOM     10  O   UNL     1       6.626   4.493  17.677  0.00  0.00    +0.000 OA
ATOM     11  N   UNL     1       4.316   4.335  18.133  0.00  0.00    +0.000 N 
ENDROOT
BRANCH   1  16
ATOM     12  N   UNL     1       0.893  10.672  20.354  0.00  0.00    +0.000 NA
ATOM     13  C   UNL     1       0.088  10.190  21.504  0.00  0.00    +0.000 C 
ATOM     14  C   UNL     1       0.809   9.035  22.187  0.00  0.00    +0.000 C 
ATOM     15  C   UNL     1       1.075   7.880  21.212  0.00  0.00    +0.000 C 
ATOM     16  C   UNL     1       1.859   8.393  20.004  0.00  0.00    +0.000 C 
ATOM     17  C   UNL     1       1.172   9.598  19.333  0.00  0.00    +0.000 C 
BRANCH  12  18
ATOM     18  S   UNL     1       0.332  12.170  19.713  0.00  0.00    +0.000 S 
ATOM     19  O   UNL     1       0.995  12.386  18.432  0.00  0.00    +0.000 OA
ATOM     20  O   UNL     1       0.383  13.173  20.764  0.00  0.00    +0.000 OA
BRANCH  18  25
ATOM     21  C   UNL     1      -4.253  11.067  17.429  0.00  0.00    +0.000 C 
ATOM     22  N   UNL     1      -3.249  11.578  18.329  0.00  0.00    +0.000 N 
ATOM     23  C   UNL     1      -3.489  12.204  19.517  0.00  0.00    +0.000 A 
ATOM     24  N   UNL     1      -2.372  12.511  20.136  0.00  0.00    +0.000 NA
ATOM     25  C   UNL     1      -1.358  12.051  19.306  0.00  0.00    +0.000 A 
ATOM     26  C   UNL     1      -1.894  11.489  18.162  0.00  0.00    +0.000 A 
ENDBRANCH  18  25
ENDBRANCH  12  18
ENDBRANCH   1  16
BRANCH  11  27
ATOM     27  C   UNL     1       4.340   3.883  19.525  0.00  0.00    +0.000 C 
BRANCH  27  28
ATOM     28  C   UNL     1       3.826   2.467  19.833  0.00  0.00    +0.000 C 
ATOM     29  C   UNL     1       2.494   2.516  20.587  0.00  0.00    +0.000 C 
ATOM     30  C   UNL     1       3.602   1.777  18.468  0.00  0.00    +0.000 C 
ATOM     31  C   UNL     1       4.863   1.665  20.630  0.00  0.00    +0.000 C 
ENDBRANCH  27  28
ENDBRANCH  11  27
TORSDOF 5
ENDMDL
MODEL 8
REMARK VINA RESULT:      -8.1      2.020      2.413
REMARK  Name = 
REMARK  10 active torsions:
REMARK  status: ('A' for Active; 'I' for Inactive)
REMARK    1  A    between atoms: C_1  and  N_2
REMARK    2  A    between atoms: C_5  and  S_6
REMARK    3  A    between atoms: S_6  and  N_9
REMARK    4  A    between atoms: C_13  and  C_14
REMARK    5  A    between atoms: N_20  and  C_21
REMARK    6  A    between atoms: N_24  and  C_25
REMARK    7  A    between atoms: C_25  and  C_26
REMARK    8  A    between atoms: C_26  and  C_27
REMARK    9  A    between atoms: C_26  and  C_28
REMARK   10  A    between atoms: C_26  and  C_29
REMARK                            x       y       z     vdW  Elec       q    Type
REMARK                         _______ _______ _______ _____ _____    ______ ____
ROOT
ATOM      1  C   UNL     1       2.562   7.267  18.655  0.00  0.00    +0.000 A 
ATOM      2  C   UNL     1       1.851   6.072  18.722  0.00  0.00    +0.000 A 
ATOM      3  C   UNL     1       2.244   5.029  17.908  0.00  0.00    +0.000 A 
ATOM      4  C   UNL     1       3.566   5.054  17.543  0.00  0.00    +0.000 A 
ATOM      5  C   UNL     1       4.185   6.266  17.282  0.00  0.00    +0.000 A 
ATOM      6  N   UNL     1       3.689   7.410  17.873  0.00  0.00    +0.000 NA
ATOM      7  N   UNL     1       5.596   6.007  17.159  0.00  0.00    +0.000 N 
ATOM      8  C   UNL     1       6.163   5.887  15.827  0.00  0.00    +0.000 C 
ATOM      9  C   UNL     1       5.809   4.779  17.868  0.00  0.00    +0.000 A 
ATOM     10  O   UNL     1       6.902   4.296  18.123  0.00  0.00    +0.000 OA
ATOM     11  N   UNL     1       4.544   4.223  18.170  0.00  0.00    +0.000 N 
ENDROOT
BRANCH   1  16
ATOM     12  N   UNL     1       0.595  10.502  19.625  0.00  0.00    +0.000 NA
ATOM     13  C   UNL     1      -0.016  10.076  20.909  0.00  0.00    +0.000 C 
ATOM     14  C   UNL     1       0.960   9.191  21.673  0.00  0.00    +0.000 C 
ATOM     15  C   UNL     1       1.364   7.958  20.852  0.00  0.00    +0.000 C 
ATOM     16  C   UNL     1       1.945   8.401  19.509  0.00  0.00    +0.000 C 
ATOM     17  C   UNL     1       0.994   9.344  18.746  0.00  0.00    +0.000 C 
BRANCH  12  18
ATOM     18  S   UNL     1      -0.286  11.755  18.838  0.00  0.00    +0.000 S 
ATOM     19  O   UNL     1      -1.207  11.132  17.893  0.00  0.00    +0.000 OA
ATOM     20  O   UNL     1       0.649  12.781  18.407  0.00  0.00    +0.000 OA
BRANCH  18  25
ATOM     21  C   UNL     1      -4.366  13.345  21.715  0.00  0.00    +0.000 C 
ATOM     22  N   UNL     1      -3.044  13.206  21.156  0.00  0.00    +0.000 N 
ATOM     23  C   UNL     1      -1.914  13.808  21.627  0.00  0.00    +0.000 A 
ATOM     24  N   UNL     1      -0.854  13.450  20.939  0.00  0.00    +0.000 NA
ATOM     25  C   UNL     1      -1.325  12.564  19.978  0.00  0.00    +0.000 A 
ATOM     26  C   UNL     1      -2.697  12.425  20.089  0.00  0.00    +0.000 A 
ENDBRANCH  18  25
ENDBRANCH  12  18
ENDBRANCH   1  16
BRANCH  11  27
ATOM     27  C   UNL     1       4.309   3.804  19.554  0.00  0.00    +0.000 C 
BRANCH  27  28
ATOM     28  C   UNL     1       3.739   2.396  19.794  0.00  0.00    +0.000 C 
ATOM     29  C   UNL     1       3.561   1.642  18.473  0.00  0.00    +0.000 C 
ATOM     30  C   UNL     1       4.774   1.647  20.662  0.00  0.00    +0.000 C 
ATOM     31  C   UNL     1       2.408   2.464  20.555  0.00  0.00    +0.000 C 
ENDBRANCH  27  28
ENDBRANCH  11  27
TORSDOF 5
ENDMDL
MODEL 9
REMARK VINA RESULT:      -8.0      1.925      2.300
REMARK  Name = 
REMARK  10 active torsions:
REMARK  status: ('A' for Active; 'I' for Inactive)
REMARK    1  A    between atoms: C_1  and  N_2
REMARK    2  A    between atoms: C_5  and  S_6
REMARK    3  A    between atoms: S_6  and  N_9
REMARK    4  A    between atoms: C_13  and  C_14
REMARK    5  A    between atoms: N_20  and  C_21
REMARK    6  A    between atoms: N_24  and  C_25
REMARK    7  A    between atoms: C_25  and  C_26
REMARK    8  A    between atoms: C_26  and  C_27
REMARK    9  A    between atoms: C_26  and  C_28
REMARK   10  A    between atoms: C_26  and  C_29
REMARK                            x       y       z     vdW  Elec       q    Type
REMARK                         _______ _______ _______ _____ _____    ______ ____
ROOT
ATOM      1  C   UNL     1       2.514   7.157  18.850  0.00  0.00    +0.000 A 
ATOM      2  C   UNL     1       1.835   5.950  18.987  0.00  0.00    +0.000 A 
ATOM      3  C   UNL     1       2.161   4.914  18.135  0.00  0.00    +0.000 A 
ATOM      4  C   UNL     1       3.438   4.964  17.636  0.00  0.00    +0.000 A 
ATOM      5  C   UNL     1       4.005   6.186  17.316  0.00  0.00    +0.000 A 
ATOM      6  N   UNL     1       3.552   7.321  17.957  0.00  0.00    +0.000 NA
ATOM      7  N   UNL     1       5.400   5.952  17.049  0.00  0.00    +0.000 N 
ATOM      8  C   UNL     1       5.830   5.843  15.665  0.00  0.00    +0.000 C 
ATOM      9  C   UNL     1       5.707   4.729  17.729  0.00  0.00    +0.000 A 
ATOM     10  O   UNL     1       6.829   4.265  17.870  0.00  0.00    +0.000 OA
ATOM     11  N   UNL     1       4.489   4.149  18.159  0.00  0.00    +0.000 N 
ENDROOT
BRANCH   1  16
ATOM     12  N   UNL     1       0.922  10.539  19.992  0.00  0.00    +0.000 NA
ATOM     13  C   UNL     1       0.112  10.084  21.150  0.00  0.00    +0.000 C 
ATOM     14  C   UNL     1       0.859   8.987  21.898  0.00  0.00    +0.000 C 
ATOM     15  C   UNL     1       1.179   7.797  20.982  0.00  0.00    +0.000 C 
ATOM     16  C   UNL     1       1.967   8.280  19.765  0.00  0.00    +0.000 C 
ATOM     17  C   UNL     1       1.253   9.429  19.027  0.00  0.00    +0.000 C 
BRANCH  12  18
ATOM     18  S   UNL     1       0.323  11.986  19.272  0.00  0.00    +0.000 S 
ATOM     19  O   UNL     1      -0.951  11.675  18.633  0.00  0.00    +0.000 OA
ATOM     20  O   UNL     1       1.402  12.616  18.529  0.00  0.00    +0.000 OA
BRANCH  18  25
ATOM     21  C   UNL     1      -2.189  15.297  22.463  0.00  0.00    +0.000 C 
ATOM     22  N   UNL     1      -1.163  14.516  21.817  0.00  0.00    +0.000 N 
ATOM     23  C   UNL     1       0.128  14.393  22.241  0.00  0.00    +0.000 A 
ATOM     24  N   UNL     1       0.812  13.574  21.473  0.00  0.00    +0.000 NA
ATOM     25  C   UNL     1      -0.089  13.143  20.508  0.00  0.00    +0.000 A 
ATOM     26  C   UNL     1      -1.319  13.746  20.698  0.00  0.00    +0.000 A 
ENDBRANCH  18  25
ENDBRANCH  12  18
ENDBRANCH   1  16
BRANCH  11  27
ATOM     27  C   UNL     1       4.405   3.726  19.558  0.00  0.00    +0.000 C 
BRANCH  27  28
ATOM     28  C   UNL     1       3.901   2.304  19.851  0.00  0.00    +0.000 C 
ATOM     29  C   UNL     1       4.919   1.518  20.682  0.00  0.00    +0.000 C 
ATOM     30  C   UNL     1       2.601   2.461  20.672  0.00  0.00    +0.000 C 
ATOM     31  C   UNL     1       3.579   1.555  18.551  0.00  0.00    +0.000 C 
ENDBRANCH  27  28
ENDBRANCH  11  27
TORSDOF 5
ENDMDL
