MODEL 1
REMARK VINA RESULT:      -7.9      0.000      0.000
REMARK  Name = 
REMARK  7 active torsions:
REMARK  status: ('A' for Active; 'I' for Inactive)
REMARK    1  A    between atoms: C_1  and  C_2
REMARK    2  A    between atoms: C_4  and  C_5
REMARK    3  A    between atoms: C_13  and  N_14
REMARK    4  A    between atoms: N_17  and  N_18
REMARK    5  A    between atoms: N_18  and  C_19
REMARK    6  A    between atoms: N_18  and  C_20
REMARK    7  A    between atoms: C_25  and  C_26
REMARK                            x       y       z     vdW  Elec       q    Type
REMARK                         _______ _______ _______ _____ _____    ______ ____
ROOT
ATOM      1  C   UNL     1       2.984   5.754  19.325  0.00  0.00    +0.000 A 
ATOM      2  N   UNL     1       2.575   4.951  20.333  0.00  0.00    +0.000 NA
ATOM      3  N   UNL     1       1.753   5.718  21.083  0.00  0.00    +0.000 N 
ATOM      4  C   UNL     1       1.651   6.964  20.581  0.00  0.00    +0.000 A 
ATOM      5  C   UNL     1       2.419   7.025  19.445  0.00  0.00    +0.000 A 
ATOM      6  C   UNL     1       2.300   8.356  18.881  0.00  0.00    +0.000 C 
ATOM      7  O   UNL     1       2.836   8.830  17.897  0.00  0.00    +0.000 OA
ATOM      8  C   UNL     1       1.347   9.080  19.800  0.00  0.00    +0.000 A 
ATOM      9  C   UNL     1       0.785  10.336  19.682  0.00  0.00    +0.000 A 
ATOM     10  C   UNL     1      -0.140  10.703  20.674  0.00  0.00    +0.000 A 
ATOM     11  C   UNL     1      -0.479   9.824  21.732  0.00  0.00    +0.000 A 
ATOM     12  C   UNL     1       0.066   8.539  21.817  0.00  0.00    +0.000 A 
ATOM     13  C   UNL     1       0.963   8.184  20.835  0.00  0.00    +0.000 A 
ATOM     14  H   UNL     1       1.316   5.309  21.902  0.00  0.00    +0.000 HD
ENDROOT
BRANCH   1  18
ATOM     15  C   UNL     1       7.131   5.715  16.369  0.00  0.00    +0.000 C 
ATOM     16  C   UNL     1       5.814   5.333  16.941  0.00  0.00    +0.000 A 
ATOM     17  C   UNL     1       5.145   5.903  18.001  0.00  0.00    +0.000 A 
ATOM     18  C   UNL     1       3.884   5.285  18.260  0.00  0.00    +0.000 A 
ATOM     19  C   UNL     1       3.634   4.243  17.378  0.00  0.00    +0.000 A 
ATOM     20  C   UNL     1       2.470   3.316  17.258  0.00  0.00    +0.000 C 
ATOM     21  S   UNL     1       4.931   4.041  16.266  0.00  0.00    +0.000 S 
ENDBRANCH   1  18
BRANCH   9  22
ATOM     22  N   UNL     1       1.132  11.208  18.624  0.00  0.00    +0.000 N 
ATOM     23  C   UNL     1       1.803  12.408  18.862  0.00  0.00    +0.000 C 
ATOM     24  O   UNL     1       2.117  12.805  19.979  0.00  0.00    +0.000 OA
ATOM     25  N   UNL     1       2.069  13.100  17.680  0.00  0.00    +0.000 N 
ATOM     26  H   UNL     1       0.485  11.232  17.838  0.00  0.00    +0.000 HD
ATOM     27  H   UNL     1       1.593  12.832  16.826  0.00  0.00    +0.000 HD
BRANCH  25  28
ATOM     28  N   UNL     1       2.741  14.347  17.732  0.00  0.00    +0.000 NA
ATOM     29  C   UNL     1       2.006  15.336  18.519  0.00  0.00    +0.000 C 
ATOM     30  C   UNL     1       4.112  14.202  18.221  0.00  0.00    +0.000 C 
ENDBRANCH  25  28
ENDBRANCH   9  22
TORSDOF 3
ENDMDL
MODEL 2
REMARK VINA RESULT:      -7.8      1.109      1.598
REMARK  Name = 
REMARK  7 active torsions:
REMARK  status: ('A' for Active; 'I' for Inactive)
REMARK    1  A    between atoms: C_1  and  C_2
REMARK    2  A    between atoms: C_4  and  C_5
REMARK    3  A    between atoms: C_13  and  N_14
REMARK    4  A    between atoms: N_17  and  N_18
REMARK    5  A    between atoms: N_18  and  C_19
REMARK    6  A    between atoms: N_18  and  C_20
REMARK    7  A    between atoms: C_25  and  C_26
REMARK                            x       y       z     vdW  Elec       q    Type
REMARK                         _______ _______ _______ _____ _____    ______ ____
ROOT
ATOM      1  C   UNL     1       3.789   5.494  18.960  0.00  0.00    +0.000 A 
ATOM      2  N   UNL     1       3.445   4.587  19.900  0.00  0.00    +0.000 NA
ATOM      3  N   UNL     1       2.488   5.191  20.641  0.00  0.00    +0.000 N 
ATOM      4  C   UNL     1       2.240   6.439  20.197  0.00  0.00    +0.000 A 
ATOM      5  C   UNL     1       3.049   6.669  19.112  0.00  0.00    +0.000 A 
ATOM      6  C   UNL     1       2.776   8.001  18.609  0.00  0.00    +0.000 C 
ATOM      7  O   UNL     1       3.290   8.599  17.683  0.00  0.00    +0.000 OA
ATOM      8  C   UNL     1       1.688   8.536  19.507  0.00  0.00    +0.000 A 
ATOM      9  C   UNL     1       0.964   9.710  19.421  0.00  0.00    +0.000 A 
ATOM     10  C   UNL     1      -0.051   9.891  20.376  0.00  0.00    +0.000 A 
ATOM     11  C   UNL     1      -0.318   8.914  21.367  0.00  0.00    +0.000 A 
ATOM     12  C   UNL     1       0.394   7.712  21.418  0.00  0.00    +0.000 A 
ATOM     13  C   UNL     1       1.380   7.538  20.473  0.00  0.00    +0.000 A 
ATOM     14  H   UNL     1       2.071   4.680  21.411  0.00  0.00    +0.000 HD
ENDROOT
BRANCH   1  18
ATOM     15  C   UNL     1       5.555   4.209  14.359  0.00  0.00    +0.000 C 
ATOM     16  C   UNL     1       5.532   4.612  15.789  0.00  0.00    +0.000 A 
ATOM     17  C   UNL     1       4.440   4.869  16.587  0.00  0.00    +0.000 A 
ATOM     18  C   UNL     1       4.797   5.213  17.925  0.00  0.00    +0.000 A 
ATOM     19  C   UNL     1       6.173   5.214  18.104  0.00  0.00    +0.000 A 
ATOM     20  C   UNL     1       7.007   5.507  19.306  0.00  0.00    +0.000 C 
ATOM     21  S   UNL     1       6.992   4.801  16.648  0.00  0.00    +0.000 S 
ENDBRANCH   1  18
BRANCH   9  22
ATOM     22  N   UNL     1       1.241  10.681  18.430  0.00  0.00    +0.000 N 
ATOM     23  C   UNL     1       1.705  11.952  18.768  0.00  0.00    +0.000 C 
ATOM     24  O   UNL     1       1.885  12.329  19.922  0.00  0.00    +0.000 OA
ATOM     25  N   UNL     1       1.937  12.739  17.639  0.00  0.00    +0.000 N 
ATOM     26  H   UNL     1       0.648  10.650  17.603  0.00  0.00    +0.000 HD
ATOM     27  H   UNL     1       1.561  12.451  16.744  0.00  0.00    +0.000 HD
BRANCH  25  28
ATOM     28  N   UNL     1       2.406  14.067  17.794  0.00  0.00    +0.000 NA
ATOM     29  C   UNL     1       1.525  14.868  18.643  0.00  0.00    +0.000 C 
ATOM     30  C   UNL     1       3.782  14.099  18.291  0.00  0.00    +0.000 C 
ENDBRANCH  25  28
ENDBRANCH   9  22
TORSDOF 3
ENDMDL
MODEL 3
REMARK VINA RESULT:      -7.6      3.350      7.319
REMARK  Name = 
REMARK  7 active torsions:
REMARK  status: ('A' for Active; 'I' for Inactive)
REMARK    1  A    between atoms: C_1  and  C_2
REMARK    2  A    between atoms: C_4  and  C_5
REMARK    3  A    between atoms: C_13  and  N_14
REMARK    4  A    between atoms: N_17  and  N_18
REMARK    5  A    between atoms: N_18  and  C_19
REMARK    6  A    between atoms: N_18  and  C_20
REMARK    7  A    between atoms: C_25  and  C_26
REMARK                            x       y       z     vdW  Elec       q    Type
REMARK                         _______ _______ _______ _____ _____    ______ ____
ROOT
ATOM      1  C   UNL     1       0.843   9.752  20.021  0.00  0.00    +0.000 A 
ATOM      2  N   UNL     1       0.282   9.494  21.224  0.00  0.00    +0.000 NA
ATOM      3  N   UNL     1       0.607   8.210  21.496  0.00  0.00    +0.000 N 
ATOM      4  C   UNL     1       1.335   7.667  20.501  0.00  0.00    +0.000 A 
ATOM      5  C   UNL     1       1.517   8.629  19.539  0.00  0.00    +0.000 A 
ATOM      6  C   UNL     1       2.320   8.065  18.471  0.00  0.00    +0.000 C 
ATOM      7  O   UNL     1       2.685   8.572  17.427  0.00  0.00    +0.000 OA
ATOM      8  C   UNL     1       2.621   6.656  18.918  0.00  0.00    +0.000 A 
ATOM      9  C   UNL     1       3.441   5.701  18.349  0.00  0.00    +0.000 A 
ATOM     10  C   UNL     1       3.579   4.493  19.055  0.00  0.00    +0.000 A 
ATOM     11  C   UNL     1       2.915   4.276  20.287  0.00  0.00    +0.000 A 
ATOM     12  C   UNL     1       2.121   5.266  20.873  0.00  0.00    +0.000 A 
ATOM     13  C   UNL     1       1.999   6.450  20.181  0.00  0.00    +0.000 A 
ATOM     14  H   UNL     1       0.293   7.801  22.369  0.00  0.00    +0.000 HD
ENDROOT
BRANCH   1  18
ATOM     15  C   UNL     1       2.472  14.225  18.211  0.00  0.00    +0.000 C 
ATOM     16  C   UNL     1       1.564  13.104  18.568  0.00  0.00    +0.000 A 
ATOM     17  C   UNL     1       1.882  11.902  19.158  0.00  0.00    +0.000 A 
ATOM     18  C   UNL     1       0.742  11.069  19.372  0.00  0.00    +0.000 A 
ATOM     19  C   UNL     1      -0.425  11.672  18.923  0.00  0.00    +0.000 A 
ATOM     20  C   UNL     1      -1.840  11.198  18.929  0.00  0.00    +0.000 C 
ATOM     21  S   UNL     1      -0.107  13.225  18.254  0.00  0.00    +0.000 S 
ENDBRANCH   1  18
BRANCH   9  22
ATOM     22  N   UNL     1       4.097   5.926  17.116  0.00  0.00    +0.000 N 
ATOM     23  C   UNL     1       4.830   4.918  16.489  0.00  0.00    +0.000 C 
ATOM     24  O   UNL     1       4.981   3.793  16.954  0.00  0.00    +0.000 OA
ATOM     25  N   UNL     1       5.370   5.345  15.275  0.00  0.00    +0.000 N 
ATOM     26  H   UNL     1       4.457   6.867  16.971  0.00  0.00    +0.000 HD
ATOM     27  H   UNL     1       5.397   6.335  15.061  0.00  0.00    +0.000 HD
BRANCH  25  28
ATOM     28  N   UNL     1       6.154   4.452  14.503  0.00  0.00    +0.000 NA
ATOM     29  C   UNL     1       5.402   3.886  13.383  0.00  0.00    +0.000 C 
ATOM     30  C   UNL     1       7.390   5.081  14.039  0.00  0.00    +0.000 C 
ENDBRANCH  25  28
ENDBRANCH   9  22
TORSDOF 3
ENDMDL
MODEL 4
REMARK VINA RESULT:      -7.5      1.968      3.157
REMARK  Name = 
REMARK  7 active torsions:
REMARK  status: ('A' for Active; 'I' for Inactive)
REMARK    1  A    between atoms: C_1  and  C_2
REMARK    2  A    between atoms: C_4  and  C_5
REMARK    3  A    between atoms: C_13  and  N_14
REMARK    4  A    between atoms: N_17  and  N_18
REMARK    5  A    between atoms: N_18  and  C_19
REMARK    6  A    between atoms: N_18  and  C_20
REMARK    7  A    between atoms: C_25  and  C_26
REMARK                            x       y       z     vdW  Elec       q    Type
REMARK                         _______ _______ _______ _____ _____    ______ ____
ROOT
ATOM      1  C   UNL     1       4.606   4.410  17.196  0.00  0.00    +0.000 A 
ATOM      2  N   UNL     1       4.456   3.258  17.886  0.00  0.00    +0.000 NA
ATOM      3  N   UNL     1       3.655   3.574  18.929  0.00  0.00    +0.000 N 
ATOM      4  C   UNL     1       3.318   4.878  18.911  0.00  0.00    +0.000 A 
ATOM      5  C   UNL     1       3.901   5.449  17.807  0.00  0.00    +0.000 A 
ATOM      6  C   UNL     1       3.527   6.849  17.762  0.00  0.00    +0.000 C 
ATOM      7  O   UNL     1       3.849   7.711  16.966  0.00  0.00    +0.000 OA
ATOM      8  C   UNL     1       2.628   7.046  18.958  0.00  0.00    +0.000 A 
ATOM      9  C   UNL     1       1.893   8.151  19.342  0.00  0.00    +0.000 A 
ATOM     10  C   UNL     1       1.080   7.998  20.478  0.00  0.00    +0.000 A 
ATOM     11  C   UNL     1       1.015   6.771  21.182  0.00  0.00    +0.000 A 
ATOM     12  C   UNL     1       1.732   5.647  20.759  0.00  0.00    +0.000 A 
ATOM     13  C   UNL     1       2.519   5.803  19.640  0.00  0.00    +0.000 A 
ATOM     14  H   UNL     1       3.398   2.845  19.586  0.00  0.00    +0.000 HD
ENDROOT
BRANCH   1  18
ATOM     15  C   UNL     1       5.943   3.314  12.405  0.00  0.00    +0.000 C 
ATOM     16  C   UNL     1       5.952   3.932  13.756  0.00  0.00    +0.000 A 
ATOM     17  C   UNL     1       5.063   3.740  14.790  0.00  0.00    +0.000 A 
ATOM     18  C   UNL     1       5.398   4.489  15.958  0.00  0.00    +0.000 A 
ATOM     19  C   UNL     1       6.547   5.245  15.770  0.00  0.00    +0.000 A 
ATOM     20  C   UNL     1       7.273   6.173  16.686  0.00  0.00    +0.000 C 
ATOM     21  S   UNL     1       7.184   5.029  14.186  0.00  0.00    +0.000 S 
ENDBRANCH   1  18
BRANCH   9  22
ATOM     22  N   UNL     1       1.967   9.374  18.634  0.00  0.00    +0.000 N 
ATOM     23  C   UNL     1       1.504  10.565  19.193  0.00  0.00    +0.000 C 
ATOM     24  O   UNL     1       0.988  10.644  20.303  0.00  0.00    +0.000 OA
ATOM     25  N   UNL     1       1.696  11.651  18.337  0.00  0.00    +0.000 N 
ATOM     26  H   UNL     1       1.861   9.308  17.624  0.00  0.00    +0.000 HD
ATOM     27  H   UNL     1       1.917  11.486  17.362  0.00  0.00    +0.000 HD
BRANCH  25  28
ATOM     28  N   UNL     1       1.277  12.944  18.739  0.00  0.00    +0.000 NA
ATOM     29  C   UNL     1       2.177  13.990  18.256  0.00  0.00    +0.000 C 
ATOM     30  C   UNL     1      -0.104  13.213  18.337  0.00  0.00    +0.000 C 
ENDBRANCH  25  28
ENDBRANCH   9  22
TORSDOF 3
ENDMDL
MODEL 5
REMARK VINA RESULT:      -7.4      3.506      4.553
REMARK  Name = 
REMARK  7 active torsions:
REMARK  status: ('A' for Active; 'I' for Inactive)
REMARK    1  A    between atoms: C_1  and  C_2
REMARK    2  A    between atoms: C_4  and  C_5
REMARK    3  A    between atoms: C_13  and  N_14
REMARK    4  A    between atoms: N_17  and  N_18
REMARK    5  A    between atoms: N_18  and  C_19
REMARK    6  A    between atoms: N_18  and  C_20
REMARK    7  A    between atoms: C_25  and  C_26
REMARK                            x       y       z     vdW  Elec       q    Type
REMARK                         _______ _______ _______ _____ _____    ______ ____
ROOT
ATOM      1  C   UNL     1       1.624   8.244  20.355  0.00  0.00    +0.000 A 
ATOM      2  N   UNL     1       1.684   8.298  21.704  0.00  0.00    +0.000 NA
ATOM      3  N   UNL     1       0.853   9.306  22.054  0.00  0.00    +0.000 N 
ATOM      4  C   UNL     1       0.295   9.880  20.971  0.00  0.00    +0.000 A 
ATOM      5  C   UNL     1       0.757   9.220  19.859  0.00  0.00    +0.000 A 
ATOM      6  C   UNL     1       0.146   9.813  18.685  0.00  0.00    +0.000 C 
ATOM      7  O   UNL     1       0.304   9.543  17.510  0.00  0.00    +0.000 OA
ATOM      8  C   UNL     1      -0.760  10.892  19.226  0.00  0.00    +0.000 A 
ATOM      9  C   UNL     1      -1.670  11.697  18.569  0.00  0.00    +0.000 A 
ATOM     10  C   UNL     1      -2.432  12.564  19.371  0.00  0.00    +0.000 A 
ATOM     11  C   UNL     1      -2.275  12.601  20.778  0.00  0.00    +0.000 A 
ATOM     12  C   UNL     1      -1.379  11.751  21.435  0.00  0.00    +0.000 A 
ATOM     13  C   UNL     1      -0.644  10.898  20.644  0.00  0.00    +0.000 A 
ATOM     14  H   UNL     1       0.733   9.521  23.037  0.00  0.00    +0.000 HD
ENDROOT
BRANCH   1  18
ATOM     15  C   UNL     1       4.603   6.506  16.607  0.00  0.00    +0.000 C 
ATOM     16  C   UNL     1       3.746   6.528  17.821  0.00  0.00    +0.000 A 
ATOM     17  C   UNL     1       3.151   7.611  18.428  0.00  0.00    +0.000 A 
ATOM     18  C   UNL     1       2.376   7.251  19.572  0.00  0.00    +0.000 A 
ATOM     19  C   UNL     1       2.414   5.884  19.807  0.00  0.00    +0.000 A 
ATOM     20  C   UNL     1       1.774   5.051  20.867  0.00  0.00    +0.000 C 
ATOM     21  S   UNL     1       3.386   5.077  18.639  0.00  0.00    +0.000 S 
ENDBRANCH   1  18
BRANCH   9  22
ATOM     22  N   UNL     1      -1.818  11.656  17.163  0.00  0.00    +0.000 N 
ATOM     23  C   UNL     1      -2.520  10.627  16.536  0.00  0.00    +0.000 C 
ATOM     24  O   UNL     1      -3.035   9.687  17.134  0.00  0.00    +0.000 OA
ATOM     25  N   UNL     1      -2.566  10.795  15.151  0.00  0.00    +0.000 N 
ATOM     26  H   UNL     1      -1.038  12.027  16.625  0.00  0.00    +0.000 HD
ATOM     27  H   UNL     1      -1.941  11.458  14.708  0.00  0.00    +0.000 HD
BRANCH  25  28
ATOM     28  N   UNL     1      -3.235   9.837  14.350  0.00  0.00    +0.000 NA
ATOM     29  C   UNL     1      -4.580  10.272  13.977  0.00  0.00    +0.000 C 
ATOM     30  C   UNL     1      -2.452   9.482  13.166  0.00  0.00    +0.000 C 
ENDBRANCH  25  28
ENDBRANCH   9  22
TORSDOF 3
ENDMDL
MODEL 6
REMARK VINA RESULT:      -7.4      6.648     10.185
REMARK  Name = 
REMARK  7 active torsions:
REMARK  status: ('A' for Active; 'I' for Inactive)
REMARK    1  A    between atoms: C_1  and  C_2
REMARK    2  A    between atoms: C_4  and  C_5
REMARK    3  A    between atoms: C_13  and  N_14
REMARK    4  A    between atoms: N_17  and  N_18
REMARK    5  A    between atoms: N_18  and  C_19
REMARK    6  A    between atoms: N_18  and  C_20
REMARK    7  A    between atoms: C_25  and  C_26
REMARK                            x       y       z     vdW  Elec       q    Type
REMARK                         _______ _______ _______ _____ _____    ______ ____
ROOT
ATOM      1  C   UNL     1      -6.569  12.781  19.273  0.00  0.00    +0.000 A 
ATOM      2  N   UNL     1      -7.455  12.358  18.344  0.00  0.00    +0.000 NA
ATOM      3  N   UNL     1      -6.724  11.648  17.456  0.00  0.00    +0.000 N 
ATOM      4  C   UNL     1      -5.421  11.628  17.798  0.00  0.00    +0.000 A 
ATOM      5  C   UNL     1      -5.281  12.336  18.966  0.00  0.00    +0.000 A 
ATOM      6  C   UNL     1      -3.886  12.304  19.359  0.00  0.00    +0.000 C 
ATOM      7  O   UNL     1      -3.338  12.825  20.312  0.00  0.00    +0.000 OA
ATOM      8  C   UNL     1      -3.207  11.468  18.302  0.00  0.00    +0.000 A 
ATOM      9  C   UNL     1      -1.905  11.012  18.233  0.00  0.00    +0.000 A 
ATOM     10  C   UNL     1      -1.591  10.178  17.147  0.00  0.00    +0.000 A 
ATOM     11  C   UNL     1      -2.564   9.821  16.182  0.00  0.00    +0.000 A 
ATOM     12  C   UNL     1      -3.889  10.255  16.285  0.00  0.00    +0.000 A 
ATOM     13  C   UNL     1      -4.191  11.064  17.357  0.00  0.00    +0.000 A 
ATOM     14  H   UNL     1      -7.194  11.221  16.665  0.00  0.00    +0.000 HD
ENDROOT
BRANCH   1  18
ATOM     15  C   UNL     1      -7.916  13.671  24.103  0.00  0.00    +0.000 C 
ATOM     16  C   UNL     1      -7.587  13.907  22.673  0.00  0.00    +0.000 A 
ATOM     17  C   UNL     1      -7.180  12.993  21.728  0.00  0.00    +0.000 A 
ATOM     18  C   UNL     1      -6.973  13.577  20.442  0.00  0.00    +0.000 A 
ATOM     19  C   UNL     1      -7.227  14.942  20.453  0.00  0.00    +0.000 A 
ATOM     20  C   UNL     1      -7.148  15.964  19.368  0.00  0.00    +0.000 C 
ATOM     21  S   UNL     1      -7.705  15.475  22.017  0.00  0.00    +0.000 S 
ENDBRANCH   1  18
BRANCH   9  22
ATOM     22  N   UNL     1      -0.939  11.377  19.200  0.00  0.00    +0.000 N 
ATOM     23  C   UNL     1      -0.222  12.569  19.096  0.00  0.00    +0.000 C 
ATOM     24  O   UNL     1      -0.350  13.365  18.172  0.00  0.00    +0.000 OA
ATOM     25  N   UNL     1       0.657  12.742  20.167  0.00  0.00    +0.000 N 
ATOM     26  H   UNL     1      -0.426  10.607  19.625  0.00  0.00    +0.000 HD
ATOM     27  H   UNL     1       0.874  11.956  20.768  0.00  0.00    +0.000 HD
BRANCH  25  28
ATOM     28  N   UNL     1       1.474  13.899  20.223  0.00  0.00    +0.000 NA
ATOM     29  C   UNL     1       1.503  14.490  21.560  0.00  0.00    +0.000 C 
ATOM     30  C   UNL     1       2.828  13.627  19.741  0.00  0.00    +0.000 C 
ENDBRANCH  25  28
ENDBRANCH   9  22
TORSDOF 3
ENDMDL
MODEL 7
REMARK VINA RESULT:      -7.3      1.488      2.325
REMARK  Name = 
REMARK  7 active torsions:
REMARK  status: ('A' for Active; 'I' for Inactive)
REMARK    1  A    between atoms: C_1  and  C_2
REMARK    2  A    between atoms: C_4  and  C_5
REMARK    3  A    between atoms: C_13  and  N_14
REMARK    4  A    between atoms: N_17  and  N_18
REMARK    5  A    between atoms: N_18  and  C_19
REMARK    6  A    between atoms: N_18  and  C_20
REMARK    7  A    between atoms: C_25  and  C_26
REMARK                            x       y       z     vdW  Elec       q    Type
REMARK                         _______ _______ _______ _____ _____    ______ ____
ROOT
ATOM      1  C   UNL     1       4.189   5.192  17.968  0.00  0.00    +0.000 A 
ATOM      2  N   UNL     1       3.995   4.124  18.774  0.00  0.00    +0.000 NA
ATOM      3  N   UNL     1       3.126   4.547  19.719  0.00  0.00    +0.000 N 
ATOM      4  C   UNL     1       2.788   5.838  19.531  0.00  0.00    +0.000 A 
ATOM      5  C   UNL     1       3.443   6.286  18.411  0.00  0.00    +0.000 A 
ATOM      6  C   UNL     1       3.071   7.669  18.184  0.00  0.00    +0.000 C 
ATOM      7  O   UNL     1       3.443   8.438  17.318  0.00  0.00    +0.000 OA
ATOM      8  C   UNL     1       2.093   7.991  19.287  0.00  0.00    +0.000 A 
ATOM      9  C   UNL     1       1.333   9.126  19.494  0.00  0.00    +0.000 A 
ATOM     10  C   UNL     1       0.445   9.094  20.584  0.00  0.00    +0.000 A 
ATOM     11  C   UNL     1       0.336   7.953  21.416  0.00  0.00    +0.000 A 
ATOM     12  C   UNL     1       1.081   6.795  21.171  0.00  0.00    +0.000 A 
ATOM     13  C   UNL     1       1.941   6.831  20.096  0.00  0.00    +0.000 A 
ATOM     14  H   UNL     1       2.827   3.895  20.435  0.00  0.00    +0.000 HD
ENDROOT
BRANCH   1  18
ATOM     15  C   UNL     1       5.734   3.723  13.343  0.00  0.00    +0.000 C 
ATOM     16  C   UNL     1       5.707   4.415  14.658  0.00  0.00    +0.000 A 
ATOM     17  C   UNL     1       4.742   4.352  15.637  0.00  0.00    +0.000 A 
ATOM     18  C   UNL     1       5.062   5.138  16.785  0.00  0.00    +0.000 A 
ATOM     19  C   UNL     1       6.277   5.792  16.636  0.00  0.00    +0.000 A 
ATOM     20  C   UNL     1       7.017   6.711  17.550  0.00  0.00    +0.000 C 
ATOM     21  S   UNL     1       6.994   5.436  15.112  0.00  0.00    +0.000 S 
ENDBRANCH   1  18
BRANCH   9  22
ATOM     22  N   UNL     1       1.451  10.261  18.659  0.00  0.00    +0.000 N 
ATOM     23  C   UNL     1       1.500  11.550  19.190  0.00  0.00    +0.000 C 
ATOM     24  O   UNL     1       1.423  11.800  20.389  0.00  0.00    +0.000 OA
ATOM     25  N   UNL     1       1.644  12.518  18.194  0.00  0.00    +0.000 N 
ATOM     26  H   UNL     1       0.998  10.192  17.751  0.00  0.00    +0.000 HD
ATOM     27  H   UNL     1       1.478  12.268  17.227  0.00  0.00    +0.000 HD
BRANCH  25  28
ATOM     28  N   UNL     1       1.705  13.888  18.551  0.00  0.00    +0.000 NA
ATOM     29  C   UNL     1       2.709  14.616  17.776  0.00  0.00    +0.000 C 
ATOM     30  C   UNL     1       0.395  14.532  18.448  0.00  0.00    +0.000 C 
ENDBRANCH  25  28
ENDBRANCH   9  22
TORSDOF 3
ENDMDL
MODEL 8
REMARK VINA RESULT:      -7.3      3.001      3.902
REMARK  Name = 
REMARK  7 active torsions:
REMARK  status: ('A' for Active; 'I' for Inactive)
REMARK    1  A    between atoms: C_1  and  C_2
REMARK    2  A    between atoms: C_4  and  C_5
REMARK    3  A    between atoms: C_13  and  N_14
REMARK    4  A    between atoms: N_17  and  N_18
REMARK    5  A    between atoms: N_18  and  C_19
REMARK    6  A    between atoms: N_18  and  C_20
REMARK    7  A    between atoms: C_25  and  C_26
REMARK                            x       y       z     vdW  Elec       q    Type
REMARK                         _______ _______ _______ _____ _____    ______ ____
ROOT
ATOM      1  C   UNL     1       2.022   7.568  20.238  0.00  0.00    +0.000 A 
ATOM      2  N   UNL     1       2.172   7.356  21.564  0.00  0.00    +0.000 NA
ATOM      3  N   UNL     1       1.498   8.364  22.161  0.00  0.00    +0.000 N 
ATOM      4  C   UNL     1       0.950   9.194  21.252  0.00  0.00    +0.000 A 
ATOM      5  C   UNL     1       1.256   8.712  20.003  0.00  0.00    +0.000 A 
ATOM      6  C   UNL     1       0.653   9.583  19.014  0.00  0.00    +0.000 C 
ATOM      7  O   UNL     1       0.702   9.526  17.800  0.00  0.00    +0.000 OA
ATOM      8  C   UNL     1      -0.074  10.633  19.817  0.00  0.00    +0.000 A 
ATOM      9  C   UNL     1      -0.915  11.646  19.397  0.00  0.00    +0.000 A 
ATOM     10  C   UNL     1      -1.509  12.424  20.406  0.00  0.00    +0.000 A 
ATOM     11  C   UNL     1      -1.262  12.173  21.777  0.00  0.00    +0.000 A 
ATOM     12  C   UNL     1      -0.441  11.118  22.190  0.00  0.00    +0.000 A 
ATOM     13  C   UNL     1       0.129  10.355  21.197  0.00  0.00    +0.000 A 
ATOM     14  H   UNL     1       1.468   8.400  23.174  0.00  0.00    +0.000 HD
ENDROOT
BRANCH   1  18
ATOM     15  C   UNL     1       4.868   6.203  16.241  0.00  0.00    +0.000 C 
ATOM     16  C   UNL     1       3.922   6.115  17.383  0.00  0.00    +0.000 A 
ATOM     17  C   UNL     1       3.542   7.108  18.257  0.00  0.00    +0.000 A 
ATOM     18  C   UNL     1       2.592   6.664  19.226  0.00  0.00    +0.000 A 
ATOM     19  C   UNL     1       2.280   5.322  19.060  0.00  0.00    +0.000 A 
ATOM     20  C   UNL     1       1.357   4.427  19.817  0.00  0.00    +0.000 C 
ATOM     21  S   UNL     1       3.147   4.639  17.739  0.00  0.00    +0.000 S 
ENDBRANCH   1  18
BRANCH   9  22
ATOM     22  N   UNL     1      -1.154  11.891  18.025  0.00  0.00    +0.000 N 
ATOM     23  C   UNL     1      -2.220  11.292  17.355  0.00  0.00    +0.000 C 
ATOM     24  O   UNL     1      -3.004  10.508  17.880  0.00  0.00    +0.000 OA
ATOM     25  N   UNL     1      -2.286  11.691  16.019  0.00  0.00    +0.000 N 
ATOM     26  H   UNL     1      -0.326  12.048  17.453  0.00  0.00    +0.000 HD
ATOM     27  H   UNL     1      -1.492  12.156  15.597  0.00  0.00    +0.000 HD
BRANCH  25  28
ATOM     28  N   UNL     1      -3.307  11.175  15.182  0.00  0.00    +0.000 NA
ATOM     29  C   UNL     1      -2.937   9.891  14.588  0.00  0.00    +0.000 C 
ATOM     30  C   UNL     1      -4.585  11.078  15.887  0.00  0.00    +0.000 C 
ENDBRANCH  25  28
ENDBRANCH   9  22
TORSDOF 3
ENDMDL
MODEL 9
REMARK VINA RESULT:      -7.2      3.493      6.405
REMARK  Name = 
REMARK  7 active torsions:
REMARK  status: ('A' for Active; 'I' for Inactive)
REMARK    1  A    between atoms: C_1  and  C_2
REMARK    2  A    between atoms: C_4  and  C_5
REMARK    3  A    between atoms: C_13  and  N_14
REMARK    4  A    between atoms: N_17  and  N_18
REMARK    5  A    between atoms: N_18  and  C_19
REMARK    6  A    between atoms: N_18  and  C_20
REMARK    7  A    between atoms: C_25  and  C_26
REMARK                            x       y       z     vdW  Elec       q    Type
REMARK                         _______ _______ _______ _____ _____    ______ ____
ROOT
ATOM      1  C   UNL     1      -0.037  11.681  19.271  0.00  0.00    +0.000 A 
ATOM      2  N   UNL     1      -1.345  11.795  18.949  0.00  0.00    +0.000 NA
ATOM      3  N   UNL     1      -1.544  13.117  18.745  0.00  0.00    +0.000 N 
ATOM      4  C   UNL     1      -0.412  13.819  18.941  0.00  0.00    +0.000 A 
ATOM      5  C   UNL     1       0.583  12.933  19.271  0.00  0.00    +0.000 A 
ATOM      6  C   UNL     1       1.815  13.673  19.463  0.00  0.00    +0.000 C 
ATOM      7  O   UNL     1       2.917  13.272  19.785  0.00  0.00    +0.000 OA
ATOM      8  C   UNL     1       1.448  15.110  19.183  0.00  0.00    +0.000 A 
ATOM      9  C   UNL     1       2.251  16.231  19.103  0.00  0.00    +0.000 A 
ATOM     10  C   UNL     1       1.615  17.432  18.744  0.00  0.00    +0.000 A 
ATOM     11  C   UNL     1       0.226  17.482  18.471  0.00  0.00    +0.000 A 
ATOM     12  C   UNL     1      -0.569  16.332  18.515  0.00  0.00    +0.000 A 
ATOM     13  C   UNL     1       0.063  15.158  18.858  0.00  0.00    +0.000 A 
ATOM     14  H   UNL     1      -2.469  13.436  18.479  0.00  0.00    +0.000 HD
ENDROOT
BRANCH   1  18
ATOM     15  C   UNL     1       2.575   7.427  18.265  0.00  0.00    +0.000 C 
ATOM     16  C   UNL     1       1.800   8.453  19.010  0.00  0.00    +0.000 A 
ATOM     17  C   UNL     1       1.319   9.659  18.553  0.00  0.00    +0.000 A 
ATOM     18  C   UNL     1       0.596  10.382  19.549  0.00  0.00    +0.000 A 
ATOM     19  C   UNL     1       0.556   9.695  20.754  0.00  0.00    +0.000 A 
ATOM     20  C   UNL     1      -0.070  10.043  22.063  0.00  0.00    +0.000 C 
ATOM     21  S   UNL     1       1.396   8.197  20.646  0.00  0.00    +0.000 S 
ENDBRANCH   1  18
BRANCH   9  22
ATOM     22  N   UNL     1       3.637  16.172  19.380  0.00  0.00    +0.000 N 
ATOM     23  C   UNL     1       4.564  15.870  18.382  0.00  0.00    +0.000 C 
ATOM     24  O   UNL     1       4.261  15.615  17.221  0.00  0.00    +0.000 OA
ATOM     25  N   UNL     1       5.873  15.890  18.865  0.00  0.00    +0.000 N 
ATOM     26  H   UNL     1       3.889  15.842  20.309  0.00  0.00    +0.000 HD
ATOM     27  H   UNL     1       6.037  15.886  19.865  0.00  0.00    +0.000 HD
BRANCH  25  28
ATOM     28  N   UNL     1       6.949  15.599  17.990  0.00  0.00    +0.000 NA
ATOM     29  C   UNL     1       8.083  16.500  18.190  0.00  0.00    +0.000 C 
ATOM     30  C   UNL     1       7.366  14.201  18.094  0.00  0.00    +0.000 C 
ENDBRANCH  25  28
ENDBRANCH   9  22
TORSDOF 3
ENDMDL
