MODEL 1
REMARK VINA RESULT:      -7.0      0.000      0.000
REMARK  Name = 
REMARK  13 active torsions:
REMARK  status: ('A' for Active; 'I' for Inactive)
REMARK    1  A    between atoms: C_1  and  O_2
REMARK    2  A    between atoms: O_2  and  C_3
REMARK    3  A    between atoms: N_5  and  C_6
REMARK    4  A    between atoms: C_6  and  C_7
REMARK    5  A    between atoms: C_6  and  C_30
REMARK    6  A    between atoms: C_13  and  C_14
REMARK    7  A    between atoms: N_16  and  C_17
REMARK    8  A    between atoms: C_17  and  C_18
REMARK    9  A    between atoms: C_17  and  C_22
REMARK   10  A    between atoms: C_18  and  C_19
REMARK   11  A    between atoms: C_22  and  C_24
REMARK   12  A    between atoms: C_27  and  C_28
REMARK   13  A    between atoms: C_27  and  C_29
REMARK                            x       y       z     vdW  Elec       q    Type
REMARK                         _______ _______ _______ _____ _____    ______ ____
ROOT
ATOM      1  C   UNL     1       0.866  11.567  18.646  0.00  0.00    +0.000 C 
ATOM      2  O   UNL     1       2.022  11.899  18.389  0.00  0.00    +0.000 OA
ATOM      3  N   UNL     1       0.599  10.261  19.068  0.00  0.00    +0.000 N 
ATOM      4  C   UNL     1      -0.707   9.743  19.453  0.00  0.00    +0.000 C 
ATOM      5  C   UNL     1      -0.481   9.151  20.810  0.00  0.00    +0.000 C 
ATOM      6  C   UNL     1       0.994   9.040  21.038  0.00  0.00    +0.000 C 
ATOM      7  C   UNL     1       1.659   9.460  19.725  0.00  0.00    +0.000 C 
ATOM      8  C   UNL     1       0.143   9.894  21.983  0.00  0.00    +0.000 C 
ATOM      9  C   UNL     1      -0.149   9.344  23.355  0.00  0.00    +0.000 C 
ATOM     10  C   UNL     1       0.268  11.384  22.000  0.00  0.00    +0.000 C 
ENDROOT
BRANCH   7  11
ATOM     11  C   UNL     1       2.041   8.154  18.943  0.00  0.00    +0.000 C 
ATOM     12  O   UNL     1       1.994   8.090  17.711  0.00  0.00    +0.000 OA
ATOM     13  N   UNL     1       2.466   7.095  19.704  0.00  0.00    +0.000 N 
ATOM     14  H   UNL     1       2.195   7.110  20.688  0.00  0.00    +0.000 HD
BRANCH  13  15
ATOM     15  C   UNL     1       2.871   5.806  19.124  0.00  0.00    +0.000 C 
BRANCH  15  16
ATOM     16  C   UNL     1       1.894   4.747  19.641  0.00  0.00    +0.000 C 
ATOM     17  O   UNL     1       1.528   4.658  20.811  0.00  0.00    +0.000 OA
BRANCH  16  18
ATOM     18  C   UNL     1       1.323   3.762  18.612  0.00  0.00    +0.000 C 
ATOM     19  N   UNL     1       0.779   2.624  19.138  0.00  0.00    +0.000 N 
ATOM     20  O   UNL     1       1.353   3.997  17.419  0.00  0.00    +0.000 OA
ATOM     21  H   UNL     1       0.688   2.499  20.136  0.00  0.00    +0.000 HD
ATOM     22  H   UNL     1       0.343   1.962  18.504  0.00  0.00    +0.000 HD
ENDBRANCH  16  18
ENDBRANCH  15  16
BRANCH  15  23
ATOM     23  C   UNL     1       4.356   5.468  19.396  0.00  0.00    +0.000 C 
BRANCH  23  24
ATOM     24  C   UNL     1       5.272   5.632  18.207  0.00  0.00    +0.000 C 
ATOM     25  C   UNL     1       6.744   5.897  18.437  0.00  0.00    +0.000 C 
ATOM     26  C   UNL     1       6.303   4.590  17.847  0.00  0.00    +0.000 C 
ENDBRANCH  23  24
ENDBRANCH  15  23
ENDBRANCH  13  15
ENDBRANCH   7  11
BRANCH   1  27
ATOM     27  C   UNL     1      -0.323  12.615  18.715  0.00  0.00    +0.000 C 
BRANCH  27  28
ATOM     28  C   UNL     1       0.049  14.133  18.773  0.00  0.00    +0.000 C 
ATOM     29  C   UNL     1      -1.027  14.956  19.533  0.00  0.00    +0.000 C 
ATOM     30  C   UNL     1      -0.976  14.787  21.056  0.00  0.00    +0.000 C 
ATOM     31  C   UNL     1       0.408  15.082  21.625  0.00  0.00    +0.000 C 
ATOM     32  C   UNL     1       1.494  14.301  20.899  0.00  0.00    +0.000 C 
ATOM     33  C   UNL     1       1.416  14.497  19.390  0.00  0.00    +0.000 C 
ENDBRANCH  27  28
BRANCH  27  36
ATOM     34  C   UNL     1      -2.580  11.957  17.965  0.00  0.00    +0.000 C 
ATOM     35  O   UNL     1      -3.069  11.965  19.089  0.00  0.00    +0.000 OA
ATOM     36  N   UNL     1      -1.311  12.341  17.666  0.00  0.00    +0.000 N 
ATOM     37  H   UNL     1      -1.006  12.093  16.737  0.00  0.00    +0.000 HD
BRANCH  34  39
ATOM     38  C   UNL     1      -2.681  10.315  16.304  0.00  0.00    +0.000 C 
ATOM     39  O   UNL     1      -3.202  11.534  16.843  0.00  0.00    +0.000 OA
ENDBRANCH  34  39
ENDBRANCH  27  36
ENDBRANCH   1  27
TORSDOF 10
ENDMDL
MODEL 2
REMARK VINA RESULT:      -6.9      0.717      1.121
REMARK  Name = 
REMARK  13 active torsions:
REMARK  status: ('A' for Active; 'I' for Inactive)
REMARK    1  A    between atoms: C_1  and  O_2
REMARK    2  A    between atoms: O_2  and  C_3
REMARK    3  A    between atoms: N_5  and  C_6
REMARK    4  A    between atoms: C_6  and  C_7
REMARK    5  A    between atoms: C_6  and  C_30
REMARK    6  A    between atoms: C_13  and  C_14
REMARK    7  A    between atoms: N_16  and  C_17
REMARK    8  A    between atoms: C_17  and  C_18
REMARK    9  A    between atoms: C_17  and  C_22
REMARK   10  A    between atoms: C_18  and  C_19
REMARK   11  A    between atoms: C_22  and  C_24
REMARK   12  A    between atoms: C_27  and  C_28
REMARK   13  A    between atoms: C_27  and  C_29
REMARK                            x       y       z     vdW  Elec       q    Type
REMARK                         _______ _______ _______ _____ _____    ______ ____
ROOT
ATOM      1  C   UNL     1       0.774  11.763  18.527  0.00  0.00    +0.000 C 
ATOM      2  O   UNL     1       1.899  12.201  18.293  0.00  0.00    +0.000 OA
ATOM      3  N   UNL     1       0.600  10.399  18.781  0.00  0.00    +0.000 N 
ATOM      4  C   UNL     1      -0.659   9.752  19.121  0.00  0.00    +0.000 C 
ATOM      5  C   UNL     1      -0.359   9.007  20.386  0.00  0.00    +0.000 C 
ATOM      6  C   UNL     1       1.125   8.966  20.569  0.00  0.00    +0.000 C 
ATOM      7  C   UNL     1       1.727   9.593  19.310  0.00  0.00    +0.000 C 
ATOM      8  C   UNL     1       0.249   9.634  21.633  0.00  0.00    +0.000 C 
ATOM      9  C   UNL     1       0.030   8.895  22.928  0.00  0.00    +0.000 C 
ATOM     10  C   UNL     1       0.281  11.115  21.840  0.00  0.00    +0.000 C 
ENDROOT
BRANCH   7  11
ATOM     11  C   UNL     1       2.169   8.425  18.358  0.00  0.00    +0.000 C 
ATOM     12  O   UNL     1       2.378   8.604  17.155  0.00  0.00    +0.000 OA
ATOM     13  N   UNL     1       2.345   7.200  18.947  0.00  0.00    +0.000 N 
ATOM     14  H   UNL     1       1.875   7.057  19.841  0.00  0.00    +0.000 HD
BRANCH  13  15
ATOM     15  C   UNL     1       2.769   6.007  18.197  0.00  0.00    +0.000 C 
BRANCH  15  16
ATOM     16  C   UNL     1       1.817   4.869  18.576  0.00  0.00    +0.000 C 
ATOM     17  O   UNL     1       1.247   4.146  17.761  0.00  0.00    +0.000 OA
BRANCH  16  18
ATOM     18  C   UNL     1       1.595   4.613  20.072  0.00  0.00    +0.000 C 
ATOM     19  N   UNL     1       0.662   3.660  20.366  0.00  0.00    +0.000 N 
ATOM     20  O   UNL     1       2.220   5.219  20.922  0.00  0.00    +0.000 OA
ATOM     21  H   UNL     1       0.225   3.112  19.639  0.00  0.00    +0.000 HD
ATOM     22  H   UNL     1       0.512   3.417  21.340  0.00  0.00    +0.000 HD
ENDBRANCH  16  18
ENDBRANCH  15  16
BRANCH  15  23
ATOM     23  C   UNL     1       4.263   5.665  18.409  0.00  0.00    +0.000 C 
BRANCH  23  24
ATOM     24  C   UNL     1       5.218   6.409  17.507  0.00  0.00    +0.000 C 
ATOM     25  C   UNL     1       6.662   5.965  17.430  0.00  0.00    +0.000 C 
ATOM     26  C   UNL     1       5.762   5.790  16.242  0.00  0.00    +0.000 C 
ENDBRANCH  23  24
ENDBRANCH  15  23
ENDBRANCH  13  15
ENDBRANCH   7  11
BRANCH   1  27
ATOM     27  C   UNL     1      -0.477  12.714  18.753  0.00  0.00    +0.000 C 
BRANCH  27  28
ATOM     28  C   UNL     1      -0.208  14.248  18.892  0.00  0.00    +0.000 C 
ATOM     29  C   UNL     1      -1.274  14.935  19.789  0.00  0.00    +0.000 C 
ATOM     30  C   UNL     1      -1.088  14.669  21.288  0.00  0.00    +0.000 C 
ATOM     31  C   UNL     1       0.313  15.029  21.771  0.00  0.00    +0.000 C 
ATOM     32  C   UNL     1       1.388  14.381  20.910  0.00  0.00    +0.000 C 
ATOM     33  C   UNL     1       1.176  14.671  19.429  0.00  0.00    +0.000 C 
ENDBRANCH  27  28
BRANCH  27  36
ATOM     34  C   UNL     1      -2.770  12.049  18.126  0.00  0.00    +0.000 C 
ATOM     35  O   UNL     1      -3.197  12.055  19.275  0.00  0.00    +0.000 OA
ATOM     36  N   UNL     1      -1.520  12.436  17.759  0.00  0.00    +0.000 N 
ATOM     37  H   UNL     1      -1.264  12.189  16.815  0.00  0.00    +0.000 HD
BRANCH  34  39
ATOM     38  C   UNL     1      -2.639  10.985  16.049  0.00  0.00    +0.000 C 
ATOM     39  O   UNL     1      -3.450  11.623  17.039  0.00  0.00    +0.000 OA
ENDBRANCH  34  39
ENDBRANCH  27  36
ENDBRANCH   1  27
TORSDOF 10
ENDMDL
MODEL 3
REMARK VINA RESULT:      -6.8      1.759      2.644
REMARK  Name = 
REMARK  13 active torsions:
REMARK  status: ('A' for Active; 'I' for Inactive)
REMARK    1  A    between atoms: C_1  and  O_2
REMARK    2  A    between atoms: O_2  and  C_3
REMARK    3  A    between atoms: N_5  and  C_6
REMARK    4  A    between atoms: C_6  and  C_7
REMARK    5  A    between atoms: C_6  and  C_30
REMARK    6  A    between atoms: C_13  and  C_14
REMARK    7  A    between atoms: N_16  and  C_17
REMARK    8  A    between atoms: C_17  and  C_18
REMARK    9  A    between atoms: C_17  and  C_22
REMARK   10  A    between atoms: C_18  and  C_19
REMARK   11  A    between atoms: C_22  and  C_24
REMARK   12  A    between atoms: C_27  and  C_28
REMARK   13  A    between atoms: C_27  and  C_29
REMARK                            x       y       z     vdW  Elec       q    Type
REMARK                         _______ _______ _______ _____ _____    ______ ____
ROOT
ATOM      1  C   UNL     1       1.152  10.241  18.726  0.00  0.00    +0.000 C 
ATOM      2  O   UNL     1       2.333  10.397  18.420  0.00  0.00    +0.000 OA
ATOM      3  N   UNL     1       0.778   9.141  19.505  0.00  0.00    +0.000 N 
ATOM      4  C   UNL     1      -0.568   8.857  19.982  0.00  0.00    +0.000 C 
ATOM      5  C   UNL     1      -0.403   8.679  21.460  0.00  0.00    +0.000 C 
ATOM      6  C   UNL     1       1.056   8.534  21.759  0.00  0.00    +0.000 C 
ATOM      7  C   UNL     1       1.766   8.497  20.404  0.00  0.00    +0.000 C 
ATOM      8  C   UNL     1       0.266   9.690  22.382  0.00  0.00    +0.000 C 
ATOM      9  C   UNL     1      -0.081   9.594  23.845  0.00  0.00    +0.000 C 
ATOM     10  C   UNL     1       0.509  11.105  21.963  0.00  0.00    +0.000 C 
ENDROOT
BRANCH   7  11
ATOM     11  C   UNL     1       2.051   6.994  20.054  0.00  0.00    +0.000 C 
ATOM     12  O   UNL     1       1.633   6.067  20.755  0.00  0.00    +0.000 OA
ATOM     13  N   UNL     1       2.763   6.765  18.905  0.00  0.00    +0.000 N 
ATOM     14  H   UNL     1       3.321   7.545  18.557  0.00  0.00    +0.000 HD
BRANCH  13  15
ATOM     15  C   UNL     1       3.103   5.414  18.431  0.00  0.00    +0.000 C 
BRANCH  15  16
ATOM     16  C   UNL     1       4.378   5.534  17.592  0.00  0.00    +0.000 C 
ATOM     17  O   UNL     1       4.615   6.466  16.826  0.00  0.00    +0.000 OA
BRANCH  16  18
ATOM     18  C   UNL     1       5.427   4.426  17.754  0.00  0.00    +0.000 C 
ATOM     19  N   UNL     1       5.700   3.715  16.619  0.00  0.00    +0.000 N 
ATOM     20  O   UNL     1       5.973   4.215  18.821  0.00  0.00    +0.000 OA
ATOM     21  H   UNL     1       5.298   3.973  15.730  0.00  0.00    +0.000 HD
ATOM     22  H   UNL     1       6.423   3.003  16.660  0.00  0.00    +0.000 HD
ENDBRANCH  16  18
ENDBRANCH  15  16
BRANCH  15  23
ATOM     23  C   UNL     1       1.932   4.727  17.690  0.00  0.00    +0.000 C 
BRANCH  23  24
ATOM     24  C   UNL     1       1.562   3.361  18.215  0.00  0.00    +0.000 C 
ATOM     25  C   UNL     1       2.384   2.160  17.801  0.00  0.00    +0.000 C 
ATOM     26  C   UNL     1       2.422   2.637  19.223  0.00  0.00    +0.000 C 
ENDBRANCH  23  24
ENDBRANCH  15  23
ENDBRANCH  13  15
ENDBRANCH   7  11
BRANCH   1  27
ATOM     27  C   UNL     1       0.048  11.346  18.443  0.00  0.00    +0.000 C 
BRANCH  27  28
ATOM     28  C   UNL     1       0.538  12.790  18.096  0.00  0.00    +0.000 C 
ATOM     29  C   UNL     1      -0.489  13.864  18.546  0.00  0.00    +0.000 C 
ATOM     30  C   UNL     1      -0.492  14.125  20.057  0.00  0.00    +0.000 C 
ATOM     31  C   UNL     1       0.896  14.471  20.588  0.00  0.00    +0.000 C 
ATOM     32  C   UNL     1       1.934  13.446  20.159  0.00  0.00    +0.000 C 
ATOM     33  C   UNL     1       1.913  13.217  18.653  0.00  0.00    +0.000 C 
ENDBRANCH  27  28
BRANCH  27  36
ATOM     34  C   UNL     1      -2.262  10.848  17.731  0.00  0.00    +0.000 C 
ATOM     35  O   UNL     1      -2.786  11.381  18.702  0.00  0.00    +0.000 OA
ATOM     36  N   UNL     1      -0.929  10.857  17.465  0.00  0.00    +0.000 N 
ATOM     37  H   UNL     1      -0.641  10.215  16.741  0.00  0.00    +0.000 HD
BRANCH  34  39
ATOM     38  C   UNL     1      -3.342  10.900  15.659  0.00  0.00    +0.000 C 
ATOM     39  O   UNL     1      -2.909  10.132  16.785  0.00  0.00    +0.000 OA
ENDBRANCH  34  39
ENDBRANCH  27  36
ENDBRANCH   1  27
TORSDOF 10
ENDMDL
MODEL 4
REMARK VINA RESULT:      -6.8      1.363      2.374
REMARK  Name = 
REMARK  13 active torsions:
REMARK  status: ('A' for Active; 'I' for Inactive)
REMARK    1  A    between atoms: C_1  and  O_2
REMARK    2  A    between atoms: O_2  and  C_3
REMARK    3  A    between atoms: N_5  and  C_6
REMARK    4  A    between atoms: C_6  and  C_7
REMARK    5  A    between atoms: C_6  and  C_30
REMARK    6  A    between atoms: C_13  and  C_14
REMARK    7  A    between atoms: N_16  and  C_17
REMARK    8  A    between atoms: C_17  and  C_18
REMARK    9  A    between atoms: C_17  and  C_22
REMARK   10  A    between atoms: C_18  and  C_19
REMARK   11  A    between atoms: C_22  and  C_24
REMARK   12  A    between atoms: C_27  and  C_28
REMARK   13  A    between atoms: C_27  and  C_29
REMARK                            x       y       z     vdW  Elec       q    Type
REMARK                         _______ _______ _______ _____ _____    ______ ____
ROOT
ATOM      1  C   UNL     1       1.001  11.366  18.563  0.00  0.00    +0.000 C 
ATOM      2  O   UNL     1       2.160  11.658  18.274  0.00  0.00    +0.000 OA
ATOM      3  N   UNL     1       0.705  10.078  19.021  0.00  0.00    +0.000 N 
ATOM      4  C   UNL     1      -0.607   9.608  19.445  0.00  0.00    +0.000 C 
ATOM      5  C   UNL     1      -0.370   9.041  20.810  0.00  0.00    +0.000 C 
ATOM      6  C   UNL     1       1.106   8.892  21.010  0.00  0.00    +0.000 C 
ATOM      7  C   UNL     1       1.755   9.262  19.675  0.00  0.00    +0.000 C 
ATOM      8  C   UNL     1       0.301   9.792  21.953  0.00  0.00    +0.000 C 
ATOM      9  C   UNL     1       0.023   9.282  23.343  0.00  0.00    +0.000 C 
ATOM     10  C   UNL     1       0.470  11.278  21.932  0.00  0.00    +0.000 C 
ENDROOT
BRANCH   7  11
ATOM     11  C   UNL     1       2.082   7.928  18.915  0.00  0.00    +0.000 C 
ATOM     12  O   UNL     1       1.902   7.804  17.701  0.00  0.00    +0.000 OA
ATOM     13  N   UNL     1       2.616   6.916  19.673  0.00  0.00    +0.000 N 
ATOM     14  H   UNL     1       2.454   6.973  20.679  0.00  0.00    +0.000 HD
BRANCH  13  15
ATOM     15  C   UNL     1       2.988   5.609  19.111  0.00  0.00    +0.000 C 
BRANCH  15  16
ATOM     16  C   UNL     1       4.430   5.723  18.610  0.00  0.00    +0.000 C 
ATOM     17  O   UNL     1       4.810   6.553  17.787  0.00  0.00    +0.000 OA
BRANCH  16  18
ATOM     18  C   UNL     1       5.456   4.749  19.205  0.00  0.00    +0.000 C 
ATOM     19  N   UNL     1       6.680   5.291  19.477  0.00  0.00    +0.000 N 
ATOM     20  O   UNL     1       5.178   3.584  19.422  0.00  0.00    +0.000 OA
ATOM     21  H   UNL     1       6.851   6.280  19.371  0.00  0.00    +0.000 HD
ATOM     22  H   UNL     1       7.379   4.702  19.918  0.00  0.00    +0.000 HD
ENDBRANCH  16  18
ENDBRANCH  15  16
BRANCH  15  23
ATOM     23  C   UNL     1       1.992   5.114  18.036  0.00  0.00    +0.000 C 
BRANCH  23  24
ATOM     24  C   UNL     1       1.361   3.773  18.324  0.00  0.00    +0.000 C 
ATOM     25  C   UNL     1       2.129   2.509  18.003  0.00  0.00    +0.000 C 
ATOM     26  C   UNL     1       1.863   2.880  19.433  0.00  0.00    +0.000 C 
ENDBRANCH  23  24
ENDBRANCH  15  23
ENDBRANCH  13  15
ENDBRANCH   7  11
BRANCH   1  27
ATOM     27  C   UNL     1      -0.156  12.450  18.632  0.00  0.00    +0.000 C 
BRANCH  27  28
ATOM     28  C   UNL     1       0.260  13.958  18.636  0.00  0.00    +0.000 C 
ATOM     29  C   UNL     1      -0.775  14.834  19.392  0.00  0.00    +0.000 C 
ATOM     30  C   UNL     1      -0.695  14.709  20.919  0.00  0.00    +0.000 C 
ATOM     31  C   UNL     1       0.708  14.980  21.450  0.00  0.00    +0.000 C 
ATOM     32  C   UNL     1       1.755  14.147  20.726  0.00  0.00    +0.000 C 
ATOM     33  C   UNL     1       1.650  14.300  19.214  0.00  0.00    +0.000 C 
ENDBRANCH  27  28
BRANCH  27  36
ATOM     34  C   UNL     1      -2.465  11.900  17.958  0.00  0.00    +0.000 C 
ATOM     35  O   UNL     1      -2.932  12.016  19.086  0.00  0.00    +0.000 OA
ATOM     36  N   UNL     1      -1.179  12.175  17.617  0.00  0.00    +0.000 N 
ATOM     37  H   UNL     1      -0.907  11.846  16.703  0.00  0.00    +0.000 HD
BRANCH  34  39
ATOM     38  C   UNL     1      -2.495  10.359  16.201  0.00  0.00    +0.000 C 
ATOM     39  O   UNL     1      -3.134  11.447  16.875  0.00  0.00    +0.000 OA
ENDBRANCH  34  39
ENDBRANCH  27  36
ENDBRANCH   1  27
TORSDOF 10
ENDMDL
MODEL 5
REMARK VINA RESULT:      -6.7      2.316      4.423
REMARK  Name = 
REMARK  13 active torsions:
REMARK  status: ('A' for Active; 'I' for Inactive)
REMARK    1  A    between atoms: C_1  and  O_2
REMARK    2  A    between atoms: O_2  and  C_3
REMARK    3  A    between atoms: N_5  and  C_6
REMARK    4  A    between atoms: C_6  and  C_7
REMARK    5  A    between atoms: C_6  and  C_30
REMARK    6  A    between atoms: C_13  and  C_14
REMARK    7  A    between atoms: N_16  and  C_17
REMARK    8  A    between atoms: C_17  and  C_18
REMARK    9  A    between atoms: C_17  and  C_22
REMARK   10  A    between atoms: C_18  and  C_19
REMARK   11  A    between atoms: C_22  and  C_24
REMARK   12  A    between atoms: C_27  and  C_28
REMARK   13  A    between atoms: C_27  and  C_29
REMARK                            x       y       z     vdW  Elec       q    Type
REMARK                         _______ _______ _______ _____ _____    ______ ____
ROOT
ATOM      1  C   UNL     1       0.923  12.380  20.809  0.00  0.00    +0.000 C 
ATOM      2  O   UNL     1       0.528  12.333  21.973  0.00  0.00    +0.000 OA
ATOM      3  N   UNL     1       1.077  11.196  20.081  0.00  0.00    +0.000 N 
ATOM      4  C   UNL     1       1.487  11.104  18.686  0.00  0.00    +0.000 C 
ATOM      5  C   UNL     1       0.418  10.274  18.045  0.00  0.00    +0.000 C 
ATOM      6  C   UNL     1      -0.395   9.633  19.125  0.00  0.00    +0.000 C 
ATOM      7  C   UNL     1       0.292   9.993  20.444  0.00  0.00    +0.000 C 
ATOM      8  C   UNL     1      -1.073  10.574  18.124  0.00  0.00    +0.000 C 
ATOM      9  C   UNL     1      -1.937   9.957  17.055  0.00  0.00    +0.000 C 
ATOM     10  C   UNL     1      -1.590  11.911  18.549  0.00  0.00    +0.000 C 
ENDROOT
BRANCH   7  11
ATOM     11  C   UNL     1       1.175   8.768  20.874  0.00  0.00    +0.000 C 
ATOM     12  O   UNL     1       1.545   8.604  22.040  0.00  0.00    +0.000 OA
ATOM     13  N   UNL     1       1.482   7.869  19.885  0.00  0.00    +0.000 N 
ATOM     14  H   UNL     1       1.413   8.211  18.927  0.00  0.00    +0.000 HD
BRANCH  13  15
ATOM     15  C   UNL     1       2.290   6.662  20.125  0.00  0.00    +0.000 C 
BRANCH  15  16
ATOM     16  C   UNL     1       2.859   6.220  18.775  0.00  0.00    +0.000 C 
ATOM     17  O   UNL     1       2.191   6.101  17.750  0.00  0.00    +0.000 OA
BRANCH  16  18
ATOM     18  C   UNL     1       4.367   5.939  18.710  0.00  0.00    +0.000 C 
ATOM     19  N   UNL     1       4.964   6.248  17.521  0.00  0.00    +0.000 N 
ATOM     20  O   UNL     1       4.972   5.483  19.663  0.00  0.00    +0.000 OA
ATOM     21  H   UNL     1       4.454   6.709  16.782  0.00  0.00    +0.000 HD
ATOM     22  H   UNL     1       5.969   6.128  17.442  0.00  0.00    +0.000 HD
ENDBRANCH  16  18
ENDBRANCH  15  16
BRANCH  15  23
ATOM     23  C   UNL     1       1.504   5.553  20.864  0.00  0.00    +0.000 C 
BRANCH  23  24
ATOM     24  C   UNL     1       1.935   4.144  20.535  0.00  0.00    +0.000 C 
ATOM     25  C   UNL     1       1.611   3.026  21.501  0.00  0.00    +0.000 C 
ATOM     26  C   UNL     1       0.939   3.074  20.160  0.00  0.00    +0.000 C 
ENDBRANCH  23  24
ENDBRANCH  15  23
ENDBRANCH  13  15
ENDBRANCH   7  11
BRANCH   1  27
ATOM     27  C   UNL     1       1.079  13.749  20.021  0.00  0.00    +0.000 C 
BRANCH  27  28
ATOM     28  C   UNL     1      -0.052  14.816  20.188  0.00  0.00    +0.000 C 
ATOM     29  C   UNL     1       0.278  15.826  21.321  0.00  0.00    +0.000 C 
ATOM     30  C   UNL     1       1.336  16.867  20.935  0.00  0.00    +0.000 C 
ATOM     31  C   UNL     1       0.973  17.615  19.656  0.00  0.00    +0.000 C 
ATOM     32  C   UNL     1       0.632  16.659  18.523  0.00  0.00    +0.000 C 
ATOM     33  C   UNL     1      -0.425  15.644  18.939  0.00  0.00    +0.000 C 
ENDBRANCH  27  28
BRANCH  27  36
ATOM     34  C   UNL     1       3.345  14.375  19.271  0.00  0.00    +0.000 C 
ATOM     35  O   UNL     1       3.140  14.111  18.091  0.00  0.00    +0.000 OA
ATOM     36  N   UNL     1       2.406  14.328  20.252  0.00  0.00    +0.000 N 
ATOM     37  H   UNL     1       2.776  14.383  21.190  0.00  0.00    +0.000 HD
BRANCH  34  39
ATOM     38  C   UNL     1       5.236  15.735  19.073  0.00  0.00    +0.000 C 
ATOM     39  O   UNL     1       4.539  14.720  19.801  0.00  0.00    +0.000 OA
ENDBRANCH  34  39
ENDBRANCH  27  36
ENDBRANCH   1  27
TORSDOF 10
ENDMDL
MODEL 6
REMARK VINA RESULT:      -6.5      1.104      1.294
REMARK  Name = 
REMARK  13 active torsions:
REMARK  status: ('A' for Active; 'I' for Inactive)
REMARK    1  A    between atoms: C_1  and  O_2
REMARK    2  A    between atoms: O_2  and  C_3
REMARK    3  A    between atoms: N_5  and  C_6
REMARK    4  A    between atoms: C_6  and  C_7
REMARK    5  A    between atoms: C_6  and  C_30
REMARK    6  A    between atoms: C_13  and  C_14
REMARK    7  A    between atoms: N_16  and  C_17
REMARK    8  A    between atoms: C_17  and  C_18
REMARK    9  A    between atoms: C_17  and  C_22
REMARK   10  A    between atoms: C_18  and  C_19
REMARK   11  A    between atoms: C_22  and  C_24
REMARK   12  A    between atoms: C_27  and  C_28
REMARK   13  A    between atoms: C_27  and  C_29
REMARK                            x       y       z     vdW  Elec       q    Type
REMARK                         _______ _______ _______ _____ _____    ______ ____
ROOT
ATOM      1  C   UNL     1       1.010  11.443  18.591  0.00  0.00    +0.000 C 
ATOM      2  O   UNL     1       2.171  11.777  18.359  0.00  0.00    +0.000 OA
ATOM      3  N   UNL     1       0.730  10.126  18.966  0.00  0.00    +0.000 N 
ATOM      4  C   UNL     1      -0.583   9.603  19.317  0.00  0.00    +0.000 C 
ATOM      5  C   UNL     1      -0.378   8.966  20.656  0.00  0.00    +0.000 C 
ATOM      6  C   UNL     1       1.093   8.839  20.900  0.00  0.00    +0.000 C 
ATOM      7  C   UNL     1       1.778   9.298  19.610  0.00  0.00    +0.000 C 
ATOM      8  C   UNL     1       0.234   9.666  21.862  0.00  0.00    +0.000 C 
ATOM      9  C   UNL     1      -0.078   9.074  23.211  0.00  0.00    +0.000 C 
ATOM     10  C   UNL     1       0.367  11.155  21.929  0.00  0.00    +0.000 C 
ENDROOT
BRANCH   7  11
ATOM     11  C   UNL     1       2.163   8.016  18.791  0.00  0.00    +0.000 C 
ATOM     12  O   UNL     1       1.959   7.928  17.576  0.00  0.00    +0.000 OA
ATOM     13  N   UNL     1       2.774   7.010  19.494  0.00  0.00    +0.000 N 
ATOM     14  H   UNL     1       2.635   7.017  20.505  0.00  0.00    +0.000 HD
BRANCH  13  15
ATOM     15  C   UNL     1       3.208   5.749  18.872  0.00  0.00    +0.000 C 
BRANCH  15  16
ATOM     16  C   UNL     1       3.269   4.693  19.978  0.00  0.00    +0.000 C 
ATOM     17  O   UNL     1       4.255   3.997  20.214  0.00  0.00    +0.000 OA
BRANCH  16  18
ATOM     18  C   UNL     1       2.022   4.527  20.856  0.00  0.00    +0.000 C 
ATOM     19  N   UNL     1       2.143   3.621  21.871  0.00  0.00    +0.000 N 
ATOM     20  O   UNL     1       1.010   5.172  20.654  0.00  0.00    +0.000 OA
ATOM     21  H   UNL     1       3.024   3.169  22.068  0.00  0.00    +0.000 HD
ATOM     22  H   UNL     1       1.363   3.509  22.511  0.00  0.00    +0.000 HD
ENDBRANCH  16  18
ENDBRANCH  15  16
BRANCH  15  23
ATOM     23  C   UNL     1       4.527   5.897  18.078  0.00  0.00    +0.000 C 
BRANCH  23  24
ATOM     24  C   UNL     1       4.523   5.249  16.714  0.00  0.00    +0.000 C 
ATOM     25  C   UNL     1       5.286   5.901  15.582  0.00  0.00    +0.000 C 
ATOM     26  C   UNL     1       5.755   4.590  16.142  0.00  0.00    +0.000 C 
ENDBRANCH  23  24
ENDBRANCH  15  23
ENDBRANCH  13  15
ENDBRANCH   7  11
BRANCH   1  27
ATOM     27  C   UNL     1      -0.174  12.496  18.678  0.00  0.00    +0.000 C 
BRANCH  27  28
ATOM     28  C   UNL     1       0.205  14.008  18.800  0.00  0.00    +0.000 C 
ATOM     29  C   UNL     1      -0.888  14.811  19.558  0.00  0.00    +0.000 C 
ATOM     30  C   UNL     1      -0.881  14.588  21.075  0.00  0.00    +0.000 C 
ATOM     31  C   UNL     1       0.488  14.853  21.694  0.00  0.00    +0.000 C 
ATOM     32  C   UNL     1       1.589  14.091  20.972  0.00  0.00    +0.000 C 
ATOM     33  C   UNL     1       1.556  14.340  19.469  0.00  0.00    +0.000 C 
ENDBRANCH  27  28
BRANCH  27  36
ATOM     34  C   UNL     1      -2.433  11.924  17.865  0.00  0.00    +0.000 C 
ATOM     35  O   UNL     1      -2.949  11.935  18.977  0.00  0.00    +0.000 OA
ATOM     36  N   UNL     1      -1.145  12.268  17.602  0.00  0.00    +0.000 N 
ATOM     37  H   UNL     1      -0.825  12.021  16.678  0.00  0.00    +0.000 HD
BRANCH  34  39
ATOM     38  C   UNL     1      -2.913  10.140  16.432  0.00  0.00    +0.000 C 
ATOM     39  O   UNL     1      -3.041  11.535  16.723  0.00  0.00    +0.000 OA
ENDBRANCH  34  39
ENDBRANCH  27  36
ENDBRANCH   1  27
TORSDOF 10
ENDMDL
MODEL 7
REMARK VINA RESULT:      -6.5      2.394      4.319
REMARK  Name = 
REMARK  13 active torsions:
REMARK  status: ('A' for Active; 'I' for Inactive)
REMARK    1  A    between atoms: C_1  and  O_2
REMARK    2  A    between atoms: O_2  and  C_3
REMARK    3  A    between atoms: N_5  and  C_6
REMARK    4  A    between atoms: C_6  and  C_7
REMARK    5  A    between atoms: C_6  and  C_30
REMARK    6  A    between atoms: C_13  and  C_14
REMARK    7  A    between atoms: N_16  and  C_17
REMARK    8  A    between atoms: C_17  and  C_18
REMARK    9  A    between atoms: C_17  and  C_22
REMARK   10  A    between atoms: C_18  and  C_19
REMARK   11  A    between atoms: C_22  and  C_24
REMARK   12  A    between atoms: C_27  and  C_28
REMARK   13  A    between atoms: C_27  and  C_29
REMARK                            x       y       z     vdW  Elec       q    Type
REMARK                         _______ _______ _______ _____ _____    ______ ____
ROOT
ATOM      1  C   UNL     1       0.337  12.071  21.529  0.00  0.00    +0.000 C 
ATOM      2  O   UNL     1      -0.099  11.729  22.626  0.00  0.00    +0.000 OA
ATOM      3  N   UNL     1       0.712  11.096  20.598  0.00  0.00    +0.000 N 
ATOM      4  C   UNL     1       1.196  11.352  19.248  0.00  0.00    +0.000 C 
ATOM      5  C   UNL     1       0.304  10.524  18.376  0.00  0.00    +0.000 C 
ATOM      6  C   UNL     1      -0.447   9.563  19.244  0.00  0.00    +0.000 C 
ATOM      7  C   UNL     1       0.112   9.742  20.658  0.00  0.00    +0.000 C 
ATOM      8  C   UNL     1      -1.218  10.579  18.395  0.00  0.00    +0.000 C 
ATOM      9  C   UNL     1      -1.922  10.075  17.163  0.00  0.00    +0.000 C 
ATOM     10  C   UNL     1      -1.960  11.711  19.032  0.00  0.00    +0.000 C 
ENDROOT
BRANCH   7  11
ATOM     11  C   UNL     1       1.157   8.598  20.907  0.00  0.00    +0.000 C 
ATOM     12  O   UNL     1       1.742   8.469  21.987  0.00  0.00    +0.000 OA
ATOM     13  N   UNL     1       1.358   7.726  19.868  0.00  0.00    +0.000 N 
ATOM     14  H   UNL     1       1.090   8.059  18.942  0.00  0.00    +0.000 HD
BRANCH  13  15
ATOM     15  C   UNL     1       2.295   6.594  19.946  0.00  0.00    +0.000 C 
BRANCH  15  16
ATOM     16  C   UNL     1       3.180   6.649  18.698  0.00  0.00    +0.000 C 
ATOM     17  O   UNL     1       3.205   7.594  17.912  0.00  0.00    +0.000 OA
BRANCH  16  18
ATOM     18  C   UNL     1       4.107   5.453  18.446  0.00  0.00    +0.000 C 
ATOM     19  N   UNL     1       5.181   5.364  19.285  0.00  0.00    +0.000 N 
ATOM     20  O   UNL     1       3.882   4.647  17.562  0.00  0.00    +0.000 OA
ATOM     21  H   UNL     1       5.291   5.996  20.065  0.00  0.00    +0.000 HD
ATOM     22  H   UNL     1       5.799   4.564  19.193  0.00  0.00    +0.000 HD
ENDBRANCH  16  18
ENDBRANCH  15  16
BRANCH  15  23
ATOM     23  C   UNL     1       1.578   5.237  20.141  0.00  0.00    +0.000 C 
BRANCH  23  24
ATOM     24  C   UNL     1       2.185   4.345  21.197  0.00  0.00    +0.000 C 
ATOM     25  C   UNL     1       1.496   3.047  21.557  0.00  0.00    +0.000 C 
ATOM     26  C   UNL     1       2.819   3.019  20.850  0.00  0.00    +0.000 C 
ENDBRANCH  23  24
ENDBRANCH  15  23
ENDBRANCH  13  15
ENDBRANCH   7  11
BRANCH   1  27
ATOM     27  C   UNL     1       0.310  13.579  21.037  0.00  0.00    +0.000 C 
BRANCH  27  28
ATOM     28  C   UNL     1      -0.896  14.469  21.486  0.00  0.00    +0.000 C 
ATOM     29  C   UNL     1      -0.453  15.563  22.496  0.00  0.00    +0.000 C 
ATOM     30  C   UNL     1       0.295  16.735  21.850  0.00  0.00    +0.000 C 
ATOM     31  C   UNL     1      -0.492  17.366  20.706  0.00  0.00    +0.000 C 
ATOM     32  C   UNL     1      -0.953  16.323  19.699  0.00  0.00    +0.000 C 
ATOM     33  C   UNL     1      -1.697  15.177  20.373  0.00  0.00    +0.000 C 
ENDBRANCH  27  28
BRANCH  27  36
ATOM     34  C   UNL     1       2.414  14.641  20.306  0.00  0.00    +0.000 C 
ATOM     35  O   UNL     1       2.111  14.667  19.119  0.00  0.00    +0.000 OA
ATOM     36  N   UNL     1       1.594  14.233  21.310  0.00  0.00    +0.000 N 
ATOM     37  H   UNL     1       2.055  14.089  22.196  0.00  0.00    +0.000 HD
BRANCH  34  39
ATOM     38  C   UNL     1       3.656  15.062  22.242  0.00  0.00    +0.000 C 
ATOM     39  O   UNL     1       3.621  14.977  20.814  0.00  0.00    +0.000 OA
ENDBRANCH  34  39
ENDBRANCH  27  36
ENDBRANCH   1  27
TORSDOF 10
ENDMDL
MODEL 8
REMARK VINA RESULT:      -6.5      1.405      2.404
REMARK  Name = 
REMARK  13 active torsions:
REMARK  status: ('A' for Active; 'I' for Inactive)
REMARK    1  A    between atoms: C_1  and  O_2
REMARK    2  A    between atoms: O_2  and  C_3
REMARK    3  A    between atoms: N_5  and  C_6
REMARK    4  A    between atoms: C_6  and  C_7
REMARK    5  A    between atoms: C_6  and  C_30
REMARK    6  A    between atoms: C_13  and  C_14
REMARK    7  A    between atoms: N_16  and  C_17
REMARK    8  A    between atoms: C_17  and  C_18
REMARK    9  A    between atoms: C_17  and  C_22
REMARK   10  A    between atoms: C_18  and  C_19
REMARK   11  A    between atoms: C_22  and  C_24
REMARK   12  A    between atoms: C_27  and  C_28
REMARK   13  A    between atoms: C_27  and  C_29
REMARK                            x       y       z     vdW  Elec       q    Type
REMARK                         _______ _______ _______ _____ _____    ______ ____
ROOT
ATOM      1  C   UNL     1       0.997  11.010  18.614  0.00  0.00    +0.000 C 
ATOM      2  O   UNL     1       2.148  11.291  18.282  0.00  0.00    +0.000 OA
ATOM      3  N   UNL     1       0.727   9.766  19.193  0.00  0.00    +0.000 N 
ATOM      4  C   UNL     1      -0.571   9.319  19.678  0.00  0.00    +0.000 C 
ATOM      5  C   UNL     1      -0.306   8.884  21.087  0.00  0.00    +0.000 C 
ATOM      6  C   UNL     1       1.174   8.775  21.277  0.00  0.00    +0.000 C 
ATOM      7  C   UNL     1       1.799   9.030  19.904  0.00  0.00    +0.000 C 
ATOM      8  C   UNL     1       0.368   9.748  22.145  0.00  0.00    +0.000 C 
ATOM      9  C   UNL     1       0.116   9.365  23.580  0.00  0.00    +0.000 C 
ATOM     10  C   UNL     1       0.513  11.228  21.984  0.00  0.00    +0.000 C 
ENDROOT
BRANCH   7  11
ATOM     11  C   UNL     1       2.137   7.635  19.267  0.00  0.00    +0.000 C 
ATOM     12  O   UNL     1       1.937   7.395  18.073  0.00  0.00    +0.000 OA
ATOM     13  N   UNL     1       2.703   6.709  20.105  0.00  0.00    +0.000 N 
ATOM     14  H   UNL     1       2.559   6.857  21.104  0.00  0.00    +0.000 HD
BRANCH  13  15
ATOM     15  C   UNL     1       3.089   5.360  19.661  0.00  0.00    +0.000 C 
BRANCH  15  16
ATOM     16  C   UNL     1       4.475   5.472  19.020  0.00  0.00    +0.000 C 
ATOM     17  O   UNL     1       5.520   5.597  19.655  0.00  0.00    +0.000 OA
BRANCH  16  18
ATOM     18  C   UNL     1       4.545   5.392  17.489  0.00  0.00    +0.000 C 
ATOM     19  N   UNL     1       4.508   6.595  16.843  0.00  0.00    +0.000 N 
ATOM     20  O   UNL     1       4.637   4.326  16.910  0.00  0.00    +0.000 OA
ATOM     21  H   UNL     1       4.522   7.466  17.354  0.00  0.00    +0.000 HD
ATOM     22  H   UNL     1       4.601   6.601  15.832  0.00  0.00    +0.000 HD
ENDBRANCH  16  18
ENDBRANCH  15  16
BRANCH  15  23
ATOM     23  C   UNL     1       2.029   4.706  18.743  0.00  0.00    +0.000 C 
BRANCH  23  24
ATOM     24  C   UNL     1       1.880   3.213  18.911  0.00  0.00    +0.000 C 
ATOM     25  C   UNL     1       1.165   2.672  20.130  0.00  0.00    +0.000 C 
ATOM     26  C   UNL     1       0.542   2.527  18.773  0.00  0.00    +0.000 C 
ENDBRANCH  23  24
ENDBRANCH  15  23
ENDBRANCH  13  15
ENDBRANCH   7  11
BRANCH   1  27
ATOM     27  C   UNL     1      -0.176  12.079  18.598  0.00  0.00    +0.000 C 
BRANCH  27  28
ATOM     28  C   UNL     1       0.212  13.581  18.396  0.00  0.00    +0.000 C 
ATOM     29  C   UNL     1      -0.780  14.530  19.123  0.00  0.00    +0.000 C 
ATOM     30  C   UNL     1      -0.584  14.585  20.643  0.00  0.00    +0.000 C 
ATOM     31  C   UNL     1       0.850  14.929  21.031  0.00  0.00    +0.000 C 
ATOM     32  C   UNL     1       1.855  14.027  20.330  0.00  0.00    +0.000 C 
ATOM     33  C   UNL     1       1.635  14.001  18.823  0.00  0.00    +0.000 C 
ENDBRANCH  27  28
BRANCH  27  36
ATOM     34  C   UNL     1      -2.528  11.543  18.078  0.00  0.00    +0.000 C 
ATOM     35  O   UNL     1      -2.960  11.912  19.164  0.00  0.00    +0.000 OA
ATOM     36  N   UNL     1      -1.236  11.666  17.673  0.00  0.00    +0.000 N 
ATOM     37  H   UNL     1      -1.005  11.143  16.842  0.00  0.00    +0.000 HD
BRANCH  34  39
ATOM     38  C   UNL     1      -2.688  11.022  15.805  0.00  0.00    +0.000 C 
ATOM     39  O   UNL     1      -3.246  10.920  17.118  0.00  0.00    +0.000 OA
ENDBRANCH  34  39
ENDBRANCH  27  36
ENDBRANCH   1  27
TORSDOF 10
ENDMDL
MODEL 9
REMARK VINA RESULT:      -6.5      2.512      4.396
REMARK  Name = 
REMARK  13 active torsions:
REMARK  status: ('A' for Active; 'I' for Inactive)
REMARK    1  A    between atoms: C_1  and  O_2
REMARK    2  A    between atoms: O_2  and  C_3
REMARK    3  A    between atoms: N_5  and  C_6
REMARK    4  A    between atoms: C_6  and  C_7
REMARK    5  A    between atoms: C_6  and  C_30
REMARK    6  A    between atoms: C_13  and  C_14
REMARK    7  A    between atoms: N_16  and  C_17
REMARK    8  A    between atoms: C_17  and  C_18
REMARK    9  A    between atoms: C_17  and  C_22
REMARK   10  A    between atoms: C_18  and  C_19
REMARK   11  A    between atoms: C_22  and  C_24
REMARK   12  A    between atoms: C_27  and  C_28
REMARK   13  A    between atoms: C_27  and  C_29
REMARK                            x       y       z     vdW  Elec       q    Type
REMARK                         _______ _______ _______ _____ _____    ______ ____
ROOT
ATOM      1  C   UNL     1       0.028  11.941  21.921  0.00  0.00    +0.000 C 
ATOM      2  O   UNL     1      -0.446  11.463  22.951  0.00  0.00    +0.000 OA
ATOM      3  N   UNL     1       0.486  11.091  20.910  0.00  0.00    +0.000 N 
ATOM      4  C   UNL     1       1.021  11.513  19.623  0.00  0.00    +0.000 C 
ATOM      5  C   UNL     1       0.207  10.756  18.620  0.00  0.00    +0.000 C 
ATOM      6  C   UNL     1      -0.544   9.678  19.338  0.00  0.00    +0.000 C 
ATOM      7  C   UNL     1      -0.060   9.718  20.789  0.00  0.00    +0.000 C 
ATOM      8  C   UNL     1      -1.315  10.755  18.568  0.00  0.00    +0.000 C 
ATOM      9  C   UNL     1      -1.939  10.366  17.253  0.00  0.00    +0.000 C 
ATOM     10  C   UNL     1      -2.133  11.781  19.286  0.00  0.00    +0.000 C 
ENDROOT
BRANCH   7  11
ATOM     11  C   UNL     1       1.019   8.592  20.965  0.00  0.00    +0.000 C 
ATOM     12  O   UNL     1       1.740   8.526  21.965  0.00  0.00    +0.000 OA
ATOM     13  N   UNL     1       1.091   7.661  19.960  0.00  0.00    +0.000 N 
ATOM     14  H   UNL     1       0.702   7.940  19.059  0.00  0.00    +0.000 HD
BRANCH  13  15
ATOM     15  C   UNL     1       2.039   6.537  19.979  0.00  0.00    +0.000 C 
BRANCH  15  16
ATOM     16  C   UNL     1       2.498   6.304  18.537  0.00  0.00    +0.000 C 
ATOM     17  O   UNL     1       2.255   5.287  17.892  0.00  0.00    +0.000 OA
BRANCH  16  18
ATOM     18  C   UNL     1       3.285   7.436  17.863  0.00  0.00    +0.000 C 
ATOM     19  N   UNL     1       4.499   7.075  17.352  0.00  0.00    +0.000 N 
ATOM     20  O   UNL     1       2.840   8.567  17.790  0.00  0.00    +0.000 OA
ATOM     21  H   UNL     1       4.801   6.112  17.348  0.00  0.00    +0.000 HD
ATOM     22  H   UNL     1       5.038   7.775  16.852  0.00  0.00    +0.000 HD
ENDBRANCH  16  18
ENDBRANCH  15  16
BRANCH  15  23
ATOM     23  C   UNL     1       1.457   5.275  20.658  0.00  0.00    +0.000 C 
BRANCH  23  24
ATOM     24  C   UNL     1       2.488   4.319  21.210  0.00  0.00    +0.000 C 
ATOM     25  C   UNL     1       2.039   2.985  21.766  0.00  0.00    +0.000 C 
ATOM     26  C   UNL     1       2.843   3.035  20.500  0.00  0.00    +0.000 C 
ENDBRANCH  23  24
ENDBRANCH  15  23
ENDBRANCH  13  15
ENDBRANCH   7  11
BRANCH   1  27
ATOM     27  C   UNL     1      -0.039  13.493  21.597  0.00  0.00    +0.000 C 
BRANCH  27  28
ATOM     28  C   UNL     1      -0.958  14.385  22.496  0.00  0.00    +0.000 C 
ATOM     29  C   UNL     1      -1.037  15.842  21.964  0.00  0.00    +0.000 C 
ATOM     30  C   UNL     1      -1.927  16.003  20.726  0.00  0.00    +0.000 C 
ATOM     31  C   UNL     1      -3.332  15.450  20.947  0.00  0.00    +0.000 C 
ATOM     32  C   UNL     1      -3.297  14.025  21.478  0.00  0.00    +0.000 C 
ATOM     33  C   UNL     1      -2.409  13.903  22.710  0.00  0.00    +0.000 C 
ENDBRANCH  27  28
BRANCH  27  36
ATOM     34  C   UNL     1       1.749  14.633  20.335  0.00  0.00    +0.000 C 
ATOM     35  O   UNL     1       1.042  14.896  19.369  0.00  0.00    +0.000 OA
ATOM     36  N   UNL     1       1.312  14.053  21.483  0.00  0.00    +0.000 N 
ATOM     37  H   UNL     1       2.045  13.730  22.096  0.00  0.00    +0.000 HD
BRANCH  34  39
ATOM     38  C   UNL     1       3.641  14.618  21.708  0.00  0.00    +0.000 C 
ATOM     39  O   UNL     1       3.082  14.838  20.409  0.00  0.00    +0.000 OA
ENDBRANCH  34  39
ENDBRANCH  27  36
ENDBRANCH   1  27
TORSDOF 10
ENDMDL
