MODEL 1
REMARK VINA RESULT:      -9.0      0.000      0.000
REMARK  Name = 
REMARK  7 active torsions:
REMARK  status: ('A' for Active; 'I' for Inactive)
REMARK    1  A    between atoms: C_1  and  O_2
REMARK    2  A    between atoms: O_2  and  C_3
REMARK    3  A    between atoms: C_6  and  C_7
REMARK    4  A    between atoms: C_7  and  C_8
REMARK    5  A    between atoms: C_8  and  N_9
REMARK    6  A    between atoms: N_9  and  C_10
REMARK    7  A    between atoms: N_18  and  C_19
REMARK                            x       y       z     vdW  Elec       q    Type
REMARK                         _______ _______ _______ _____ _____    ______ ____
ROOT
ATOM      1  C   UNL     1       7.524   7.109  17.945  0.00  0.00    +0.000 A 
ATOM      2  N   UNL     1       8.240   6.544  18.945  0.00  0.00    +0.000 NA
ATOM      3  C   UNL     1       7.729   5.490  19.604  0.00  0.00    +0.000 A 
ATOM      4  N   UNL     1       6.549   4.892  19.402  0.00  0.00    +0.000 NA
ATOM      5  C   UNL     1       5.846   5.469  18.406  0.00  0.00    +0.000 A 
ATOM      6  C   UNL     1       6.269   6.553  17.654  0.00  0.00    +0.000 A 
ATOM      7  C   UNL     1       5.230   6.773  16.735  0.00  0.00    +0.000 A 
ATOM      8  N   UNL     1       4.234   5.895  16.852  0.00  0.00    +0.000 NA
ATOM      9  N   UNL     1       4.595   5.107  17.910  0.00  0.00    +0.000 N 
ENDROOT
BRANCH   9  10
ATOM     10  C   UNL     1       3.713   4.077  18.358  0.00  0.00    +0.000 A 
ATOM     11  C   UNL     1       3.348   3.053  17.467  0.00  0.00    +0.000 A 
ATOM     12  C   UNL     1       2.478   2.036  17.872  0.00  0.00    +0.000 A 
ATOM     13  C   UNL     1       1.953   2.046  19.162  0.00  0.00    +0.000 A 
ATOM     14  C   UNL     1       2.311   3.059  20.048  0.00  0.00    +0.000 A 
ATOM     15 CL   UNL     1       1.631   3.086  21.630  0.00  0.00    +0.000 Cl
ATOM     16  C   UNL     1       3.186   4.073  19.655  0.00  0.00    +0.000 A 
ENDBRANCH   9  10
BRANCH   1  17
ATOM     17  N   UNL     1       8.045   8.198  17.241  0.00  0.00    +0.000 N 
ATOM     18  H   UNL     1       8.999   8.035  16.939  0.00  0.00    +0.000 HD
BRANCH  17  19
ATOM     19  C   UNL     1       7.842   9.491  17.901  0.00  0.00    +0.000 C 
BRANCH  19  20
ATOM     20  C   UNL     1       9.101   9.874  18.686  0.00  0.00    +0.000 C 
BRANCH  20  24
ATOM     21  C   UNL     1      10.837  13.602  17.345  0.00  0.00    +0.000 A 
ATOM     22  C   UNL     1      11.655  12.530  17.706  0.00  0.00    +0.000 A 
ATOM     23  C   UNL     1      11.097  11.323  18.138  0.00  0.00    +0.000 A 
ATOM     24  C   UNL     1       9.708  11.178  18.229  0.00  0.00    +0.000 A 
ATOM     25  C   UNL     1       8.893  12.267  17.892  0.00  0.00    +0.000 A 
ATOM     26  C   UNL     1       9.454  13.470  17.452  0.00  0.00    +0.000 A 
BRANCH  21  28
ATOM     27  C   UNL     1      10.771  15.950  17.081  0.00  0.00    +0.000 C 
ATOM     28  O   UNL     1      11.497  14.733  16.946  0.00  0.00    +0.000 OA
ENDBRANCH  21  28
ENDBRANCH  20  24
ENDBRANCH  19  20
ENDBRANCH  17  19
ENDBRANCH   1  17
TORSDOF 6
ENDMDL
MODEL 2
REMARK VINA RESULT:      -8.8      0.943      1.097
REMARK  Name = 
REMARK  7 active torsions:
REMARK  status: ('A' for Active; 'I' for Inactive)
REMARK    1  A    between atoms: C_1  and  O_2
REMARK    2  A    between atoms: O_2  and  C_3
REMARK    3  A    between atoms: C_6  and  C_7
REMARK    4  A    between atoms: C_7  and  C_8
REMARK    5  A    between atoms: C_8  and  N_9
REMARK    6  A    between atoms: N_9  and  C_10
REMARK    7  A    between atoms: N_18  and  C_19
REMARK                            x       y       z     vdW  Elec       q    Type
REMARK                         _______ _______ _______ _____ _____    ______ ____
ROOT
ATOM      1  C   UNL     1       7.500   7.093  17.895  0.00  0.00    +0.000 A 
ATOM      2  N   UNL     1       8.217   6.533  18.896  0.00  0.00    +0.000 NA
ATOM      3  C   UNL     1       7.700   5.491  19.570  0.00  0.00    +0.000 A 
ATOM      4  N   UNL     1       6.514   4.901  19.382  0.00  0.00    +0.000 NA
ATOM      5  C   UNL     1       5.810   5.474  18.384  0.00  0.00    +0.000 A 
ATOM      6  C   UNL     1       6.238   6.546  17.617  0.00  0.00    +0.000 A 
ATOM      7  C   UNL     1       5.195   6.765  16.703  0.00  0.00    +0.000 A 
ATOM      8  N   UNL     1       4.193   5.898  16.835  0.00  0.00    +0.000 NA
ATOM      9  N   UNL     1       4.553   5.118  17.900  0.00  0.00    +0.000 N 
ENDROOT
BRANCH   9  10
ATOM     10  C   UNL     1       3.664   4.101  18.364  0.00  0.00    +0.000 A 
ATOM     11  C   UNL     1       3.208   3.126  17.461  0.00  0.00    +0.000 A 
ATOM     12  C   UNL     1       2.329   2.124  17.883  0.00  0.00    +0.000 A 
ATOM     13  C   UNL     1       1.886   2.100  19.203  0.00  0.00    +0.000 A 
ATOM     14  C   UNL     1       2.336   3.064  20.102  0.00  0.00    +0.000 A 
ATOM     15 CL   UNL     1       1.758   3.052  21.724  0.00  0.00    +0.000 Cl
ATOM     16  C   UNL     1       3.220   4.063  19.692  0.00  0.00    +0.000 A 
ENDBRANCH   9  10
BRANCH   1  17
ATOM     17  N   UNL     1       8.027   8.170  17.175  0.00  0.00    +0.000 N 
ATOM     18  H   UNL     1       8.941   7.960  16.791  0.00  0.00    +0.000 HD
BRANCH  17  19
ATOM     19  C   UNL     1       7.957   9.453  17.880  0.00  0.00    +0.000 C 
BRANCH  19  20
ATOM     20  C   UNL     1       9.006   9.488  18.997  0.00  0.00    +0.000 C 
BRANCH  20  24
ATOM     21  C   UNL     1      11.084  13.274  19.226  0.00  0.00    +0.000 A 
ATOM     22  C   UNL     1      10.829  12.681  17.989  0.00  0.00    +0.000 A 
ATOM     23  C   UNL     1      10.156  11.458  17.911  0.00  0.00    +0.000 A 
ATOM     24  C   UNL     1       9.740  10.804  19.077  0.00  0.00    +0.000 A 
ATOM     25  C   UNL     1      10.023  11.390  20.317  0.00  0.00    +0.000 A 
ATOM     26  C   UNL     1      10.689  12.619  20.390  0.00  0.00    +0.000 A 
BRANCH  21  28
ATOM     27  C   UNL     1      11.295  15.394  18.200  0.00  0.00    +0.000 C 
ATOM     28  O   UNL     1      11.756  14.466  19.177  0.00  0.00    +0.000 OA
ENDBRANCH  21  28
ENDBRANCH  20  24
ENDBRANCH  19  20
ENDBRANCH  17  19
ENDBRANCH   1  17
TORSDOF 6
ENDMDL
MODEL 3
REMARK VINA RESULT:      -8.4      0.988      1.979
REMARK  Name = 
REMARK  7 active torsions:
REMARK  status: ('A' for Active; 'I' for Inactive)
REMARK    1  A    between atoms: C_1  and  O_2
REMARK    2  A    between atoms: O_2  and  C_3
REMARK    3  A    between atoms: C_6  and  C_7
REMARK    4  A    between atoms: C_7  and  C_8
REMARK    5  A    between atoms: C_8  and  N_9
REMARK    6  A    between atoms: N_9  and  C_10
REMARK    7  A    between atoms: N_18  and  C_19
REMARK                            x       y       z     vdW  Elec       q    Type
REMARK                         _______ _______ _______ _____ _____    ______ ____
ROOT
ATOM      1  C   UNL     1       6.951   7.109  17.404  0.00  0.00    +0.000 A 
ATOM      2  N   UNL     1       6.169   7.484  16.365  0.00  0.00    +0.000 NA
ATOM      3  C   UNL     1       4.990   6.867  16.175  0.00  0.00    +0.000 A 
ATOM      4  N   UNL     1       4.455   5.881  16.904  0.00  0.00    +0.000 NA
ATOM      5  C   UNL     1       5.249   5.515  17.932  0.00  0.00    +0.000 A 
ATOM      6  C   UNL     1       6.479   6.080  18.231  0.00  0.00    +0.000 A 
ATOM      7  C   UNL     1       6.906   5.402  19.385  0.00  0.00    +0.000 A 
ATOM      8  N   UNL     1       6.025   4.503  19.820  0.00  0.00    +0.000 NA
ATOM      9  N   UNL     1       5.012   4.544  18.902  0.00  0.00    +0.000 N 
ENDROOT
BRANCH   9  10
ATOM     10  C   UNL     1       3.906   3.650  19.029  0.00  0.00    +0.000 A 
ATOM     11  C   UNL     1       3.519   2.877  17.921  0.00  0.00    +0.000 A 
ATOM     12  C   UNL     1       2.433   2.000  18.011  0.00  0.00    +0.000 A 
ATOM     13  C   UNL     1       1.717   1.904  19.202  0.00  0.00    +0.000 A 
ATOM     14  C   UNL     1       2.097   2.668  20.303  0.00  0.00    +0.000 A 
ATOM     15 CL   UNL     1       1.186   2.571  21.761  0.00  0.00    +0.000 Cl
ATOM     16  C   UNL     1       3.183   3.539  20.224  0.00  0.00    +0.000 A 
ENDBRANCH   9  10
BRANCH   1  17
ATOM     17  N   UNL     1       8.175   7.748  17.624  0.00  0.00    +0.000 N 
ATOM     18  H   UNL     1       8.754   7.244  18.285  0.00  0.00    +0.000 HD
BRANCH  17  19
ATOM     19  C   UNL     1       8.061   9.182  17.904  0.00  0.00    +0.000 C 
BRANCH  19  20
ATOM     20  C   UNL     1       9.018   9.566  19.037  0.00  0.00    +0.000 C 
BRANCH  20  24
ATOM     21  C   UNL     1      10.603  13.571  18.633  0.00  0.00    +0.000 A 
ATOM     22  C   UNL     1       9.653  13.091  17.730  0.00  0.00    +0.000 A 
ATOM     23  C   UNL     1       9.137  11.799  17.859  0.00  0.00    +0.000 A 
ATOM     24  C   UNL     1       9.578  10.960  18.889  0.00  0.00    +0.000 A 
ATOM     25  C   UNL     1      10.553  11.436  19.775  0.00  0.00    +0.000 A 
ATOM     26  C   UNL     1      11.060  12.734  19.649  0.00  0.00    +0.000 A 
BRANCH  21  28
ATOM     27  C   UNL     1      10.071  15.742  17.865  0.00  0.00    +0.000 C 
ATOM     28  O   UNL     1      11.039  14.848  18.402  0.00  0.00    +0.000 OA
ENDBRANCH  21  28
ENDBRANCH  20  24
ENDBRANCH  19  20
ENDBRANCH  17  19
ENDBRANCH   1  17
TORSDOF 6
ENDMDL
MODEL 4
REMARK VINA RESULT:      -8.2      1.263      1.527
REMARK  Name = 
REMARK  7 active torsions:
REMARK  status: ('A' for Active; 'I' for Inactive)
REMARK    1  A    between atoms: C_1  and  O_2
REMARK    2  A    between atoms: O_2  and  C_3
REMARK    3  A    between atoms: C_6  and  C_7
REMARK    4  A    between atoms: C_7  and  C_8
REMARK    5  A    between atoms: C_8  and  N_9
REMARK    6  A    between atoms: N_9  and  C_10
REMARK    7  A    between atoms: N_18  and  C_19
REMARK                            x       y       z     vdW  Elec       q    Type
REMARK                         _______ _______ _______ _____ _____    ______ ____
ROOT
ATOM      1  C   UNL     1       7.526   7.087  17.955  0.00  0.00    +0.000 A 
ATOM      2  N   UNL     1       8.217   6.534  18.979  0.00  0.00    +0.000 NA
ATOM      3  C   UNL     1       7.686   5.494  19.643  0.00  0.00    +0.000 A 
ATOM      4  N   UNL     1       6.508   4.898  19.424  0.00  0.00    +0.000 NA
ATOM      5  C   UNL     1       5.829   5.464  18.405  0.00  0.00    +0.000 A 
ATOM      6  C   UNL     1       6.275   6.533  17.645  0.00  0.00    +0.000 A 
ATOM      7  C   UNL     1       5.257   6.744  16.700  0.00  0.00    +0.000 A 
ATOM      8  N   UNL     1       4.255   5.873  16.809  0.00  0.00    +0.000 NA
ATOM      9  N   UNL     1       4.588   5.100  17.887  0.00  0.00    +0.000 N 
ENDROOT
BRANCH   9  10
ATOM     10  C   UNL     1       3.691   4.081  18.331  0.00  0.00    +0.000 A 
ATOM     11  C   UNL     1       3.336   3.048  17.447  0.00  0.00    +0.000 A 
ATOM     12  C   UNL     1       2.452   2.042  17.849  0.00  0.00    +0.000 A 
ATOM     13  C   UNL     1       1.903   2.072  19.128  0.00  0.00    +0.000 A 
ATOM     14  C   UNL     1       2.251   3.094  20.008  0.00  0.00    +0.000 A 
ATOM     15 CL   UNL     1       1.542   3.146  21.576  0.00  0.00    +0.000 Cl
ATOM     16  C   UNL     1       3.139   4.097  19.619  0.00  0.00    +0.000 A 
ENDBRANCH   9  10
BRANCH   1  17
ATOM     17  N   UNL     1       8.068   8.163  17.246  0.00  0.00    +0.000 N 
ATOM     18  H   UNL     1       9.019   7.981  16.947  0.00  0.00    +0.000 HD
BRANCH  17  19
ATOM     19  C   UNL     1       7.886   9.463  17.897  0.00  0.00    +0.000 C 
BRANCH  19  20
ATOM     20  C   UNL     1       9.238   9.986  18.394  0.00  0.00    +0.000 C 
BRANCH  20  24
ATOM     21  C   UNL     1       9.127  14.190  19.409  0.00  0.00    +0.000 A 
ATOM     22  C   UNL     1       8.913  13.773  18.094  0.00  0.00    +0.000 A 
ATOM     23  C   UNL     1       8.946  12.416  17.763  0.00  0.00    +0.000 A 
ATOM     24  C   UNL     1       9.209  11.454  18.745  0.00  0.00    +0.000 A 
ATOM     25  C   UNL     1       9.451  11.879  20.058  0.00  0.00    +0.000 A 
ATOM     26  C   UNL     1       9.408  13.239  20.388  0.00  0.00    +0.000 A 
BRANCH  21  28
ATOM     27  C   UNL     1       7.937  16.205  19.075  0.00  0.00    +0.000 C 
ATOM     28  O   UNL     1       9.078  15.543  19.610  0.00  0.00    +0.000 OA
ENDBRANCH  21  28
ENDBRANCH  20  24
ENDBRANCH  19  20
ENDBRANCH  17  19
ENDBRANCH   1  17
TORSDOF 6
ENDMDL
MODEL 5
REMARK VINA RESULT:      -8.1      1.461      1.899
REMARK  Name = 
REMARK  7 active torsions:
REMARK  status: ('A' for Active; 'I' for Inactive)
REMARK    1  A    between atoms: C_1  and  O_2
REMARK    2  A    between atoms: O_2  and  C_3
REMARK    3  A    between atoms: C_6  and  C_7
REMARK    4  A    between atoms: C_7  and  C_8
REMARK    5  A    between atoms: C_8  and  N_9
REMARK    6  A    between atoms: N_9  and  C_10
REMARK    7  A    between atoms: N_18  and  C_19
REMARK                            x       y       z     vdW  Elec       q    Type
REMARK                         _______ _______ _______ _____ _____    ______ ____
ROOT
ATOM      1  C   UNL     1       7.402   6.991  17.911  0.00  0.00    +0.000 A 
ATOM      2  N   UNL     1       8.099   6.289  18.836  0.00  0.00    +0.000 NA
ATOM      3  C   UNL     1       7.451   5.410  19.618  0.00  0.00    +0.000 A 
ATOM      4  N   UNL     1       6.145   5.117  19.613  0.00  0.00    +0.000 NA
ATOM      5  C   UNL     1       5.464   5.829  18.691  0.00  0.00    +0.000 A 
ATOM      6  C   UNL     1       6.022   6.757  17.827  0.00  0.00    +0.000 A 
ATOM      7  C   UNL     1       4.944   7.206  17.047  0.00  0.00    +0.000 A 
ATOM      8  N   UNL     1       3.794   6.605  17.349  0.00  0.00    +0.000 NA
ATOM      9  N   UNL     1       4.104   5.776  18.392  0.00  0.00    +0.000 N 
ENDROOT
BRANCH   9  10
ATOM     10  C   UNL     1       3.075   5.007  19.014  0.00  0.00    +0.000 A 
ATOM     11  C   UNL     1       2.504   5.469  20.213  0.00  0.00    +0.000 A 
ATOM     12  C   UNL     1       1.502   4.733  20.852  0.00  0.00    +0.000 A 
ATOM     13  C   UNL     1       1.076   3.523  20.308  0.00  0.00    +0.000 A 
ATOM     14  C   UNL     1       1.638   3.061  19.121  0.00  0.00    +0.000 A 
ATOM     15 CL   UNL     1       1.134   1.548  18.472  0.00  0.00    +0.000 Cl
ATOM     16  C   UNL     1       2.633   3.793  18.472  0.00  0.00    +0.000 A 
ENDBRANCH   9  10
BRANCH   1  17
ATOM     17  N   UNL     1       8.063   7.901  17.081  0.00  0.00    +0.000 N 
ATOM     18  H   UNL     1       8.969   7.557  16.785  0.00  0.00    +0.000 HD
BRANCH  17  19
ATOM     19  C   UNL     1       8.084   9.274  17.594  0.00  0.00    +0.000 C 
BRANCH  19  20
ATOM     20  C   UNL     1       8.840   9.317  18.926  0.00  0.00    +0.000 C 
BRANCH  20  24
ATOM     21  C   UNL     1      11.031  13.002  19.499  0.00  0.00    +0.000 A 
ATOM     22  C   UNL     1      10.762  12.531  18.212  0.00  0.00    +0.000 A 
ATOM     23  C   UNL     1      10.052  11.342  18.024  0.00  0.00    +0.000 A 
ATOM     24  C   UNL     1       9.613  10.597  19.125  0.00  0.00    +0.000 A 
ATOM     25  C   UNL     1       9.911  11.060  20.413  0.00  0.00    +0.000 A 
ATOM     26  C   UNL     1      10.613  12.256  20.598  0.00  0.00    +0.000 A 
BRANCH  21  28
ATOM     27  C   UNL     1      11.240  15.236  18.753  0.00  0.00    +0.000 C 
ATOM     28  O   UNL     1      11.739  14.173  19.557  0.00  0.00    +0.000 OA
ENDBRANCH  21  28
ENDBRANCH  20  24
ENDBRANCH  19  20
ENDBRANCH  17  19
ENDBRANCH   1  17
TORSDOF 6
ENDMDL
MODEL 6
REMARK VINA RESULT:      -8.1      5.968      8.132
REMARK  Name = 
REMARK  7 active torsions:
REMARK  status: ('A' for Active; 'I' for Inactive)
REMARK    1  A    between atoms: C_1  and  O_2
REMARK    2  A    between atoms: O_2  and  C_3
REMARK    3  A    between atoms: C_6  and  C_7
REMARK    4  A    between atoms: C_7  and  C_8
REMARK    5  A    between atoms: C_8  and  N_9
REMARK    6  A    between atoms: N_9  and  C_10
REMARK    7  A    between atoms: N_18  and  C_19
REMARK                            x       y       z     vdW  Elec       q    Type
REMARK                         _______ _______ _______ _____ _____    ______ ____
ROOT
ATOM      1  C   UNL     1       3.794   5.203  18.911  0.00  0.00    +0.000 A 
ATOM      2  N   UNL     1       3.649   3.868  19.080  0.00  0.00    +0.000 NA
ATOM      3  C   UNL     1       4.084   3.034  18.120  0.00  0.00    +0.000 A 
ATOM      4  N   UNL     1       4.670   3.355  16.961  0.00  0.00    +0.000 NA
ATOM      5  C   UNL     1       4.803   4.688  16.805  0.00  0.00    +0.000 A 
ATOM      6  C   UNL     1       4.398   5.644  17.724  0.00  0.00    +0.000 A 
ATOM      7  C   UNL     1       4.766   6.869  17.145  0.00  0.00    +0.000 A 
ATOM      8  N   UNL     1       5.383   6.729  15.973  0.00  0.00    +0.000 NA
ATOM      9  N   UNL     1       5.376   5.380  15.741  0.00  0.00    +0.000 N 
ENDROOT
BRANCH   9  10
ATOM     10  C   UNL     1       5.917   4.870  14.522  0.00  0.00    +0.000 A 
ATOM     11  C   UNL     1       7.212   5.253  14.133  0.00  0.00    +0.000 A 
ATOM     12  C   UNL     1       7.764   4.778  12.940  0.00  0.00    +0.000 A 
ATOM     13  C   UNL     1       7.021   3.934  12.119  0.00  0.00    +0.000 A 
ATOM     14  C   UNL     1       5.737   3.550  12.500  0.00  0.00    +0.000 A 
ATOM     15 CL   UNL     1       4.809   2.535  11.465  0.00  0.00    +0.000 Cl
ATOM     16  C   UNL     1       5.181   4.013  13.693  0.00  0.00    +0.000 A 
ENDBRANCH   9  10
BRANCH   1  17
ATOM     17  N   UNL     1       3.357   6.085  19.904  0.00  0.00    +0.000 N 
ATOM     18  H   UNL     1       3.563   5.741  20.835  0.00  0.00    +0.000 HD
BRANCH  17  19
ATOM     19  C   UNL     1       1.977   6.547  19.731  0.00  0.00    +0.000 C 
BRANCH  19  20
ATOM     20  C   UNL     1       1.969   8.050  19.430  0.00  0.00    +0.000 C 
BRANCH  20  24
ATOM     21  C   UNL     1      -0.261  10.364  22.325  0.00  0.00    +0.000 A 
ATOM     22  C   UNL     1       0.614   9.360  22.744  0.00  0.00    +0.000 A 
ATOM     23  C   UNL     1       1.338   8.612  21.811  0.00  0.00    +0.000 A 
ATOM     24  C   UNL     1       1.184   8.850  20.440  0.00  0.00    +0.000 A 
ATOM     25  C   UNL     1       0.284   9.839  20.025  0.00  0.00    +0.000 A 
ATOM     26  C   UNL     1      -0.433  10.592  20.962  0.00  0.00    +0.000 A 
BRANCH  21  28
ATOM     27  C   UNL     1      -2.035  11.807  22.922  0.00  0.00    +0.000 C 
ATOM     28  O   UNL     1      -0.919  11.023  23.328  0.00  0.00    +0.000 OA
ENDBRANCH  21  28
ENDBRANCH  20  24
ENDBRANCH  19  20
ENDBRANCH  17  19
ENDBRANCH   1  17
TORSDOF 6
ENDMDL
MODEL 7
REMARK VINA RESULT:      -8.0      1.628      1.761
REMARK  Name = 
REMARK  7 active torsions:
REMARK  status: ('A' for Active; 'I' for Inactive)
REMARK    1  A    between atoms: C_1  and  O_2
REMARK    2  A    between atoms: O_2  and  C_3
REMARK    3  A    between atoms: C_6  and  C_7
REMARK    4  A    between atoms: C_7  and  C_8
REMARK    5  A    between atoms: C_8  and  N_9
REMARK    6  A    between atoms: N_9  and  C_10
REMARK    7  A    between atoms: N_18  and  C_19
REMARK                            x       y       z     vdW  Elec       q    Type
REMARK                         _______ _______ _______ _____ _____    ______ ____
ROOT
ATOM      1  C   UNL     1       7.447   7.137  18.071  0.00  0.00    +0.000 A 
ATOM      2  N   UNL     1       8.228   6.456  18.942  0.00  0.00    +0.000 NA
ATOM      3  C   UNL     1       7.753   5.336  19.512  0.00  0.00    +0.000 A 
ATOM      4  N   UNL     1       6.553   4.771  19.333  0.00  0.00    +0.000 NA
ATOM      5  C   UNL     1       5.786   5.464  18.467  0.00  0.00    +0.000 A 
ATOM      6  C   UNL     1       6.166   6.626  17.814  0.00  0.00    +0.000 A 
ATOM      7  C   UNL     1       5.064   6.957  17.009  0.00  0.00    +0.000 A 
ATOM      8  N   UNL     1       4.068   6.076  17.099  0.00  0.00    +0.000 NA
ATOM      9  N   UNL     1       4.496   5.169  18.029  0.00  0.00    +0.000 N 
ENDROOT
BRANCH   9  10
ATOM     10  C   UNL     1       3.636   4.099  18.421  0.00  0.00    +0.000 A 
ATOM     11  C   UNL     1       3.270   3.130  17.470  0.00  0.00    +0.000 A 
ATOM     12  C   UNL     1       2.421   2.077  17.820  0.00  0.00    +0.000 A 
ATOM     13  C   UNL     1       1.917   1.994  19.116  0.00  0.00    +0.000 A 
ATOM     14  C   UNL     1       2.276   2.950  20.062  0.00  0.00    +0.000 A 
ATOM     15 CL   UNL     1       1.622   2.863  21.652  0.00  0.00    +0.000 Cl
ATOM     16  C   UNL     1       3.130   4.001  19.724  0.00  0.00    +0.000 A 
ENDBRANCH   9  10
BRANCH   1  17
ATOM     17  N   UNL     1       7.930   8.298  17.460  0.00  0.00    +0.000 N 
ATOM     18  H   UNL     1       8.499   8.092  16.647  0.00  0.00    +0.000 HD
BRANCH  17  19
ATOM     19  C   UNL     1       8.539   9.255  18.387  0.00  0.00    +0.000 C 
BRANCH  19  20
ATOM     20  C   UNL     1       8.818  10.575  17.660  0.00  0.00    +0.000 C 
BRANCH  20  24
ATOM     21  C   UNL     1      10.317  13.667  20.287  0.00  0.00    +0.000 A 
ATOM     22  C   UNL     1       9.842  12.463  20.810  0.00  0.00    +0.000 A 
ATOM     23  C   UNL     1       9.359  11.462  19.964  0.00  0.00    +0.000 A 
ATOM     24  C   UNL     1       9.331  11.657  18.578  0.00  0.00    +0.000 A 
ATOM     25  C   UNL     1       9.783  12.878  18.061  0.00  0.00    +0.000 A 
ATOM     26  C   UNL     1      10.274  13.876  18.911  0.00  0.00    +0.000 A 
BRANCH  21  28
ATOM     27  C   UNL     1       9.856  14.856  22.278  0.00  0.00    +0.000 C 
ATOM     28  O   UNL     1      10.757  14.575  21.213  0.00  0.00    +0.000 OA
ENDBRANCH  21  28
ENDBRANCH  20  24
ENDBRANCH  19  20
ENDBRANCH  17  19
ENDBRANCH   1  17
TORSDOF 6
ENDMDL
MODEL 8
REMARK VINA RESULT:      -8.0      1.376      2.246
REMARK  Name = 
REMARK  7 active torsions:
REMARK  status: ('A' for Active; 'I' for Inactive)
REMARK    1  A    between atoms: C_1  and  O_2
REMARK    2  A    between atoms: O_2  and  C_3
REMARK    3  A    between atoms: C_6  and  C_7
REMARK    4  A    between atoms: C_7  and  C_8
REMARK    5  A    between atoms: C_8  and  N_9
REMARK    6  A    between atoms: N_9  and  C_10
REMARK    7  A    between atoms: N_18  and  C_19
REMARK                            x       y       z     vdW  Elec       q    Type
REMARK                         _______ _______ _______ _____ _____    ______ ____
ROOT
ATOM      1  C   UNL     1       6.789   6.855  17.169  0.00  0.00    +0.000 A 
ATOM      2  N   UNL     1       5.909   7.386  16.288  0.00  0.00    +0.000 NA
ATOM      3  C   UNL     1       4.658   6.898  16.235  0.00  0.00    +0.000 A 
ATOM      4  N   UNL     1       4.134   5.908  16.966  0.00  0.00    +0.000 NA
ATOM      5  C   UNL     1       5.024   5.385  17.834  0.00  0.00    +0.000 A 
ATOM      6  C   UNL     1       6.336   5.807  17.984  0.00  0.00    +0.000 A 
ATOM      7  C   UNL     1       6.852   4.999  19.010  0.00  0.00    +0.000 A 
ATOM      8  N   UNL     1       5.954   4.151  19.509  0.00  0.00    +0.000 NA
ATOM      9  N   UNL     1       4.830   4.362  18.759  0.00  0.00    +0.000 N 
ENDROOT
BRANCH   9  10
ATOM     10  C   UNL     1       3.667   3.565  18.989  0.00  0.00    +0.000 A 
ATOM     11  C   UNL     1       3.078   2.886  17.909  0.00  0.00    +0.000 A 
ATOM     12  C   UNL     1       1.933   2.107  18.101  0.00  0.00    +0.000 A 
ATOM     13  C   UNL     1       1.359   2.017  19.366  0.00  0.00    +0.000 A 
ATOM     14  C   UNL     1       1.939   2.688  20.440  0.00  0.00    +0.000 A 
ATOM     15 CL   UNL     1       1.205   2.602  21.995  0.00  0.00    +0.000 Cl
ATOM     16  C   UNL     1       3.086   3.461  20.260  0.00  0.00    +0.000 A 
ENDBRANCH   9  10
BRANCH   1  17
ATOM     17  N   UNL     1       8.091   7.358  17.245  0.00  0.00    +0.000 N 
ATOM     18  H   UNL     1       8.787   6.626  17.165  0.00  0.00    +0.000 HD
BRANCH  17  19
ATOM     19  C   UNL     1       8.315   8.274  18.368  0.00  0.00    +0.000 C 
BRANCH  19  20
ATOM     20  C   UNL     1       8.196   9.723  17.885  0.00  0.00    +0.000 C 
BRANCH  20  24
ATOM     21  C   UNL     1      11.211  12.336  19.557  0.00  0.00    +0.000 A 
ATOM     22  C   UNL     1      11.092  12.186  18.174  0.00  0.00    +0.000 A 
ATOM     23  C   UNL     1      10.118  11.344  17.631  0.00  0.00    +0.000 A 
ATOM     24  C   UNL     1       9.255  10.627  18.468  0.00  0.00    +0.000 A 
ATOM     25  C   UNL     1       9.396  10.761  19.855  0.00  0.00    +0.000 A 
ATOM     26  C   UNL     1      10.367  11.611  20.395  0.00  0.00    +0.000 A 
BRANCH  21  28
ATOM     27  C   UNL     1      11.895  14.569  19.922  0.00  0.00    +0.000 C 
ATOM     28  O   UNL     1      12.205  13.181  19.971  0.00  0.00    +0.000 OA
ENDBRANCH  21  28
ENDBRANCH  20  24
ENDBRANCH  19  20
ENDBRANCH  17  19
ENDBRANCH   1  17
TORSDOF 6
ENDMDL
MODEL 9
REMARK VINA RESULT:      -7.9      3.835      6.338
REMARK  Name = 
REMARK  7 active torsions:
REMARK  status: ('A' for Active; 'I' for Inactive)
REMARK    1  A    between atoms: C_1  and  O_2
REMARK    2  A    between atoms: O_2  and  C_3
REMARK    3  A    between atoms: C_6  and  C_7
REMARK    4  A    between atoms: C_7  and  C_8
REMARK    5  A    between atoms: C_8  and  N_9
REMARK    6  A    between atoms: N_9  and  C_10
REMARK    7  A    between atoms: N_18  and  C_19
REMARK                            x       y       z     vdW  Elec       q    Type
REMARK                         _______ _______ _______ _____ _____    ______ ____
ROOT
ATOM      1  C   UNL     1       3.591   4.038  19.082  0.00  0.00    +0.000 A 
ATOM      2  N   UNL     1       3.013   3.423  20.141  0.00  0.00    +0.000 NA
ATOM      3  C   UNL     1       2.182   4.123  20.932  0.00  0.00    +0.000 A 
ATOM      4  N   UNL     1       1.830   5.408  20.817  0.00  0.00    +0.000 NA
ATOM      5  C   UNL     1       2.418   6.007  19.761  0.00  0.00    +0.000 A 
ATOM      6  C   UNL     1       3.286   5.391  18.873  0.00  0.00    +0.000 A 
ATOM      7  C   UNL     1       3.608   6.391  17.942  0.00  0.00    +0.000 A 
ATOM      8  N   UNL     1       2.985   7.545  18.177  0.00  0.00    +0.000 NA
ATOM      9  N   UNL     1       2.274   7.323  19.324  0.00  0.00    +0.000 N 
ENDROOT
BRANCH   9  10
ATOM     10  C   UNL     1       1.519   8.386  19.906  0.00  0.00    +0.000 A 
ATOM     11  C   UNL     1       1.145   9.479  19.104  0.00  0.00    +0.000 A 
ATOM     12  C   UNL     1       0.416  10.541  19.647  0.00  0.00    +0.000 A 
ATOM     13  C   UNL     1       0.071  10.527  20.997  0.00  0.00    +0.000 A 
ATOM     14  C   UNL     1       0.439   9.447  21.795  0.00  0.00    +0.000 A 
ATOM     15 CL   UNL     1       0.041   9.452  23.470  0.00  0.00    +0.000 Cl
ATOM     16  C   UNL     1       1.160   8.379  21.260  0.00  0.00    +0.000 A 
ENDBRANCH   9  10
BRANCH   1  17
ATOM     17  N   UNL     1       4.449   3.322  18.241  0.00  0.00    +0.000 N 
ATOM     18  H   UNL     1       5.393   3.281  18.608  0.00  0.00    +0.000 HD
BRANCH  17  19
ATOM     19  C   UNL     1       4.373   3.716  16.832  0.00  0.00    +0.000 C 
BRANCH  19  20
ATOM     20  C   UNL     1       5.786   3.906  16.271  0.00  0.00    +0.000 C 
BRANCH  20  24
ATOM     21  C   UNL     1       7.961   7.063  18.275  0.00  0.00    +0.000 A 
ATOM     22  C   UNL     1       7.376   7.288  17.028  0.00  0.00    +0.000 A 
ATOM     23  C   UNL     1       6.671   6.271  16.378  0.00  0.00    +0.000 A 
ATOM     24  C   UNL     1       6.554   5.005  16.964  0.00  0.00    +0.000 A 
ATOM     25  C   UNL     1       7.166   4.776  18.203  0.00  0.00    +0.000 A 
ATOM     26  C   UNL     1       7.864   5.800  18.855  0.00  0.00    +0.000 A 
BRANCH  21  28
ATOM     27  C   UNL     1       8.396   9.384  18.178  0.00  0.00    +0.000 C 
ATOM     28  O   UNL     1       8.631   8.130  18.809  0.00  0.00    +0.000 OA
ENDBRANCH  21  28
ENDBRANCH  20  24
ENDBRANCH  19  20
ENDBRANCH  17  19
ENDBRANCH   1  17
TORSDOF 6
ENDMDL
