MODEL 1
REMARK VINA RESULT:      -6.9      0.000      0.000
REMARK  Name = 
REMARK  4 active torsions:
REMARK  status: ('A' for Active; 'I' for Inactive)
REMARK    1  A    between atoms: C_1  and  N_2
REMARK    2  A    between atoms: N_2  and  C_3
REMARK    3  A    between atoms: N_2  and  S_4
REMARK    4  A    between atoms: S_4  and  C_7
REMARK                            x       y       z     vdW  Elec       q    Type
REMARK                         _______ _______ _______ _____ _____    ______ ____
ROOT
ATOM      1  C   UNL     1       5.024   3.641  18.370  0.00  0.00    +0.000 A 
ATOM      2  N   UNL     1       5.915   4.467  18.966  0.00  0.00    +0.000 NA
ATOM      3  C   UNL     1       6.741   5.120  18.131  0.00  0.00    +0.000 A 
ATOM      4 CL   UNL     1       7.902   6.165  18.789  0.00  0.00    +0.000 Cl
ATOM      5  C   UNL     1       6.666   4.980  16.750  0.00  0.00    +0.000 A 
ATOM      6  N   UNL     1       7.352   5.507  15.675  0.00  0.00    +0.000 NA
ATOM      7  C   UNL     1       6.797   4.966  14.611  0.00  0.00    +0.000 A 
ATOM      8  N   UNL     1       5.772   4.123  14.943  0.00  0.00    +0.000 N 
ATOM      9  C   UNL     1       5.674   4.118  16.305  0.00  0.00    +0.000 A 
ATOM     10  N   UNL     1       4.802   3.418  17.046  0.00  0.00    +0.000 NA
ATOM     11  H   UNL     1       5.193   3.590  14.310  0.00  0.00    +0.000 HD
ENDROOT
BRANCH   1  12
ATOM     12  S   UNL     1       3.906   2.747  19.494  0.00  0.00    +0.000 S 
ATOM     13  O   UNL     1       4.706   2.090  20.509  0.00  0.00    +0.000 OA
ATOM     14  O   UNL     1       2.981   1.974  18.683  0.00  0.00    +0.000 OA
BRANCH  12  16
ATOM     15  C   UNL     1       2.298   4.922  19.354  0.00  0.00    +0.000 C 
ATOM     16  N   UNL     1       2.996   3.993  20.260  0.00  0.00    +0.000 NA
ATOM     17  C   UNL     1       2.178   3.562  21.408  0.00  0.00    +0.000 C 
ENDBRANCH  12  16
ENDBRANCH   1  12
TORSDOF 2
ENDMDL
MODEL 2
REMARK VINA RESULT:      -6.8      1.545      1.827
REMARK  Name = 
REMARK  4 active torsions:
REMARK  status: ('A' for Active; 'I' for Inactive)
REMARK    1  A    between atoms: C_1  and  N_2
REMARK    2  A    between atoms: N_2  and  C_3
REMARK    3  A    between atoms: N_2  and  S_4
REMARK    4  A    between atoms: S_4  and  C_7
REMARK                            x       y       z     vdW  Elec       q    Type
REMARK                         _______ _______ _______ _____ _____    ______ ____
ROOT
ATOM      1  C   UNL     1       5.188   4.419  17.856  0.00  0.00    +0.000 A 
ATOM      2  N   UNL     1       5.900   5.538  18.125  0.00  0.00    +0.000 NA
ATOM      3  C   UNL     1       6.703   5.960  17.133  0.00  0.00    +0.000 A 
ATOM      4 CL   UNL     1       7.646   7.346  17.386  0.00  0.00    +0.000 Cl
ATOM      5  C   UNL     1       6.774   5.310  15.907  0.00  0.00    +0.000 A 
ATOM      6  N   UNL     1       7.479   5.506  14.736  0.00  0.00    +0.000 NA
ATOM      7  C   UNL     1       7.102   4.529  13.938  0.00  0.00    +0.000 A 
ATOM      8  N   UNL     1       6.174   3.716  14.530  0.00  0.00    +0.000 N 
ATOM      9  C   UNL     1       5.954   4.197  15.788  0.00  0.00    +0.000 A 
ATOM     10  N   UNL     1       5.121   3.691  16.709  0.00  0.00    +0.000 NA
ATOM     11  H   UNL     1       5.734   2.901  14.126  0.00  0.00    +0.000 HD
ENDROOT
BRANCH   1  12
ATOM     12  S   UNL     1       4.103   3.836  19.196  0.00  0.00    +0.000 S 
ATOM     13  O   UNL     1       3.667   4.986  19.966  0.00  0.00    +0.000 OA
ATOM     14  O   UNL     1       4.766   2.727  19.858  0.00  0.00    +0.000 OA
BRANCH  12  16
ATOM     15  C   UNL     1       2.108   2.016  19.002  0.00  0.00    +0.000 C 
ATOM     16  N   UNL     1       2.730   3.196  18.377  0.00  0.00    +0.000 NA
ATOM     17  C   UNL     1       1.757   4.195  17.901  0.00  0.00    +0.000 C 
ENDBRANCH  12  16
ENDBRANCH   1  12
TORSDOF 2
ENDMDL
MODEL 3
REMARK VINA RESULT:      -6.8      1.960      2.696
REMARK  Name = 
REMARK  4 active torsions:
REMARK  status: ('A' for Active; 'I' for Inactive)
REMARK    1  A    between atoms: C_1  and  N_2
REMARK    2  A    between atoms: N_2  and  C_3
REMARK    3  A    between atoms: N_2  and  S_4
REMARK    4  A    between atoms: S_4  and  C_7
REMARK                            x       y       z     vdW  Elec       q    Type
REMARK                         _______ _______ _______ _____ _____    ______ ____
ROOT
ATOM      1  C   UNL     1       3.862   3.779  18.225  0.00  0.00    +0.000 A 
ATOM      2  N   UNL     1       4.091   3.786  16.892  0.00  0.00    +0.000 NA
ATOM      3  C   UNL     1       5.263   4.326  16.513  0.00  0.00    +0.000 A 
ATOM      4 CL   UNL     1       5.630   4.393  14.860  0.00  0.00    +0.000 Cl
ATOM      5  C   UNL     1       6.187   4.815  17.429  0.00  0.00    +0.000 A 
ATOM      6  N   UNL     1       7.433   5.400  17.342  0.00  0.00    +0.000 NA
ATOM      7  C   UNL     1       7.789   5.645  18.586  0.00  0.00    +0.000 A 
ATOM      8  N   UNL     1       6.837   5.232  19.479  0.00  0.00    +0.000 N 
ATOM      9  C   UNL     1       5.806   4.701  18.758  0.00  0.00    +0.000 A 
ATOM     10  N   UNL     1       4.668   4.185  19.244  0.00  0.00    +0.000 NA
ATOM     11  H   UNL     1       6.873   5.309  20.485  0.00  0.00    +0.000 HD
ENDROOT
BRANCH   1  12
ATOM     12  S   UNL     1       2.275   3.057  18.747  0.00  0.00    +0.000 S 
ATOM     13  O   UNL     1       2.430   1.617  18.827  0.00  0.00    +0.000 OA
ATOM     14  O   UNL     1       1.229   3.630  17.918  0.00  0.00    +0.000 OA
BRANCH  12  16
ATOM     15  C   UNL     1       1.422   4.987  20.443  0.00  0.00    +0.000 C 
ATOM     16  N   UNL     1       2.046   3.656  20.345  0.00  0.00    +0.000 NA
ATOM     17  C   UNL     1       1.513   2.681  21.314  0.00  0.00    +0.000 C 
ENDBRANCH  12  16
ENDBRANCH   1  12
TORSDOF 2
ENDMDL
MODEL 4
REMARK VINA RESULT:      -6.8      1.608      2.375
REMARK  Name = 
REMARK  4 active torsions:
REMARK  status: ('A' for Active; 'I' for Inactive)
REMARK    1  A    between atoms: C_1  and  N_2
REMARK    2  A    between atoms: N_2  and  C_3
REMARK    3  A    between atoms: N_2  and  S_4
REMARK    4  A    between atoms: S_4  and  C_7
REMARK                            x       y       z     vdW  Elec       q    Type
REMARK                         _______ _______ _______ _____ _____    ______ ____
ROOT
ATOM      1  C   UNL     1       5.010   3.705  18.491  0.00  0.00    +0.000 A 
ATOM      2  N   UNL     1       4.835   3.669  17.149  0.00  0.00    +0.000 NA
ATOM      3  C   UNL     1       5.545   4.573  16.453  0.00  0.00    +0.000 A 
ATOM      4 CL   UNL     1       5.377   4.613  14.766  0.00  0.00    +0.000 Cl
ATOM      5  C   UNL     1       6.422   5.461  17.065  0.00  0.00    +0.000 A 
ATOM      6  N   UNL     1       7.262   6.464  16.625  0.00  0.00    +0.000 NA
ATOM      7  C   UNL     1       7.827   6.944  17.713  0.00  0.00    +0.000 A 
ATOM      8  N   UNL     1       7.404   6.290  18.838  0.00  0.00    +0.000 N 
ATOM      9  C   UNL     1       6.505   5.341  18.444  0.00  0.00    +0.000 A 
ATOM     10  N   UNL     1       5.844   4.482  19.234  0.00  0.00    +0.000 NA
ATOM     11  H   UNL     1       7.688   6.472  19.790  0.00  0.00    +0.000 HD
ENDROOT
BRANCH   1  12
ATOM     12  S   UNL     1       4.046   2.489  19.443  0.00  0.00    +0.000 S 
ATOM     13  O   UNL     1       4.905   1.920  20.463  0.00  0.00    +0.000 OA
ATOM     14  O   UNL     1       3.364   1.621  18.499  0.00  0.00    +0.000 OA
BRANCH  12  16
ATOM     15  C   UNL     1       1.773   3.958  19.362  0.00  0.00    +0.000 C 
ATOM     16  N   UNL     1       2.841   3.434  20.231  0.00  0.00    +0.000 NA
ATOM     17  C   UNL     1       2.350   2.890  21.510  0.00  0.00    +0.000 C 
ENDBRANCH  12  16
ENDBRANCH   1  12
TORSDOF 2
ENDMDL
MODEL 5
REMARK VINA RESULT:      -6.6      3.107      5.112
REMARK  Name = 
REMARK  4 active torsions:
REMARK  status: ('A' for Active; 'I' for Inactive)
REMARK    1  A    between atoms: C_1  and  N_2
REMARK    2  A    between atoms: N_2  and  C_3
REMARK    3  A    between atoms: N_2  and  S_4
REMARK    4  A    between atoms: S_4  and  C_7
REMARK                            x       y       z     vdW  Elec       q    Type
REMARK                         _______ _______ _______ _____ _____    ______ ____
ROOT
ATOM      1  C   UNL     1       4.769   4.633  18.910  0.00  0.00    +0.000 A 
ATOM      2  N   UNL     1       3.996   5.479  19.629  0.00  0.00    +0.000 NA
ATOM      3  C   UNL     1       2.726   5.079  19.816  0.00  0.00    +0.000 A 
ATOM      4 CL   UNL     1       1.679   6.084  20.691  0.00  0.00    +0.000 Cl
ATOM      5  C   UNL     1       2.250   3.867  19.331  0.00  0.00    +0.000 A 
ATOM      6  N   UNL     1       1.038   3.207  19.369  0.00  0.00    +0.000 NA
ATOM      7  C   UNL     1       1.234   2.084  18.710  0.00  0.00    +0.000 A 
ATOM      8  N   UNL     1       2.521   1.977  18.258  0.00  0.00    +0.000 N 
ATOM      9  C   UNL     1       3.184   3.107  18.643  0.00  0.00    +0.000 A 
ATOM     10  N   UNL     1       4.468   3.409  18.398  0.00  0.00    +0.000 NA
ATOM     11  H   UNL     1       2.917   1.214  17.727  0.00  0.00    +0.000 HD
ENDROOT
BRANCH   1  12
ATOM     12  S   UNL     1       6.488   5.170  18.646  0.00  0.00    +0.000 S 
ATOM     13  O   UNL     1       7.149   4.193  17.802  0.00  0.00    +0.000 OA
ATOM     14  O   UNL     1       7.053   5.514  19.939  0.00  0.00    +0.000 OA
BRANCH  12  16
ATOM     15  C   UNL     1       7.580   7.405  17.575  0.00  0.00    +0.000 C 
ATOM     16  N   UNL     1       6.338   6.632  17.748  0.00  0.00    +0.000 NA
ATOM     17  C   UNL     1       5.525   6.538  16.522  0.00  0.00    +0.000 C 
ENDBRANCH  12  16
ENDBRANCH   1  12
TORSDOF 2
ENDMDL
MODEL 6
REMARK VINA RESULT:      -6.6      1.944      2.749
REMARK  Name = 
REMARK  4 active torsions:
REMARK  status: ('A' for Active; 'I' for Inactive)
REMARK    1  A    between atoms: C_1  and  N_2
REMARK    2  A    between atoms: N_2  and  C_3
REMARK    3  A    between atoms: N_2  and  S_4
REMARK    4  A    between atoms: S_4  and  C_7
REMARK                            x       y       z     vdW  Elec       q    Type
REMARK                         _______ _______ _______ _____ _____    ______ ____
ROOT
ATOM      1  C   UNL     1       4.273   3.994  18.225  0.00  0.00    +0.000 A 
ATOM      2  N   UNL     1       4.152   4.741  17.104  0.00  0.00    +0.000 NA
ATOM      3  C   UNL     1       5.123   5.651  16.912  0.00  0.00    +0.000 A 
ATOM      4 CL   UNL     1       5.046   6.644  15.541  0.00  0.00    +0.000 Cl
ATOM      5  C   UNL     1       6.192   5.793  17.789  0.00  0.00    +0.000 A 
ATOM      6  N   UNL     1       7.305   6.607  17.850  0.00  0.00    +0.000 NA
ATOM      7  C   UNL     1       7.938   6.248  18.947  0.00  0.00    +0.000 A 
ATOM      8  N   UNL     1       7.295   5.228  19.595  0.00  0.00    +0.000 N 
ATOM      9  C   UNL     1       6.178   4.925  18.871  0.00  0.00    +0.000 A 
ATOM     10  N   UNL     1       5.263   3.987  19.159  0.00  0.00    +0.000 NA
ATOM     11  H   UNL     1       7.579   4.780  20.455  0.00  0.00    +0.000 HD
ENDROOT
BRANCH   1  12
ATOM     12  S   UNL     1       2.958   2.764  18.497  0.00  0.00    +0.000 S 
ATOM     13  O   UNL     1       3.579   1.489  18.797  0.00  0.00    +0.000 OA
ATOM     14  O   UNL     1       2.011   2.873  17.401  0.00  0.00    +0.000 OA
BRANCH  12  16
ATOM     15  C   UNL     1       2.619   2.711  21.183  0.00  0.00    +0.000 C 
ATOM     16  N   UNL     1       2.158   3.313  19.920  0.00  0.00    +0.000 NA
ATOM     17  C   UNL     1       1.946   4.770  20.002  0.00  0.00    +0.000 C 
ENDBRANCH  12  16
ENDBRANCH   1  12
TORSDOF 2
ENDMDL
MODEL 7
REMARK VINA RESULT:      -6.6      3.027      5.421
REMARK  Name = 
REMARK  4 active torsions:
REMARK  status: ('A' for Active; 'I' for Inactive)
REMARK    1  A    between atoms: C_1  and  N_2
REMARK    2  A    between atoms: N_2  and  C_3
REMARK    3  A    between atoms: N_2  and  S_4
REMARK    4  A    between atoms: S_4  and  C_7
REMARK                            x       y       z     vdW  Elec       q    Type
REMARK                         _______ _______ _______ _____ _____    ______ ____
ROOT
ATOM      1  C   UNL     1       5.544   4.842  18.144  0.00  0.00    +0.000 A 
ATOM      2  N   UNL     1       5.131   3.610  17.768  0.00  0.00    +0.000 NA
ATOM      3  C   UNL     1       4.000   3.179  18.354  0.00  0.00    +0.000 A 
ATOM      4 CL   UNL     1       3.414   1.639  17.955  0.00  0.00    +0.000 Cl
ATOM      5  C   UNL     1       3.290   3.957  19.260  0.00  0.00    +0.000 A 
ATOM      6  N   UNL     1       2.133   3.791  19.994  0.00  0.00    +0.000 NA
ATOM      7  C   UNL     1       1.994   4.908  20.678  0.00  0.00    +0.000 A 
ATOM      8  N   UNL     1       2.999   5.797  20.412  0.00  0.00    +0.000 N 
ATOM      9  C   UNL     1       3.837   5.207  19.510  0.00  0.00    +0.000 A 
ATOM     10  N   UNL     1       4.953   5.734  18.986  0.00  0.00    +0.000 NA
ATOM     11  H   UNL     1       3.117   6.718  20.809  0.00  0.00    +0.000 HD
ENDROOT
BRANCH   1  12
ATOM     12  S   UNL     1       7.079   5.430  17.362  0.00  0.00    +0.000 S 
ATOM     13  O   UNL     1       8.020   4.328  17.314  0.00  0.00    +0.000 OA
ATOM     14  O   UNL     1       7.454   6.680  17.998  0.00  0.00    +0.000 OA
BRANCH  12  16
ATOM     15  C   UNL     1       6.895   4.754  14.746  0.00  0.00    +0.000 C 
ATOM     16  N   UNL     1       6.612   5.799  15.746  0.00  0.00    +0.000 NA
ATOM     17  C   UNL     1       5.278   6.411  15.599  0.00  0.00    +0.000 C 
ENDBRANCH  12  16
ENDBRANCH   1  12
TORSDOF 2
ENDMDL
MODEL 8
REMARK VINA RESULT:      -6.6      2.401      3.173
REMARK  Name = 
REMARK  4 active torsions:
REMARK  status: ('A' for Active; 'I' for Inactive)
REMARK    1  A    between atoms: C_1  and  N_2
REMARK    2  A    between atoms: N_2  and  C_3
REMARK    3  A    between atoms: N_2  and  S_4
REMARK    4  A    between atoms: S_4  and  C_7
REMARK                            x       y       z     vdW  Elec       q    Type
REMARK                         _______ _______ _______ _____ _____    ______ ____
ROOT
ATOM      1  C   UNL     1       3.719   4.397  18.141  0.00  0.00    +0.000 A 
ATOM      2  N   UNL     1       4.053   4.122  16.859  0.00  0.00    +0.000 NA
ATOM      3  C   UNL     1       5.348   4.306  16.550  0.00  0.00    +0.000 A 
ATOM      4 CL   UNL     1       5.856   4.002  14.961  0.00  0.00    +0.000 Cl
ATOM      5  C   UNL     1       6.284   4.721  17.489  0.00  0.00    +0.000 A 
ATOM      6  N   UNL     1       7.639   4.983  17.469  0.00  0.00    +0.000 NA
ATOM      7  C   UNL     1       7.940   5.350  18.697  0.00  0.00    +0.000 A 
ATOM      8  N   UNL     1       6.845   5.325  19.518  0.00  0.00    +0.000 N 
ATOM      9  C   UNL     1       5.779   4.928  18.764  0.00  0.00    +0.000 A 
ATOM     10  N   UNL     1       4.512   4.777  19.179  0.00  0.00    +0.000 NA
ATOM     11  H   UNL     1       6.816   5.564  20.500  0.00  0.00    +0.000 HD
ENDROOT
BRANCH   1  12
ATOM     12  S   UNL     1       1.966   4.157  18.566  0.00  0.00    +0.000 S 
ATOM     13  O   UNL     1       1.197   4.118  17.337  0.00  0.00    +0.000 OA
ATOM     14  O   UNL     1       1.624   5.110  19.607  0.00  0.00    +0.000 OA
BRANCH  12  16
ATOM     15  C   UNL     1       2.951   1.647  18.810  0.00  0.00    +0.000 C 
ATOM     16  N   UNL     1       1.916   2.588  19.273  0.00  0.00    +0.000 NA
ATOM     17  C   UNL     1       1.701   2.560  20.731  0.00  0.00    +0.000 C 
ENDBRANCH  12  16
ENDBRANCH   1  12
TORSDOF 2
ENDMDL
MODEL 9
REMARK VINA RESULT:      -6.6      3.271      5.138
REMARK  Name = 
REMARK  4 active torsions:
REMARK  status: ('A' for Active; 'I' for Inactive)
REMARK    1  A    between atoms: C_1  and  N_2
REMARK    2  A    between atoms: N_2  and  C_3
REMARK    3  A    between atoms: N_2  and  S_4
REMARK    4  A    between atoms: S_4  and  C_7
REMARK                            x       y       z     vdW  Elec       q    Type
REMARK                         _______ _______ _______ _____ _____    ______ ____
ROOT
ATOM      1  C   UNL     1       4.547   4.873  16.912  0.00  0.00    +0.000 A 
ATOM      2  N   UNL     1       4.067   5.795  17.778  0.00  0.00    +0.000 NA
ATOM      3  C   UNL     1       3.119   5.351  18.622  0.00  0.00    +0.000 A 
ATOM      4 CL   UNL     1       2.447   6.440  19.734  0.00  0.00    +0.000 Cl
ATOM      5  C   UNL     1       2.684   4.031  18.623  0.00  0.00    +0.000 A 
ATOM      6  N   UNL     1       1.761   3.307  19.351  0.00  0.00    +0.000 NA
ATOM      7  C   UNL     1       1.814   2.086  18.860  0.00  0.00    +0.000 A 
ATOM      8  N   UNL     1       2.740   1.980  17.857  0.00  0.00    +0.000 N 
ATOM      9  C   UNL     1       3.304   3.212  17.691  0.00  0.00    +0.000 A 
ATOM     10  N   UNL     1       4.254   3.549  16.806  0.00  0.00    +0.000 NA
ATOM     11  H   UNL     1       2.966   1.153  17.324  0.00  0.00    +0.000 HD
ENDROOT
BRANCH   1  12
ATOM     12  S   UNL     1       5.826   5.467  15.761  0.00  0.00    +0.000 S 
ATOM     13  O   UNL     1       5.415   6.759  15.246  0.00  0.00    +0.000 OA
ATOM     14  O   UNL     1       6.139   4.386  14.843  0.00  0.00    +0.000 OA
BRANCH  12  16
ATOM     15  C   UNL     1       7.322   7.039  17.381  0.00  0.00    +0.000 C 
ATOM     16  N   UNL     1       7.209   5.709  16.758  0.00  0.00    +0.000 NA
ATOM     17  C   UNL     1       7.528   4.598  17.674  0.00  0.00    +0.000 C 
ENDBRANCH  12  16
ENDBRANCH   1  12
TORSDOF 2
ENDMDL
