MODEL 1
REMARK VINA RESULT:      -8.7      0.000      0.000
REMARK  Name = 
REMARK  2 active torsions:
REMARK  status: ('A' for Active; 'I' for Inactive)
REMARK    1  A    between atoms: C_2  and  C_3
REMARK    2  A    between atoms: C_4  and  C_5
REMARK                            x       y       z     vdW  Elec       q    Type
REMARK                         _______ _______ _______ _____ _____    ______ ____
ROOT
ATOM      1  O   UNL     1       7.744   6.357  16.014  0.00  0.00    +0.000 OA
ATOM      2  C   UNL     1       7.355   6.479  17.174  0.00  0.00    +0.000 C 
ATOM      3  N   UNL     1       6.396   5.675  17.751  0.00  0.00    +0.000 N 
ATOM      4  C   UNL     1       5.793   5.860  19.085  0.00  0.00    +0.000 C 
ATOM      5  C   UNL     1       4.250   5.903  19.011  0.00  0.00    +0.000 C 
ATOM      6  N   UNL     1       3.805   4.705  18.298  0.00  0.00    +0.000 N 
ATOM      7  C   UNL     1       2.755   3.967  18.785  0.00  0.00    +0.000 A 
ATOM      8  C   UNL     1       2.664   2.601  18.514  0.00  0.00    +0.000 A 
ATOM      9  C   UNL     1       1.646   1.838  19.086  0.00  0.00    +0.000 A 
ATOM     10  C   UNL     1       0.717   2.460  19.901  0.00  0.00    +0.000 A 
ATOM     11  C   UNL     1       0.859   3.817  20.119  0.00  0.00    +0.000 A 
ATOM     12  N   UNL     1       1.858   4.565  19.598  0.00  0.00    +0.000 NA
ATOM     13  C   UNL     1       4.314   4.574  16.932  0.00  0.00    +0.000 C 
ATOM     14  C   UNL     1       5.851   4.545  16.975  0.00  0.00    +0.000 C 
ENDROOT
BRANCH   2  15
ATOM     15  C   UNL     1       7.930   7.541  18.031  0.00  0.00    +0.000 C 
ATOM     16  C   UNL     1       7.969   8.798  17.567  0.00  0.00    +0.000 C 
BRANCH  16  17
ATOM     17  C   UNL     1       8.555   9.935  18.291  0.00  0.00    +0.000 A 
ATOM     18  C   UNL     1       9.188   9.782  19.535  0.00  0.00    +0.000 A 
ATOM     19  C   UNL     1       9.789  10.871  20.174  0.00  0.00    +0.000 A 
ATOM     20  C   UNL     1       9.770  12.126  19.571  0.00  0.00    +0.000 A 
ATOM     21  C   UNL     1       9.153  12.278  18.337  0.00  0.00    +0.000 A 
ATOM     22  F   UNL     1       9.143  13.484  17.751  0.00  0.00    +0.000 F 
ATOM     23  C   UNL     1       8.551  11.201  17.692  0.00  0.00    +0.000 A 
ENDBRANCH  16  17
ENDBRANCH   2  15
TORSDOF 2
ENDMDL
MODEL 2
REMARK VINA RESULT:      -8.2      1.078      1.414
REMARK  Name = 
REMARK  2 active torsions:
REMARK  status: ('A' for Active; 'I' for Inactive)
REMARK    1  A    between atoms: C_2  and  C_3
REMARK    2  A    between atoms: C_4  and  C_5
REMARK                            x       y       z     vdW  Elec       q    Type
REMARK                         _______ _______ _______ _____ _____    ______ ____
ROOT
ATOM      1  O   UNL     1       7.715   6.426  16.059  0.00  0.00    +0.000 OA
ATOM      2  C   UNL     1       7.371   6.509  17.237  0.00  0.00    +0.000 C 
ATOM      3  N   UNL     1       6.411   5.706  17.814  0.00  0.00    +0.000 N 
ATOM      4  C   UNL     1       5.861   5.849  19.175  0.00  0.00    +0.000 C 
ATOM      5  C   UNL     1       4.318   5.936  19.160  0.00  0.00    +0.000 C 
ATOM      6  N   UNL     1       3.815   4.782  18.415  0.00  0.00    +0.000 N 
ATOM      7  C   UNL     1       2.762   4.052  18.908  0.00  0.00    +0.000 A 
ATOM      8  C   UNL     1       2.623   2.702  18.584  0.00  0.00    +0.000 A 
ATOM      9  C   UNL     1       1.606   1.942  19.160  0.00  0.00    +0.000 A 
ATOM     10  C   UNL     1       0.724   2.553  20.034  0.00  0.00    +0.000 A 
ATOM     11  C   UNL     1       0.912   3.894  20.303  0.00  0.00    +0.000 A 
ATOM     12  N   UNL     1       1.913   4.638  19.778  0.00  0.00    +0.000 NA
ATOM     13  C   UNL     1       4.271   4.696  17.026  0.00  0.00    +0.000 C 
ATOM     14  C   UNL     1       5.807   4.625  17.012  0.00  0.00    +0.000 C 
ENDROOT
BRANCH   2  15
ATOM     15  C   UNL     1       8.005   7.517  18.116  0.00  0.00    +0.000 C 
ATOM     16  C   UNL     1       8.202   8.756  17.644  0.00  0.00    +0.000 C 
BRANCH  16  17
ATOM     17  C   UNL     1       8.862   9.836  18.391  0.00  0.00    +0.000 A 
ATOM     18  C   UNL     1       9.498  10.910  17.747  0.00  0.00    +0.000 A 
ATOM     19  C   UNL     1      10.067  11.954  18.483  0.00  0.00    +0.000 A 
ATOM     20  C   UNL     1       9.998  11.941  19.873  0.00  0.00    +0.000 A 
ATOM     21  C   UNL     1       9.362  10.885  20.513  0.00  0.00    +0.000 A 
ATOM     22  F   UNL     1       9.287  10.876  21.851  0.00  0.00    +0.000 F 
ATOM     23  C   UNL     1       8.793   9.840  19.790  0.00  0.00    +0.000 A 
ENDBRANCH  16  17
ENDBRANCH   2  15
TORSDOF 2
ENDMDL
MODEL 3
REMARK VINA RESULT:      -8.1      4.575      6.674
REMARK  Name = 
REMARK  2 active torsions:
REMARK  status: ('A' for Active; 'I' for Inactive)
REMARK    1  A    between atoms: C_2  and  C_3
REMARK    2  A    between atoms: C_4  and  C_5
REMARK                            x       y       z     vdW  Elec       q    Type
REMARK                         _______ _______ _______ _____ _____    ______ ____
ROOT
ATOM      1  O   UNL     1       4.425   2.925  18.301  0.00  0.00    +0.000 OA
ATOM      2  C   UNL     1       4.672   4.079  17.957  0.00  0.00    +0.000 C 
ATOM      3  N   UNL     1       4.183   5.194  18.603  0.00  0.00    +0.000 N 
ATOM      4  C   UNL     1       4.332   6.592  18.158  0.00  0.00    +0.000 C 
ATOM      5  C   UNL     1       2.965   7.307  18.062  0.00  0.00    +0.000 C 
ATOM      6  N   UNL     1       2.285   7.142  19.347  0.00  0.00    +0.000 N 
ATOM      7  C   UNL     1       1.669   8.216  19.941  0.00  0.00    +0.000 A 
ATOM      8  C   UNL     1       1.527   8.273  21.328  0.00  0.00    +0.000 A 
ATOM      9  C   UNL     1       0.984   9.406  21.932  0.00  0.00    +0.000 A 
ATOM     10  C   UNL     1       0.564  10.457  21.135  0.00  0.00    +0.000 A 
ATOM     11  C   UNL     1       0.724  10.331  19.769  0.00  0.00    +0.000 A 
ATOM     12  N   UNL     1       1.278   9.252  19.169  0.00  0.00    +0.000 NA
ATOM     13  C   UNL     1       2.037   5.754  19.742  0.00  0.00    +0.000 C 
ATOM     14  C   UNL     1       3.382   5.015  19.829  0.00  0.00    +0.000 C 
ENDROOT
BRANCH   2  15
ATOM     15  C   UNL     1       5.544   4.323  16.785  0.00  0.00    +0.000 C 
ATOM     16  C   UNL     1       5.132   3.920  15.576  0.00  0.00    +0.000 C 
BRANCH  16  17
ATOM     17  C   UNL     1       5.917   4.056  14.340  0.00  0.00    +0.000 A 
ATOM     18  C   UNL     1       5.533   3.438  13.139  0.00  0.00    +0.000 A 
ATOM     19  C   UNL     1       6.266   3.633  11.964  0.00  0.00    +0.000 A 
ATOM     20  C   UNL     1       7.389   4.456  11.976  0.00  0.00    +0.000 A 
ATOM     21  C   UNL     1       7.766   5.075  13.161  0.00  0.00    +0.000 A 
ATOM     22  F   UNL     1       8.841   5.876  13.170  0.00  0.00    +0.000 F 
ATOM     23  C   UNL     1       7.043   4.888  14.336  0.00  0.00    +0.000 A 
ENDBRANCH  16  17
ENDBRANCH   2  15
TORSDOF 2
ENDMDL
MODEL 4
REMARK VINA RESULT:      -7.8      4.804      7.132
REMARK  Name = 
REMARK  2 active torsions:
REMARK  status: ('A' for Active; 'I' for Inactive)
REMARK    1  A    between atoms: C_2  and  C_3
REMARK    2  A    between atoms: C_4  and  C_5
REMARK                            x       y       z     vdW  Elec       q    Type
REMARK                         _______ _______ _______ _____ _____    ______ ____
ROOT
ATOM      1  O   UNL     1       3.038   3.982  19.707  0.00  0.00    +0.000 OA
ATOM      2  C   UNL     1       3.305   4.991  19.057  0.00  0.00    +0.000 C 
ATOM      3  N   UNL     1       3.810   4.967  17.775  0.00  0.00    +0.000 N 
ATOM      4  C   UNL     1       4.276   6.133  17.001  0.00  0.00    +0.000 C 
ATOM      5  C   UNL     1       5.716   5.929  16.478  0.00  0.00    +0.000 C 
ATOM      6  N   UNL     1       5.751   4.659  15.752  0.00  0.00    +0.000 N 
ATOM      7  C   UNL     1       6.375   4.582  14.531  0.00  0.00    +0.000 A 
ATOM      8  C   UNL     1       5.969   3.640  13.587  0.00  0.00    +0.000 A 
ATOM      9  C   UNL     1       6.543   3.626  12.316  0.00  0.00    +0.000 A 
ATOM     10  C   UNL     1       7.537   4.542  12.018  0.00  0.00    +0.000 A 
ATOM     11  C   UNL     1       7.899   5.440  13.003  0.00  0.00    +0.000 A 
ATOM     12  N   UNL     1       7.329   5.487  14.229  0.00  0.00    +0.000 NA
ATOM     13  C   UNL     1       5.394   3.483  16.547  0.00  0.00    +0.000 C 
ATOM     14  C   UNL     1       3.969   3.667  17.095  0.00  0.00    +0.000 C 
ENDROOT
BRANCH   2  15
ATOM     15  C   UNL     1       3.083   6.327  19.655  0.00  0.00    +0.000 C 
ATOM     16  C   UNL     1       1.832   6.802  19.734  0.00  0.00    +0.000 C 
BRANCH  16  17
ATOM     17  C   UNL     1       1.477   8.128  20.259  0.00  0.00    +0.000 A 
ATOM     18  C   UNL     1       1.316   9.244  19.422  0.00  0.00    +0.000 A 
ATOM     19  C   UNL     1       0.920  10.481  19.940  0.00  0.00    +0.000 A 
ATOM     20  C   UNL     1       0.670  10.613  21.303  0.00  0.00    +0.000 A 
ATOM     21  C   UNL     1       0.819   9.509  22.133  0.00  0.00    +0.000 A 
ATOM     22  F   UNL     1       0.570   9.633  23.443  0.00  0.00    +0.000 F 
ATOM     23  C   UNL     1       1.214   8.274  21.627  0.00  0.00    +0.000 A 
ENDBRANCH  16  17
ENDBRANCH   2  15
TORSDOF 2
ENDMDL
MODEL 5
REMARK VINA RESULT:      -7.7      5.001      6.992
REMARK  Name = 
REMARK  2 active torsions:
REMARK  status: ('A' for Active; 'I' for Inactive)
REMARK    1  A    between atoms: C_2  and  C_3
REMARK    2  A    between atoms: C_4  and  C_5
REMARK                            x       y       z     vdW  Elec       q    Type
REMARK                         _______ _______ _______ _____ _____    ______ ____
ROOT
ATOM      1  O   UNL     1       4.470   3.096  18.506  0.00  0.00    +0.000 OA
ATOM      2  C   UNL     1       4.664   4.247  18.122  0.00  0.00    +0.000 C 
ATOM      3  N   UNL     1       4.145   5.362  18.744  0.00  0.00    +0.000 N 
ATOM      4  C   UNL     1       4.228   6.750  18.253  0.00  0.00    +0.000 C 
ATOM      5  C   UNL     1       2.831   7.407  18.168  0.00  0.00    +0.000 C 
ATOM      6  N   UNL     1       2.188   7.257  19.473  0.00  0.00    +0.000 N 
ATOM      7  C   UNL     1       1.542   8.324  20.047  0.00  0.00    +0.000 A 
ATOM      8  C   UNL     1       1.429   8.419  21.435  0.00  0.00    +0.000 A 
ATOM      9  C   UNL     1       0.854   9.548  22.016  0.00  0.00    +0.000 A 
ATOM     10  C   UNL     1       0.376  10.556  21.198  0.00  0.00    +0.000 A 
ATOM     11  C   UNL     1       0.510  10.393  19.833  0.00  0.00    +0.000 A 
ATOM     12  N   UNL     1       1.093   9.319  19.254  0.00  0.00    +0.000 NA
ATOM     13  C   UNL     1       2.004   5.873  19.916  0.00  0.00    +0.000 C 
ATOM     14  C   UNL     1       3.380   5.190  19.994  0.00  0.00    +0.000 C 
ENDROOT
BRANCH   2  15
ATOM     15  C   UNL     1       5.499   4.488  16.923  0.00  0.00    +0.000 C 
ATOM     16  C   UNL     1       5.072   4.038  15.735  0.00  0.00    +0.000 C 
BRANCH  16  17
ATOM     17  C   UNL     1       5.823   4.166  14.478  0.00  0.00    +0.000 A 
ATOM     18  C   UNL     1       6.921   5.031  14.347  0.00  0.00    +0.000 A 
ATOM     19  C   UNL     1       7.654   5.089  13.158  0.00  0.00    +0.000 A 
ATOM     20  C   UNL     1       7.301   4.274  12.086  0.00  0.00    +0.000 A 
ATOM     21  C   UNL     1       6.221   3.410  12.215  0.00  0.00    +0.000 A 
ATOM     22  F   UNL     1       5.887   2.619  11.186  0.00  0.00    +0.000 F 
ATOM     23  C   UNL     1       5.484   3.345  13.394  0.00  0.00    +0.000 A 
ENDBRANCH  16  17
ENDBRANCH   2  15
TORSDOF 2
ENDMDL
MODEL 6
REMARK VINA RESULT:      -7.5      4.648      7.181
REMARK  Name = 
REMARK  2 active torsions:
REMARK  status: ('A' for Active; 'I' for Inactive)
REMARK    1  A    between atoms: C_2  and  C_3
REMARK    2  A    between atoms: C_4  and  C_5
REMARK                            x       y       z     vdW  Elec       q    Type
REMARK                         _______ _______ _______ _____ _____    ______ ____
ROOT
ATOM      1  O   UNL     1       1.867   5.076  20.878  0.00  0.00    +0.000 OA
ATOM      2  C   UNL     1       2.155   5.970  20.085  0.00  0.00    +0.000 C 
ATOM      3  N   UNL     1       2.772   5.751  18.872  0.00  0.00    +0.000 N 
ATOM      4  C   UNL     1       3.263   6.789  17.946  0.00  0.00    +0.000 C 
ATOM      5  C   UNL     1       4.750   6.571  17.585  0.00  0.00    +0.000 C 
ATOM      6  N   UNL     1       4.894   5.199  17.098  0.00  0.00    +0.000 N 
ATOM      7  C   UNL     1       5.626   4.945  15.965  0.00  0.00    +0.000 A 
ATOM      8  C   UNL     1       5.339   3.834  15.171  0.00  0.00    +0.000 A 
ATOM      9  C   UNL     1       6.024   3.631  13.973  0.00  0.00    +0.000 A 
ATOM     10  C   UNL     1       7.006   4.531  13.600  0.00  0.00    +0.000 A 
ATOM     11  C   UNL     1       7.248   5.603  14.438  0.00  0.00    +0.000 A 
ATOM     12  N   UNL     1       6.571   5.831  15.586  0.00  0.00    +0.000 NA
ATOM     13  C   UNL     1       4.510   4.160  18.056  0.00  0.00    +0.000 C 
ATOM     14  C   UNL     1       3.037   4.364  18.446  0.00  0.00    +0.000 C 
ENDROOT
BRANCH   2  15
ATOM     15  C   UNL     1       1.833   7.376  20.418  0.00  0.00    +0.000 C 
ATOM     16  C   UNL     1       0.750   7.634  21.164  0.00  0.00    +0.000 C 
BRANCH  16  17
ATOM     17  C   UNL     1       0.290   8.982  21.526  0.00  0.00    +0.000 A 
ATOM     18  C   UNL     1      -0.418   9.237  22.712  0.00  0.00    +0.000 A 
ATOM     19  C   UNL     1      -0.791  10.539  23.060  0.00  0.00    +0.000 A 
ATOM     20  C   UNL     1      -0.453  11.603  22.230  0.00  0.00    +0.000 A 
ATOM     21  C   UNL     1       0.255  11.355  21.061  0.00  0.00    +0.000 A 
ATOM     22  F   UNL     1       0.590  12.381  20.266  0.00  0.00    +0.000 F 
ATOM     23  C   UNL     1       0.632  10.064  20.704  0.00  0.00    +0.000 A 
ENDBRANCH  16  17
ENDBRANCH   2  15
TORSDOF 2
ENDMDL
MODEL 7
REMARK VINA RESULT:      -7.4      4.619      6.930
REMARK  Name = 
REMARK  2 active torsions:
REMARK  status: ('A' for Active; 'I' for Inactive)
REMARK    1  A    between atoms: C_2  and  C_3
REMARK    2  A    between atoms: C_4  and  C_5
REMARK                            x       y       z     vdW  Elec       q    Type
REMARK                         _______ _______ _______ _____ _____    ______ ____
ROOT
ATOM      1  O   UNL     1       2.978   4.310  19.669  0.00  0.00    +0.000 OA
ATOM      2  C   UNL     1       3.220   5.272  18.943  0.00  0.00    +0.000 C 
ATOM      3  N   UNL     1       3.726   5.162  17.665  0.00  0.00    +0.000 N 
ATOM      4  C   UNL     1       4.164   6.276  16.803  0.00  0.00    +0.000 C 
ATOM      5  C   UNL     1       5.608   6.068  16.295  0.00  0.00    +0.000 C 
ATOM      6  N   UNL     1       5.675   4.748  15.669  0.00  0.00    +0.000 N 
ATOM      7  C   UNL     1       6.301   4.592  14.457  0.00  0.00    +0.000 A 
ATOM      8  C   UNL     1       5.919   3.570  13.589  0.00  0.00    +0.000 A 
ATOM      9  C   UNL     1       6.494   3.473  12.322  0.00  0.00    +0.000 A 
ATOM     10  C   UNL     1       7.465   4.387  11.953  0.00  0.00    +0.000 A 
ATOM     11  C   UNL     1       7.804   5.367  12.865  0.00  0.00    +0.000 A 
ATOM     12  N   UNL     1       7.233   5.495  14.084  0.00  0.00    +0.000 NA
ATOM     13  C   UNL     1       5.347   3.627  16.553  0.00  0.00    +0.000 C 
ATOM     14  C   UNL     1       3.918   3.818  17.087  0.00  0.00    +0.000 C 
ENDROOT
BRANCH   2  15
ATOM     15  C   UNL     1       2.965   6.645  19.436  0.00  0.00    +0.000 C 
ATOM     16  C   UNL     1       1.753   6.943  19.924  0.00  0.00    +0.000 C 
BRANCH  16  17
ATOM     17  C   UNL     1       1.352   8.274  20.400  0.00  0.00    +0.000 A 
ATOM     18  C   UNL     1       1.172   8.558  21.764  0.00  0.00    +0.000 A 
ATOM     19  C   UNL     1       0.848   9.849  22.192  0.00  0.00    +0.000 A 
ATOM     20  C   UNL     1       0.708  10.874  21.262  0.00  0.00    +0.000 A 
ATOM     21  C   UNL     1       0.894  10.599  19.913  0.00  0.00    +0.000 A 
ATOM     22  F   UNL     1       0.768  11.588  19.017  0.00  0.00    +0.000 F 
ATOM     23  C   UNL     1       1.216   9.317  19.475  0.00  0.00    +0.000 A 
ENDBRANCH  16  17
ENDBRANCH   2  15
TORSDOF 2
ENDMDL
MODEL 8
REMARK VINA RESULT:      -7.4      4.959      7.435
REMARK  Name = 
REMARK  2 active torsions:
REMARK  status: ('A' for Active; 'I' for Inactive)
REMARK    1  A    between atoms: C_2  and  C_3
REMARK    2  A    between atoms: C_4  and  C_5
REMARK                            x       y       z     vdW  Elec       q    Type
REMARK                         _______ _______ _______ _____ _____    ______ ____
ROOT
ATOM      1  O   UNL     1       1.935   4.978  20.687  0.00  0.00    +0.000 OA
ATOM      2  C   UNL     1       2.274   5.892  19.938  0.00  0.00    +0.000 C 
ATOM      3  N   UNL     1       2.891   5.698  18.721  0.00  0.00    +0.000 N 
ATOM      4  C   UNL     1       3.442   6.751  17.847  0.00  0.00    +0.000 C 
ATOM      5  C   UNL     1       4.920   6.476  17.488  0.00  0.00    +0.000 C 
ATOM      6  N   UNL     1       5.001   5.122  16.940  0.00  0.00    +0.000 N 
ATOM      7  C   UNL     1       5.730   4.884  15.802  0.00  0.00    +0.000 A 
ATOM      8  C   UNL     1       5.397   3.826  14.955  0.00  0.00    +0.000 A 
ATOM      9  C   UNL     1       6.082   3.644  13.755  0.00  0.00    +0.000 A 
ATOM     10  C   UNL     1       7.112   4.510  13.431  0.00  0.00    +0.000 A 
ATOM     11  C   UNL     1       7.398   5.529  14.319  0.00  0.00    +0.000 A 
ATOM     12  N   UNL     1       6.722   5.738  15.471  0.00  0.00    +0.000 NA
ATOM     13  C   UNL     1       4.557   4.061  17.846  0.00  0.00    +0.000 C 
ATOM     14  C   UNL     1       3.091   4.320  18.234  0.00  0.00    +0.000 C 
ENDROOT
BRANCH   2  15
ATOM     15  C   UNL     1       2.019   7.295  20.334  0.00  0.00    +0.000 C 
ATOM     16  C   UNL     1       0.817   7.621  20.828  0.00  0.00    +0.000 C 
BRANCH  16  17
ATOM     17  C   UNL     1       0.416   8.982  21.213  0.00  0.00    +0.000 A 
ATOM     18  C   UNL     1       0.848  10.117  20.507  0.00  0.00    +0.000 A 
ATOM     19  C   UNL     1       0.403  11.395  20.859  0.00  0.00    +0.000 A 
ATOM     20  C   UNL     1      -0.487  11.552  21.917  0.00  0.00    +0.000 A 
ATOM     21  C   UNL     1      -0.923  10.431  22.612  0.00  0.00    +0.000 A 
ATOM     22  F   UNL     1      -1.787  10.581  23.625  0.00  0.00    +0.000 F 
ATOM     23  C   UNL     1      -0.486   9.154  22.270  0.00  0.00    +0.000 A 
ENDBRANCH  16  17
ENDBRANCH   2  15
TORSDOF 2
ENDMDL
MODEL 9
REMARK VINA RESULT:      -7.3      7.028      9.200
REMARK  Name = 
REMARK  2 active torsions:
REMARK  status: ('A' for Active; 'I' for Inactive)
REMARK    1  A    between atoms: C_2  and  C_3
REMARK    2  A    between atoms: C_4  and  C_5
REMARK                            x       y       z     vdW  Elec       q    Type
REMARK                         _______ _______ _______ _____ _____    ______ ____
ROOT
ATOM      1  O   UNL     1       2.171  10.033  17.599  0.00  0.00    +0.000 OA
ATOM      2  C   UNL     1       1.580   9.428  18.491  0.00  0.00    +0.000 C 
ATOM      3  N   UNL     1       0.471   9.919  19.146  0.00  0.00    +0.000 N 
ATOM      4  C   UNL     1      -0.194   9.304  20.311  0.00  0.00    +0.000 C 
ATOM      5  C   UNL     1      -0.324  10.302  21.484  0.00  0.00    +0.000 C 
ATOM      6  N   UNL     1      -0.975  11.508  20.972  0.00  0.00    +0.000 N 
ATOM      7  C   UNL     1      -1.992  12.094  21.685  0.00  0.00    +0.000 A 
ATOM      8  C   UNL     1      -2.978  12.835  21.033  0.00  0.00    +0.000 A 
ATOM      9  C   UNL     1      -4.058  13.351  21.749  0.00  0.00    +0.000 A 
ATOM     10  C   UNL     1      -4.120  13.139  23.115  0.00  0.00    +0.000 A 
ATOM     11  C   UNL     1      -3.105  12.407  23.699  0.00  0.00    +0.000 A 
ATOM     12  N   UNL     1      -2.069  11.873  23.015  0.00  0.00    +0.000 NA
ATOM     13  C   UNL     1      -0.261  12.184  19.888  0.00  0.00    +0.000 C 
ATOM     14  C   UNL     1      -0.103  11.206  18.712  0.00  0.00    +0.000 C 
ENDROOT
BRANCH   2  15
ATOM     15  C   UNL     1       2.057   8.090  18.910  0.00  0.00    +0.000 C 
ATOM     16  C   UNL     1       2.572   7.268  17.986  0.00  0.00    +0.000 C 
BRANCH  16  17
ATOM     17  C   UNL     1       3.036   5.899  18.256  0.00  0.00    +0.000 A 
ATOM     18  C   UNL     1       4.248   5.638  18.917  0.00  0.00    +0.000 A 
ATOM     19  C   UNL     1       4.636   4.328  19.213  0.00  0.00    +0.000 A 
ATOM     20  C   UNL     1       3.812   3.263  18.860  0.00  0.00    +0.000 A 
ATOM     21  C   UNL     1       2.609   3.519  18.215  0.00  0.00    +0.000 A 
ATOM     22  F   UNL     1       1.811   2.495  17.884  0.00  0.00    +0.000 F 
ATOM     23  C   UNL     1       2.213   4.819  17.914  0.00  0.00    +0.000 A 
ENDBRANCH  16  17
ENDBRANCH   2  15
TORSDOF 2
ENDMDL
