MODEL 1
REMARK VINA RESULT:      -8.7      0.000      0.000
REMARK  Name = 
REMARK  13 active torsions:
REMARK  status: ('A' for Active; 'I' for Inactive)
REMARK    1  A    between atoms: C_1  and  N_2
REMARK    2  A    between atoms: C_3  and  C_5
REMARK    3  A    between atoms: C_5  and  C_6
REMARK    4  A    between atoms: C_5  and  N_17
REMARK    5  A    between atoms: C_6  and  C_7
REMARK    6  A    between atoms: C_18  and  C_20
REMARK    7  A    between atoms: C_20  and  C_21
REMARK    8  A    between atoms: C_20  and  C_26
REMARK    9  A    between atoms: C_21  and  C_22
REMARK   10  A    between atoms: N_24  and  O_25
REMARK   11  A    between atoms: C_26  and  C_27
REMARK   12  A    between atoms: C_27  and  C_28
REMARK   13  A    between atoms: C_27  and  C_29
REMARK                            x       y       z     vdW  Elec       q    Type
REMARK                         _______ _______ _______ _____ _____    ______ ____
ROOT
ATOM      1  C   UNL     1       2.448   5.397  18.175  0.00  0.00    +0.000 C 
ENDROOT
BRANCH   1   4
ATOM      2  C   UNL     1       1.357   2.719  20.697  0.00  0.00    +0.000 C 
ATOM      3  N   UNL     1       1.921   3.885  20.059  0.00  0.00    +0.000 N 
ATOM      4  C   UNL     1       1.865   4.064  18.690  0.00  0.00    +0.000 C 
ATOM      5  O   UNL     1       1.316   3.264  17.932  0.00  0.00    +0.000 OA
ATOM      6  H   UNL     1       2.391   4.567  20.637  0.00  0.00    +0.000 HD
ENDBRANCH   1   4
BRANCH   1   7
ATOM      7  N   UNL     1       3.591   5.104  17.290  0.00  0.00    +0.000 N 
ATOM      8  C   UNL     1       4.659   4.375  17.739  0.00  0.00    +0.000 C 
ATOM      9  O   UNL     1       4.660   3.901  18.875  0.00  0.00    +0.000 OA
ATOM     10  H   UNL     1       3.665   5.713  16.484  0.00  0.00    +0.000 HD
BRANCH   8  11
ATOM     11  C   UNL     1       5.822   4.172  16.758  0.00  0.00    +0.000 C 
BRANCH  11  12
ATOM     12  C   UNL     1       5.473   4.907  15.450  0.00  0.00    +0.000 C 
BRANCH  12  13
ATOM     13  C   UNL     1       6.372   4.580  14.283  0.00  0.00    +0.000 C 
ATOM     14  O   UNL     1       7.297   5.309  13.923  0.00  0.00    +0.000 OA
ATOM     15  N   UNL     1       6.073   3.411  13.620  0.00  0.00    +0.000 N 
ATOM     16  H   UNL     1       5.119   3.067  13.567  0.00  0.00    +0.000 HD
BRANCH  15  17
ATOM     17  O   UNL     1       6.866   3.170  12.468  0.00  0.00    +0.000 OA
ATOM     18  H   UNL     1       6.190   2.953  11.786  0.00  0.00    +0.000 HD
ENDBRANCH  15  17
ENDBRANCH  12  13
ENDBRANCH  11  12
BRANCH  11  19
ATOM     19  C   UNL     1       7.162   4.706  17.344  0.00  0.00    +0.000 C 
BRANCH  19  20
ATOM     20  C   UNL     1       7.115   5.947  18.274  0.00  0.00    +0.000 C 
ATOM     21  C   UNL     1       7.964   5.811  19.537  0.00  0.00    +0.000 C 
ATOM     22  C   UNL     1       7.565   7.188  17.491  0.00  0.00    +0.000 C 
ENDBRANCH  19  20
ENDBRANCH  11  19
ENDBRANCH   8  11
ENDBRANCH   1   7
BRANCH   1  23
ATOM     23  C   UNL     1       2.779   6.443  19.266  0.00  0.00    +0.000 C 
BRANCH  23  24
ATOM     24  C   UNL     1       2.141   7.816  19.091  0.00  0.00    +0.000 A 
ATOM     25  C   UNL     1       2.373   8.454  17.855  0.00  0.00    +0.000 A 
ATOM     26  C   UNL     1       1.933   9.749  17.621  0.00  0.00    +0.000 A 
ATOM     27  C   UNL     1       1.273  10.440  18.627  0.00  0.00    +0.000 A 
ATOM     28  C   UNL     1       1.018   9.844  19.868  0.00  0.00    +0.000 A 
ATOM     29  C   UNL     1       0.400  10.603  20.872  0.00  0.00    +0.000 A 
ATOM     30  C   UNL     1       0.133  10.065  22.126  0.00  0.00    +0.000 A 
ATOM     31  C   UNL     1       0.413   8.726  22.359  0.00  0.00    +0.000 A 
ATOM     32  C   UNL     1       1.013   7.948  21.355  0.00  0.00    +0.000 A 
ATOM     33  C   UNL     1       1.396   8.494  20.108  0.00  0.00    +0.000 A 
ENDBRANCH  23  24
ENDBRANCH   1  23
TORSDOF 10
ENDMDL
MODEL 2
REMARK VINA RESULT:      -8.3      2.064      3.191
REMARK  Name = 
REMARK  13 active torsions:
REMARK  status: ('A' for Active; 'I' for Inactive)
REMARK    1  A    between atoms: C_1  and  N_2
REMARK    2  A    between atoms: C_3  and  C_5
REMARK    3  A    between atoms: C_5  and  C_6
REMARK    4  A    between atoms: C_5  and  N_17
REMARK    5  A    between atoms: C_6  and  C_7
REMARK    6  A    between atoms: C_18  and  C_20
REMARK    7  A    between atoms: C_20  and  C_21
REMARK    8  A    between atoms: C_20  and  C_26
REMARK    9  A    between atoms: C_21  and  C_22
REMARK   10  A    between atoms: N_24  and  O_25
REMARK   11  A    between atoms: C_26  and  C_27
REMARK   12  A    between atoms: C_27  and  C_28
REMARK   13  A    between atoms: C_27  and  C_29
REMARK                            x       y       z     vdW  Elec       q    Type
REMARK                         _______ _______ _______ _____ _____    ______ ____
ROOT
ATOM      1  C   UNL     1       2.840   5.799  18.116  0.00  0.00    +0.000 C 
ENDROOT
BRANCH   1   4
ATOM      2  C   UNL     1       0.779   3.012  19.760  0.00  0.00    +0.000 C 
ATOM      3  N   UNL     1       1.621   4.157  19.504  0.00  0.00    +0.000 N 
ATOM      4  C   UNL     1       2.001   4.508  18.224  0.00  0.00    +0.000 C 
ATOM      5  O   UNL     1       1.632   3.893  17.223  0.00  0.00    +0.000 OA
ATOM      6  H   UNL     1       1.958   4.689  20.294  0.00  0.00    +0.000 HD
ENDBRANCH   1   4
BRANCH   1   7
ATOM      7  N   UNL     1       4.212   5.441  17.709  0.00  0.00    +0.000 N 
ATOM      8  C   UNL     1       4.858   6.139  16.724  0.00  0.00    +0.000 C 
ATOM      9  O   UNL     1       4.327   7.117  16.198  0.00  0.00    +0.000 OA
ATOM     10  H   UNL     1       4.497   4.505  17.971  0.00  0.00    +0.000 HD
BRANCH   8  11
ATOM     11  C   UNL     1       6.261   5.653  16.337  0.00  0.00    +0.000 C 
BRANCH  11  12
ATOM     12  C   UNL     1       7.165   5.772  17.580  0.00  0.00    +0.000 C 
BRANCH  12  13
ATOM     13  C   UNL     1       7.706   7.157  17.837  0.00  0.00    +0.000 C 
ATOM     14  O   UNL     1       7.545   8.095  17.057  0.00  0.00    +0.000 OA
ATOM     15  N   UNL     1       8.421   7.301  19.005  0.00  0.00    +0.000 N 
ATOM     16  H   UNL     1       8.953   6.528  19.392  0.00  0.00    +0.000 HD
BRANCH  15  17
ATOM     17  O   UNL     1       9.005   8.583  19.180  0.00  0.00    +0.000 OA
ATOM     18  H   UNL     1       9.945   8.364  19.374  0.00  0.00    +0.000 HD
ENDBRANCH  15  17
ENDBRANCH  12  13
ENDBRANCH  11  12
BRANCH  11  19
ATOM     19  C   UNL     1       6.233   4.185  15.820  0.00  0.00    +0.000 C 
BRANCH  19  20
ATOM     20  C   UNL     1       6.478   3.933  14.308  0.00  0.00    +0.000 C 
ATOM     21  C   UNL     1       5.202   3.894  13.469  0.00  0.00    +0.000 C 
ATOM     22  C   UNL     1       7.415   5.016  13.756  0.00  0.00    +0.000 C 
ENDBRANCH  19  20
ENDBRANCH  11  19
ENDBRANCH   8  11
ENDBRANCH   1   7
BRANCH   1  23
ATOM     23  C   UNL     1       2.797   6.725  19.356  0.00  0.00    +0.000 C 
BRANCH  23  24
ATOM     24  C   UNL     1       2.061   8.047  19.178  0.00  0.00    +0.000 A 
ATOM     25  C   UNL     1       2.224   8.684  17.931  0.00  0.00    +0.000 A 
ATOM     26  C   UNL     1       1.688   9.942  17.692  0.00  0.00    +0.000 A 
ATOM     27  C   UNL     1       0.999  10.596  18.703  0.00  0.00    +0.000 A 
ATOM     28  C   UNL     1       0.810   9.999  19.955  0.00  0.00    +0.000 A 
ATOM     29  C   UNL     1       0.158  10.724  20.962  0.00  0.00    +0.000 A 
ATOM     30  C   UNL     1      -0.047  10.183  22.226  0.00  0.00    +0.000 A 
ATOM     31  C   UNL     1       0.332   8.870  22.468  0.00  0.00    +0.000 A 
ATOM     32  C   UNL     1       0.967   8.125  21.462  0.00  0.00    +0.000 A 
ATOM     33  C   UNL     1       1.288   8.681  20.201  0.00  0.00    +0.000 A 
ENDBRANCH  23  24
ENDBRANCH   1  23
TORSDOF 10
ENDMDL
MODEL 3
REMARK VINA RESULT:      -8.3      2.322      2.821
REMARK  Name = 
REMARK  13 active torsions:
REMARK  status: ('A' for Active; 'I' for Inactive)
REMARK    1  A    between atoms: C_1  and  N_2
REMARK    2  A    between atoms: C_3  and  C_5
REMARK    3  A    between atoms: C_5  and  C_6
REMARK    4  A    between atoms: C_5  and  N_17
REMARK    5  A    between atoms: C_6  and  C_7
REMARK    6  A    between atoms: C_18  and  C_20
REMARK    7  A    between atoms: C_20  and  C_21
REMARK    8  A    between atoms: C_20  and  C_26
REMARK    9  A    between atoms: C_21  and  C_22
REMARK   10  A    between atoms: N_24  and  O_25
REMARK   11  A    between atoms: C_26  and  C_27
REMARK   12  A    between atoms: C_27  and  C_28
REMARK   13  A    between atoms: C_27  and  C_29
REMARK                            x       y       z     vdW  Elec       q    Type
REMARK                         _______ _______ _______ _____ _____    ______ ____
ROOT
ATOM      1  C   UNL     1       2.105   6.017  19.820  0.00  0.00    +0.000 C 
ENDROOT
BRANCH   1   4
ATOM      2  C   UNL     1       0.811   2.524  18.899  0.00  0.00    +0.000 C 
ATOM      3  N   UNL     1       1.279   3.890  18.868  0.00  0.00    +0.000 N 
ATOM      4  C   UNL     1       1.541   4.594  20.027  0.00  0.00    +0.000 C 
ATOM      5  O   UNL     1       1.420   4.106  21.150  0.00  0.00    +0.000 OA
ATOM      6  H   UNL     1       1.386   4.339  17.970  0.00  0.00    +0.000 HD
ENDBRANCH   1   4
BRANCH   1   7
ATOM      7  N   UNL     1       3.564   5.925  19.622  0.00  0.00    +0.000 N 
ATOM      8  C   UNL     1       4.106   5.968  18.365  0.00  0.00    +0.000 C 
ATOM      9  O   UNL     1       3.390   6.141  17.379  0.00  0.00    +0.000 OA
ATOM     10  H   UNL     1       4.071   5.533  20.406  0.00  0.00    +0.000 HD
BRANCH   8  11
ATOM     11  C   UNL     1       5.629   5.810  18.263  0.00  0.00    +0.000 C 
BRANCH  11  12
ATOM     12  C   UNL     1       5.926   4.387  17.751  0.00  0.00    +0.000 C 
BRANCH  12  13
ATOM     13  C   UNL     1       5.131   3.295  18.426  0.00  0.00    +0.000 C 
ATOM     14  O   UNL     1       5.117   3.133  19.647  0.00  0.00    +0.000 OA
ATOM     15  N   UNL     1       4.434   2.465  17.578  0.00  0.00    +0.000 N 
ATOM     16  H   UNL     1       4.776   2.265  16.643  0.00  0.00    +0.000 HD
BRANCH  15  17
ATOM     17  O   UNL     1       3.774   1.387  18.223  0.00  0.00    +0.000 OA
ATOM     18  H   UNL     1       4.479   0.702  18.268  0.00  0.00    +0.000 HD
ENDBRANCH  15  17
ENDBRANCH  12  13
ENDBRANCH  11  12
BRANCH  11  19
ATOM     19  C   UNL     1       6.250   6.873  17.309  0.00  0.00    +0.000 C 
BRANCH  19  20
ATOM     20  C   UNL     1       7.698   7.356  17.589  0.00  0.00    +0.000 C 
ATOM     21  C   UNL     1       7.832   8.871  17.735  0.00  0.00    +0.000 C 
ATOM     22  C   UNL     1       8.226   6.675  18.859  0.00  0.00    +0.000 C 
ENDBRANCH  19  20
ENDBRANCH  11  19
ENDBRANCH   8  11
ENDBRANCH   1   7
BRANCH   1  23
ATOM     23  C   UNL     1       1.703   7.053  20.897  0.00  0.00    +0.000 C 
BRANCH  23  24
ATOM     24  C   UNL     1       1.196   8.393  20.378  0.00  0.00    +0.000 A 
ATOM     25  C   UNL     1       1.577   8.734  19.064  0.00  0.00    +0.000 A 
ATOM     26  C   UNL     1       1.264   9.973  18.523  0.00  0.00    +0.000 A 
ATOM     27  C   UNL     1       0.585  10.904  19.295  0.00  0.00    +0.000 A 
ATOM     28  C   UNL     1       0.183  10.608  20.603  0.00  0.00    +0.000 A 
ATOM     29  C   UNL     1      -0.448  11.602  21.362  0.00  0.00    +0.000 A 
ATOM     30  C   UNL     1      -0.857  11.366  22.670  0.00  0.00    +0.000 A 
ATOM     31  C   UNL     1      -0.707  10.093  23.203  0.00  0.00    +0.000 A 
ATOM     32  C   UNL     1      -0.095   9.081  22.447  0.00  0.00    +0.000 A 
ATOM     33  C   UNL     1       0.430   9.319  21.155  0.00  0.00    +0.000 A 
ENDBRANCH  23  24
ENDBRANCH   1  23
TORSDOF 10
ENDMDL
MODEL 4
REMARK VINA RESULT:      -8.1      1.118      1.391
REMARK  Name = 
REMARK  13 active torsions:
REMARK  status: ('A' for Active; 'I' for Inactive)
REMARK    1  A    between atoms: C_1  and  N_2
REMARK    2  A    between atoms: C_3  and  C_5
REMARK    3  A    between atoms: C_5  and  C_6
REMARK    4  A    between atoms: C_5  and  N_17
REMARK    5  A    between atoms: C_6  and  C_7
REMARK    6  A    between atoms: C_18  and  C_20
REMARK    7  A    between atoms: C_20  and  C_21
REMARK    8  A    between atoms: C_20  and  C_26
REMARK    9  A    between atoms: C_21  and  C_22
REMARK   10  A    between atoms: N_24  and  O_25
REMARK   11  A    between atoms: C_26  and  C_27
REMARK   12  A    between atoms: C_27  and  C_28
REMARK   13  A    between atoms: C_27  and  C_29
REMARK                            x       y       z     vdW  Elec       q    Type
REMARK                         _______ _______ _______ _____ _____    ______ ____
ROOT
ATOM      1  C   UNL     1       2.210   5.593  18.895  0.00  0.00    +0.000 C 
ENDROOT
BRANCH   1   4
ATOM      2  C   UNL     1       1.440   2.712  21.308  0.00  0.00    +0.000 C 
ATOM      3  N   UNL     1       1.652   4.008  20.707  0.00  0.00    +0.000 N 
ATOM      4  C   UNL     1       2.107   4.142  19.410  0.00  0.00    +0.000 C 
ATOM      5  O   UNL     1       2.337   3.180  18.678  0.00  0.00    +0.000 OA
ATOM      6  H   UNL     1       1.487   4.830  21.272  0.00  0.00    +0.000 HD
ENDBRANCH   1   4
BRANCH   1   7
ATOM      7  N   UNL     1       3.313   5.673  17.919  0.00  0.00    +0.000 N 
ATOM      8  C   UNL     1       4.619   5.651  18.332  0.00  0.00    +0.000 C 
ATOM      9  O   UNL     1       4.897   5.506  19.522  0.00  0.00    +0.000 OA
ATOM     10  H   UNL     1       3.049   6.043  17.015  0.00  0.00    +0.000 HD
BRANCH   8  11
ATOM     11  C   UNL     1       5.692   5.794  17.244  0.00  0.00    +0.000 C 
BRANCH  11  12
ATOM     12  C   UNL     1       5.044   5.449  15.890  0.00  0.00    +0.000 C 
BRANCH  12  13
ATOM     13  C   UNL     1       5.604   4.220  15.217  0.00  0.00    +0.000 C 
ATOM     14  O   UNL     1       5.990   3.231  15.840  0.00  0.00    +0.000 OA
ATOM     15  N   UNL     1       5.680   4.285  13.844  0.00  0.00    +0.000 N 
ATOM     16  H   UNL     1       5.829   5.169  13.368  0.00  0.00    +0.000 HD
BRANCH  15  17
ATOM     17  O   UNL     1       6.300   3.161  13.237  0.00  0.00    +0.000 OA
ATOM     18  H   UNL     1       5.920   3.173  12.329  0.00  0.00    +0.000 HD
ENDBRANCH  15  17
ENDBRANCH  12  13
ENDBRANCH  11  12
BRANCH  11  19
ATOM     19  C   UNL     1       6.285   7.233  17.216  0.00  0.00    +0.000 C 
BRANCH  19  20
ATOM     20  C   UNL     1       7.770   7.425  17.624  0.00  0.00    +0.000 C 
ATOM     21  C   UNL     1       8.139   8.865  17.976  0.00  0.00    +0.000 C 
ATOM     22  C   UNL     1       8.094   6.512  18.815  0.00  0.00    +0.000 C 
ENDBRANCH  19  20
ENDBRANCH  11  19
ENDBRANCH   8  11
ENDBRANCH   1   7
BRANCH   1  23
ATOM     23  C   UNL     1       2.289   6.683  19.991  0.00  0.00    +0.000 C 
BRANCH  23  24
ATOM     24  C   UNL     1       1.736   8.052  19.613  0.00  0.00    +0.000 A 
ATOM     25  C   UNL     1       2.067   8.521  18.326  0.00  0.00    +0.000 A 
ATOM     26  C   UNL     1       1.709   9.797  17.911  0.00  0.00    +0.000 A 
ATOM     27  C   UNL     1       1.035  10.636  18.786  0.00  0.00    +0.000 A 
ATOM     28  C   UNL     1       0.681  10.210  20.072  0.00  0.00    +0.000 A 
ATOM     29  C   UNL     1       0.052  11.115  20.938  0.00  0.00    +0.000 A 
ATOM     30  C   UNL     1      -0.310  10.749  22.230  0.00  0.00    +0.000 A 
ATOM     31  C   UNL     1      -0.115   9.437  22.639  0.00  0.00    +0.000 A 
ATOM     32  C   UNL     1       0.496   8.515  21.774  0.00  0.00    +0.000 A 
ATOM     33  C   UNL     1       0.975   8.883  20.495  0.00  0.00    +0.000 A 
ENDBRANCH  23  24
ENDBRANCH   1  23
TORSDOF 10
ENDMDL
MODEL 5
REMARK VINA RESULT:      -8.1      2.340      3.294
REMARK  Name = 
REMARK  13 active torsions:
REMARK  status: ('A' for Active; 'I' for Inactive)
REMARK    1  A    between atoms: C_1  and  N_2
REMARK    2  A    between atoms: C_3  and  C_5
REMARK    3  A    between atoms: C_5  and  C_6
REMARK    4  A    between atoms: C_5  and  N_17
REMARK    5  A    between atoms: C_6  and  C_7
REMARK    6  A    between atoms: C_18  and  C_20
REMARK    7  A    between atoms: C_20  and  C_21
REMARK    8  A    between atoms: C_20  and  C_26
REMARK    9  A    between atoms: C_21  and  C_22
REMARK   10  A    between atoms: N_24  and  O_25
REMARK   11  A    between atoms: C_26  and  C_27
REMARK   12  A    between atoms: C_27  and  C_28
REMARK   13  A    between atoms: C_27  and  C_29
REMARK                            x       y       z     vdW  Elec       q    Type
REMARK                         _______ _______ _______ _____ _____    ______ ____
ROOT
ATOM      1  C   UNL     1       2.258   6.038  19.850  0.00  0.00    +0.000 C 
ENDROOT
BRANCH   1   4
ATOM      2  C   UNL     1       0.724   2.522  19.795  0.00  0.00    +0.000 C 
ATOM      3  N   UNL     1       1.147   3.864  19.468  0.00  0.00    +0.000 N 
ATOM      4  C   UNL     1       1.811   4.659  20.381  0.00  0.00    +0.000 C 
ATOM      5  O   UNL     1       2.106   4.278  21.513  0.00  0.00    +0.000 OA
ATOM      6  H   UNL     1       0.920   4.227  18.553  0.00  0.00    +0.000 HD
ENDBRANCH   1   4
BRANCH   1   7
ATOM      7  N   UNL     1       3.639   5.926  19.343  0.00  0.00    +0.000 N 
ATOM      8  C   UNL     1       3.901   5.307  18.150  0.00  0.00    +0.000 C 
ATOM      9  O   UNL     1       2.982   4.881  17.450  0.00  0.00    +0.000 OA
ATOM     10  H   UNL     1       4.357   6.048  20.046  0.00  0.00    +0.000 HD
BRANCH   8  11
ATOM     11  C   UNL     1       5.375   5.194  17.737  0.00  0.00    +0.000 C 
BRANCH  11  12
ATOM     12  C   UNL     1       6.170   4.677  18.951  0.00  0.00    +0.000 C 
BRANCH  12  13
ATOM     13  C   UNL     1       7.292   5.579  19.402  0.00  0.00    +0.000 C 
ATOM     14  O   UNL     1       7.836   5.476  20.502  0.00  0.00    +0.000 OA
ATOM     15  N   UNL     1       7.659   6.555  18.503  0.00  0.00    +0.000 N 
ATOM     16  H   UNL     1       6.982   6.959  17.863  0.00  0.00    +0.000 HD
BRANCH  15  17
ATOM     17  O   UNL     1       8.646   7.455  18.983  0.00  0.00    +0.000 OA
ATOM     18  H   UNL     1       9.179   7.637  18.176  0.00  0.00    +0.000 HD
ENDBRANCH  15  17
ENDBRANCH  12  13
ENDBRANCH  11  12
BRANCH  11  19
ATOM     19  C   UNL     1       5.554   4.240  16.520  0.00  0.00    +0.000 C 
BRANCH  19  20
ATOM     20  C   UNL     1       6.053   4.844  15.180  0.00  0.00    +0.000 C 
ATOM     21  C   UNL     1       5.803   3.953  13.964  0.00  0.00    +0.000 C 
ATOM     22  C   UNL     1       5.386   6.208  14.955  0.00  0.00    +0.000 C 
ENDBRANCH  19  20
ENDBRANCH  11  19
ENDBRANCH   8  11
ENDBRANCH   1   7
BRANCH   1  23
ATOM     23  C   UNL     1       2.067   7.221  20.829  0.00  0.00    +0.000 C 
BRANCH  23  24
ATOM     24  C   UNL     1       1.343   8.440  20.271  0.00  0.00    +0.000 A 
ATOM     25  C   UNL     1       1.594   8.745  18.918  0.00  0.00    +0.000 A 
ATOM     26  C   UNL     1       1.075   9.890  18.330  0.00  0.00    +0.000 A 
ATOM     27  C   UNL     1       0.315  10.766  19.092  0.00  0.00    +0.000 A 
ATOM     28  C   UNL     1       0.037  10.501  20.439  0.00  0.00    +0.000 A 
ATOM     29  C   UNL     1      -0.687  11.445  21.181  0.00  0.00    +0.000 A 
ATOM     30  C   UNL     1      -0.981  11.238  22.524  0.00  0.00    +0.000 A 
ATOM     31  C   UNL     1      -0.619  10.037  23.117  0.00  0.00    +0.000 A 
ATOM     32  C   UNL     1       0.088   9.074  22.379  0.00  0.00    +0.000 A 
ATOM     33  C   UNL     1       0.498   9.299  21.044  0.00  0.00    +0.000 A 
ENDBRANCH  23  24
ENDBRANCH   1  23
TORSDOF 10
ENDMDL
MODEL 6
REMARK VINA RESULT:      -8.0      2.562      5.788
REMARK  Name = 
REMARK  13 active torsions:
REMARK  status: ('A' for Active; 'I' for Inactive)
REMARK    1  A    between atoms: C_1  and  N_2
REMARK    2  A    between atoms: C_3  and  C_5
REMARK    3  A    between atoms: C_5  and  C_6
REMARK    4  A    between atoms: C_5  and  N_17
REMARK    5  A    between atoms: C_6  and  C_7
REMARK    6  A    between atoms: C_18  and  C_20
REMARK    7  A    between atoms: C_20  and  C_21
REMARK    8  A    between atoms: C_20  and  C_26
REMARK    9  A    between atoms: C_21  and  C_22
REMARK   10  A    between atoms: N_24  and  O_25
REMARK   11  A    between atoms: C_26  and  C_27
REMARK   12  A    between atoms: C_27  and  C_28
REMARK   13  A    between atoms: C_27  and  C_29
REMARK                            x       y       z     vdW  Elec       q    Type
REMARK                         _______ _______ _______ _____ _____    ______ ____
ROOT
ATOM      1  C   UNL     1       2.616   7.213  18.499  0.00  0.00    +0.000 C 
ENDROOT
BRANCH   1   4
ATOM      2  C   UNL     1       0.784  10.411  19.566  0.00  0.00    +0.000 C 
ATOM      3  N   UNL     1       1.335   9.078  19.495  0.00  0.00    +0.000 N 
ATOM      4  C   UNL     1       2.029   8.637  18.386  0.00  0.00    +0.000 C 
ATOM      5  O   UNL     1       2.245   9.347  17.404  0.00  0.00    +0.000 OA
ATOM      6  H   UNL     1       1.177   8.453  20.273  0.00  0.00    +0.000 HD
ENDBRANCH   1   4
BRANCH   1   7
ATOM      7  N   UNL     1       3.686   7.060  17.496  0.00  0.00    +0.000 N 
ATOM      8  C   UNL     1       4.857   6.423  17.809  0.00  0.00    +0.000 C 
ATOM      9  O   UNL     1       5.016   5.916  18.920  0.00  0.00    +0.000 OA
ATOM     10  H   UNL     1       3.622   7.698  16.712  0.00  0.00    +0.000 HD
BRANCH   8  11
ATOM     11  C   UNL     1       5.929   6.364  16.713  0.00  0.00    +0.000 C 
BRANCH  11  12
ATOM     12  C   UNL     1       7.294   6.655  17.366  0.00  0.00    +0.000 C 
BRANCH  12  13
ATOM     13  C   UNL     1       7.727   5.644  18.399  0.00  0.00    +0.000 C 
ATOM     14  O   UNL     1       7.864   4.446  18.149  0.00  0.00    +0.000 OA
ATOM     15  N   UNL     1       7.939   6.148  19.663  0.00  0.00    +0.000 N 
ATOM     16  H   UNL     1       7.413   6.946  20.003  0.00  0.00    +0.000 HD
BRANCH  15  17
ATOM     17  O   UNL     1       8.250   5.167  20.641  0.00  0.00    +0.000 OA
ATOM     18  H   UNL     1       8.016   4.328  20.183  0.00  0.00    +0.000 HD
ENDBRANCH  15  17
ENDBRANCH  12  13
ENDBRANCH  11  12
BRANCH  11  19
ATOM     19  C   UNL     1       5.946   4.977  16.006  0.00  0.00    +0.000 C 
BRANCH  19  20
ATOM     20  C   UNL     1       6.099   4.939  14.463  0.00  0.00    +0.000 C 
ATOM     21  C   UNL     1       7.535   5.120  13.974  0.00  0.00    +0.000 C 
ATOM     22  C   UNL     1       5.544   3.612  13.927  0.00  0.00    +0.000 C 
ENDBRANCH  19  20
ENDBRANCH  11  19
ENDBRANCH   8  11
ENDBRANCH   1   7
BRANCH   1  23
ATOM     23  C   UNL     1       1.581   6.064  18.461  0.00  0.00    +0.000 C 
BRANCH  23  24
ATOM     24  C   UNL     1       1.914   4.837  19.302  0.00  0.00    +0.000 A 
ATOM     25  C   UNL     1       1.655   4.943  20.683  0.00  0.00    +0.000 A 
ATOM     26  C   UNL     1       2.016   3.931  21.562  0.00  0.00    +0.000 A 
ATOM     27  C   UNL     1       2.664   2.804  21.078  0.00  0.00    +0.000 A 
ATOM     28  C   UNL     1       2.936   2.654  19.713  0.00  0.00    +0.000 A 
ATOM     29  C   UNL     1       3.645   1.524  19.281  0.00  0.00    +0.000 A 
ATOM     30  C   UNL     1       3.952   1.331  17.940  0.00  0.00    +0.000 A 
ATOM     31  C   UNL     1       3.478   2.237  17.002  0.00  0.00    +0.000 A 
ATOM     32  C   UNL     1       2.749   3.363  17.418  0.00  0.00    +0.000 A 
ATOM     33  C   UNL     1       2.514   3.645  18.784  0.00  0.00    +0.000 A 
ENDBRANCH  23  24
ENDBRANCH   1  23
TORSDOF 10
ENDMDL
MODEL 7
REMARK VINA RESULT:      -7.9      1.942      3.075
REMARK  Name = 
REMARK  13 active torsions:
REMARK  status: ('A' for Active; 'I' for Inactive)
REMARK    1  A    between atoms: C_1  and  N_2
REMARK    2  A    between atoms: C_3  and  C_5
REMARK    3  A    between atoms: C_5  and  C_6
REMARK    4  A    between atoms: C_5  and  N_17
REMARK    5  A    between atoms: C_6  and  C_7
REMARK    6  A    between atoms: C_18  and  C_20
REMARK    7  A    between atoms: C_20  and  C_21
REMARK    8  A    between atoms: C_20  and  C_26
REMARK    9  A    between atoms: C_21  and  C_22
REMARK   10  A    between atoms: N_24  and  O_25
REMARK   11  A    between atoms: C_26  and  C_27
REMARK   12  A    between atoms: C_27  and  C_28
REMARK   13  A    between atoms: C_27  and  C_29
REMARK                            x       y       z     vdW  Elec       q    Type
REMARK                         _______ _______ _______ _____ _____    ______ ____
ROOT
ATOM      1  C   UNL     1       2.383   5.677  18.636  0.00  0.00    +0.000 C 
ENDROOT
BRANCH   1   4
ATOM      2  C   UNL     1       2.356   2.731  21.094  0.00  0.00    +0.000 C 
ATOM      3  N   UNL     1       2.488   4.030  20.476  0.00  0.00    +0.000 N 
ATOM      4  C   UNL     1       2.274   4.217  19.125  0.00  0.00    +0.000 C 
ATOM      5  O   UNL     1       1.936   3.307  18.368  0.00  0.00    +0.000 OA
ATOM      6  H   UNL     1       2.774   4.808  21.054  0.00  0.00    +0.000 HD
ENDBRANCH   1   4
BRANCH   1   7
ATOM      7  N   UNL     1       3.471   5.765  17.644  0.00  0.00    +0.000 N 
ATOM      8  C   UNL     1       4.764   5.475  17.991  0.00  0.00    +0.000 C 
ATOM      9  O   UNL     1       5.034   5.081  19.125  0.00  0.00    +0.000 OA
ATOM     10  H   UNL     1       3.253   6.326  16.829  0.00  0.00    +0.000 HD
BRANCH   8  11
ATOM     11  C   UNL     1       5.830   5.650  16.901  0.00  0.00    +0.000 C 
BRANCH  11  12
ATOM     12  C   UNL     1       7.204   5.745  17.591  0.00  0.00    +0.000 C 
BRANCH  12  13
ATOM     13  C   UNL     1       7.691   7.152  17.836  0.00  0.00    +0.000 C 
ATOM     14  O   UNL     1       7.458   8.086  17.068  0.00  0.00    +0.000 OA
ATOM     15  N   UNL     1       8.445   7.323  18.975  0.00  0.00    +0.000 N 
ATOM     16  H   UNL     1       9.026   6.574  19.337  0.00  0.00    +0.000 HD
BRANCH  15  17
ATOM     17  O   UNL     1       8.976   8.630  19.136  0.00  0.00    +0.000 OA
ATOM     18  H   UNL     1       9.889   8.534  18.782  0.00  0.00    +0.000 HD
ENDBRANCH  15  17
ENDBRANCH  12  13
ENDBRANCH  11  12
BRANCH  11  19
ATOM     19  C   UNL     1       5.808   4.468  15.888  0.00  0.00    +0.000 C 
BRANCH  19  20
ATOM     20  C   UNL     1       5.973   4.789  14.379  0.00  0.00    +0.000 C 
ATOM     21  C   UNL     1       7.419   5.028  13.947  0.00  0.00    +0.000 C 
ATOM     22  C   UNL     1       5.376   3.647  13.545  0.00  0.00    +0.000 C 
ENDBRANCH  19  20
ENDBRANCH  11  19
ENDBRANCH   8  11
ENDBRANCH   1   7
BRANCH   1  23
ATOM     23  C   UNL     1       2.492   6.745  19.751  0.00  0.00    +0.000 C 
BRANCH  23  24
ATOM     24  C   UNL     1       1.832   8.087  19.458  0.00  0.00    +0.000 A 
ATOM     25  C   UNL     1       2.048   8.615  18.170  0.00  0.00    +0.000 A 
ATOM     26  C   UNL     1       1.586   9.878  17.824  0.00  0.00    +0.000 A 
ATOM     27  C   UNL     1       0.921  10.645  18.769  0.00  0.00    +0.000 A 
ATOM     28  C   UNL     1       0.681  10.158  20.059  0.00  0.00    +0.000 A 
ATOM     29  C   UNL     1       0.056  10.994  20.996  0.00  0.00    +0.000 A 
ATOM     30  C   UNL     1      -0.196  10.566  22.294  0.00  0.00    +0.000 A 
ATOM     31  C   UNL     1       0.106   9.258  22.643  0.00  0.00    +0.000 A 
ATOM     32  C   UNL     1       0.713   8.403  21.709  0.00  0.00    +0.000 A 
ATOM     33  C   UNL     1       1.082   8.840  20.416  0.00  0.00    +0.000 A 
ENDBRANCH  23  24
ENDBRANCH   1  23
TORSDOF 10
ENDMDL
MODEL 8
REMARK VINA RESULT:      -7.9      2.143      5.122
REMARK  Name = 
REMARK  13 active torsions:
REMARK  status: ('A' for Active; 'I' for Inactive)
REMARK    1  A    between atoms: C_1  and  N_2
REMARK    2  A    between atoms: C_3  and  C_5
REMARK    3  A    between atoms: C_5  and  C_6
REMARK    4  A    between atoms: C_5  and  N_17
REMARK    5  A    between atoms: C_6  and  C_7
REMARK    6  A    between atoms: C_18  and  C_20
REMARK    7  A    between atoms: C_20  and  C_21
REMARK    8  A    between atoms: C_20  and  C_26
REMARK    9  A    between atoms: C_21  and  C_22
REMARK   10  A    between atoms: N_24  and  O_25
REMARK   11  A    between atoms: C_26  and  C_27
REMARK   12  A    between atoms: C_27  and  C_28
REMARK   13  A    between atoms: C_27  and  C_29
REMARK                            x       y       z     vdW  Elec       q    Type
REMARK                         _______ _______ _______ _____ _____    ______ ____
ROOT
ATOM      1  C   UNL     1       2.516   7.132  18.666  0.00  0.00    +0.000 C 
ENDROOT
BRANCH   1   4
ATOM      2  C   UNL     1       0.749  10.446  19.451  0.00  0.00    +0.000 C 
ATOM      3  N   UNL     1       1.276   9.102  19.497  0.00  0.00    +0.000 N 
ATOM      4  C   UNL     1       1.954   8.551  18.428  0.00  0.00    +0.000 C 
ATOM      5  O   UNL     1       2.176   9.166  17.386  0.00  0.00    +0.000 OA
ATOM      6  H   UNL     1       1.111   8.552  20.329  0.00  0.00    +0.000 HD
ENDBRANCH   1   4
BRANCH   1   7
ATOM      7  N   UNL     1       3.651   6.912  17.749  0.00  0.00    +0.000 N 
ATOM      8  C   UNL     1       4.786   6.277  18.177  0.00  0.00    +0.000 C 
ATOM      9  O   UNL     1       4.859   5.827  19.320  0.00  0.00    +0.000 OA
ATOM     10  H   UNL     1       3.652   7.509  16.931  0.00  0.00    +0.000 HD
BRANCH   8  11
ATOM     11  C   UNL     1       5.930   6.145  17.162  0.00  0.00    +0.000 C 
BRANCH  11  12
ATOM     12  C   UNL     1       5.330   5.651  15.832  0.00  0.00    +0.000 C 
BRANCH  12  13
ATOM     13  C   UNL     1       6.244   4.768  15.017  0.00  0.00    +0.000 C 
ATOM     14  O   UNL     1       7.456   4.686  15.222  0.00  0.00    +0.000 OA
ATOM     15  N   UNL     1       5.634   4.070  14.000  0.00  0.00    +0.000 N 
ATOM     16  H   UNL     1       4.821   4.445  13.521  0.00  0.00    +0.000 HD
BRANCH  15  17
ATOM     17  O   UNL     1       6.525   3.324  13.184  0.00  0.00    +0.000 OA
ATOM     18  H   UNL     1       6.442   2.416  13.555  0.00  0.00    +0.000 HD
ENDBRANCH  15  17
ENDBRANCH  12  13
ENDBRANCH  11  12
BRANCH  11  19
ATOM     19  C   UNL     1       6.669   7.500  16.958  0.00  0.00    +0.000 C 
BRANCH  19  20
ATOM     20  C   UNL     1       8.045   7.699  17.649  0.00  0.00    +0.000 C 
ATOM     21  C   UNL     1       8.294   9.123  18.142  0.00  0.00    +0.000 C 
ATOM     22  C   UNL     1       8.169   6.725  18.828  0.00  0.00    +0.000 C 
ENDBRANCH  19  20
ENDBRANCH  11  19
ENDBRANCH   8  11
ENDBRANCH   1   7
BRANCH   1  23
ATOM     23  C   UNL     1       1.473   5.990  18.625  0.00  0.00    +0.000 C 
BRANCH  23  24
ATOM     24  C   UNL     1       1.829   4.732  19.408  0.00  0.00    +0.000 A 
ATOM     25  C   UNL     1       1.576   4.773  20.794  0.00  0.00    +0.000 A 
ATOM     26  C   UNL     1       1.957   3.728  21.626  0.00  0.00    +0.000 A 
ATOM     27  C   UNL     1       2.620   2.634  21.090  0.00  0.00    +0.000 A 
ATOM     28  C   UNL     1       2.888   2.549  19.718  0.00  0.00    +0.000 A 
ATOM     29  C   UNL     1       3.611   1.451  19.233  0.00  0.00    +0.000 A 
ATOM     30  C   UNL     1       3.915   1.323  17.883  0.00  0.00    +0.000 A 
ATOM     31  C   UNL     1       3.422   2.262  16.988  0.00  0.00    +0.000 A 
ATOM     32  C   UNL     1       2.678   3.356  17.457  0.00  0.00    +0.000 A 
ATOM     33  C   UNL     1       2.445   3.574  18.836  0.00  0.00    +0.000 A 
ENDBRANCH  23  24
ENDBRANCH   1  23
TORSDOF 10
ENDMDL
MODEL 9
REMARK VINA RESULT:      -7.8      2.208      3.138
REMARK  Name = 
REMARK  13 active torsions:
REMARK  status: ('A' for Active; 'I' for Inactive)
REMARK    1  A    between atoms: C_1  and  N_2
REMARK    2  A    between atoms: C_3  and  C_5
REMARK    3  A    between atoms: C_5  and  C_6
REMARK    4  A    between atoms: C_5  and  N_17
REMARK    5  A    between atoms: C_6  and  C_7
REMARK    6  A    between atoms: C_18  and  C_20
REMARK    7  A    between atoms: C_20  and  C_21
REMARK    8  A    between atoms: C_20  and  C_26
REMARK    9  A    between atoms: C_21  and  C_22
REMARK   10  A    between atoms: N_24  and  O_25
REMARK   11  A    between atoms: C_26  and  C_27
REMARK   12  A    between atoms: C_27  and  C_28
REMARK   13  A    between atoms: C_27  and  C_29
REMARK                            x       y       z     vdW  Elec       q    Type
REMARK                         _______ _______ _______ _____ _____    ______ ____
ROOT
ATOM      1  C   UNL     1       2.626   5.943  18.745  0.00  0.00    +0.000 C 
ENDROOT
BRANCH   1   4
ATOM      2  C   UNL     1       2.124   2.198  18.076  0.00  0.00    +0.000 C 
ATOM      3  N   UNL     1       2.577   3.570  18.055  0.00  0.00    +0.000 N 
ATOM      4  C   UNL     1       1.976   4.545  18.827  0.00  0.00    +0.000 C 
ATOM      5  O   UNL     1       1.043   4.311  19.595  0.00  0.00    +0.000 OA
ATOM      6  H   UNL     1       3.334   3.814  17.433  0.00  0.00    +0.000 HD
ENDBRANCH   1   4
BRANCH   1   7
ATOM      7  N   UNL     1       4.056   5.784  18.419  0.00  0.00    +0.000 N 
ATOM      8  C   UNL     1       4.585   6.345  17.288  0.00  0.00    +0.000 C 
ATOM      9  O   UNL     1       3.889   7.041  16.549  0.00  0.00    +0.000 OA
ATOM     10  H   UNL     1       4.512   5.015  18.894  0.00  0.00    +0.000 HD
BRANCH   8  11
ATOM     11  C   UNL     1       6.070   6.075  17.011  0.00  0.00    +0.000 C 
BRANCH  11  12
ATOM     12  C   UNL     1       6.416   4.687  17.583  0.00  0.00    +0.000 C 
BRANCH  12  13
ATOM     13  C   UNL     1       7.685   4.639  18.399  0.00  0.00    +0.000 C 
ATOM     14  O   UNL     1       8.704   4.062  18.021  0.00  0.00    +0.000 OA
ATOM     15  N   UNL     1       7.621   5.268  19.622  0.00  0.00    +0.000 N 
ATOM     16  H   UNL     1       6.751   5.318  20.142  0.00  0.00    +0.000 HD
BRANCH  15  17
ATOM     17  O   UNL     1       8.790   5.128  20.415  0.00  0.00    +0.000 OA
ATOM     18  H   UNL     1       9.506   5.368  19.784  0.00  0.00    +0.000 HD
ENDBRANCH  15  17
ENDBRANCH  12  13
ENDBRANCH  11  12
BRANCH  11  19
ATOM     19  C   UNL     1       6.385   6.132  15.487  0.00  0.00    +0.000 C 
BRANCH  19  20
ATOM     20  C   UNL     1       6.602   4.794  14.731  0.00  0.00    +0.000 C 
ATOM     21  C   UNL     1       5.310   4.135  14.251  0.00  0.00    +0.000 C 
ATOM     22  C   UNL     1       7.528   5.031  13.530  0.00  0.00    +0.000 C 
ENDBRANCH  19  20
ENDBRANCH  11  19
ENDBRANCH   8  11
ENDBRANCH   1   7
BRANCH   1  23
ATOM     23  C   UNL     1       2.381   6.862  19.966  0.00  0.00    +0.000 C 
BRANCH  23  24
ATOM     24  C   UNL     1       1.705   8.196  19.673  0.00  0.00    +0.000 A 
ATOM     25  C   UNL     1       1.934   8.739  18.393  0.00  0.00    +0.000 A 
ATOM     26  C   UNL     1       1.459   9.998  18.050  0.00  0.00    +0.000 A 
ATOM     27  C   UNL     1       0.766  10.746  18.989  0.00  0.00    +0.000 A 
ATOM     28  C   UNL     1       0.512  10.245  20.272  0.00  0.00    +0.000 A 
ATOM     29  C   UNL     1      -0.142  11.063  21.204  0.00  0.00    +0.000 A 
ATOM     30  C   UNL     1      -0.409  10.620  22.494  0.00  0.00    +0.000 A 
ATOM     31  C   UNL     1      -0.093   9.313  22.838  0.00  0.00    +0.000 A 
ATOM     32  C   UNL     1       0.543   8.475  21.907  0.00  0.00    +0.000 A 
ATOM     33  C   UNL     1       0.927   8.930  20.624  0.00  0.00    +0.000 A 
ENDBRANCH  23  24
ENDBRANCH   1  23
TORSDOF 10
ENDMDL
