MODEL 1
REMARK VINA RESULT:      -7.4      0.000      0.000
REMARK  Name = 
REMARK  7 active torsions:
REMARK  status: ('A' for Active; 'I' for Inactive)
REMARK    1  A    between atoms: C_1  and  C_2
REMARK    2  A    between atoms: C_6  and  S_7
REMARK    3  A    between atoms: S_7  and  C_8
REMARK    4  A    between atoms: C_8  and  C_9
REMARK    5  A    between atoms: N_14  and  C_15
REMARK    6  A    between atoms: C_15  and  C_16
REMARK    7  A    between atoms: C_15  and  C_22
REMARK                            x       y       z     vdW  Elec       q    Type
REMARK                         _______ _______ _______ _____ _____    ______ ____
ROOT
ATOM      1  C   UNL     1       1.695   9.710  18.336  0.00  0.00    +0.000 C 
ATOM      2  O   UNL     1       2.104  10.645  17.645  0.00  0.00    +0.000 OA
ATOM      3  N   UNL     1       2.221   8.431  18.185  0.00  0.00    +0.000 N 
ATOM      4  C   UNL     1       3.292   8.210  17.208  0.00  0.00    +0.000 C 
ATOM      5  C   UNL     1       4.450   7.407  17.838  0.00  0.00    +0.000 C 
ATOM      6  N   UNL     1       4.039   6.119  18.476  0.00  0.00    +0.000 NA
ATOM      7  C   UNL     1       2.976   6.440  19.452  0.00  0.00    +0.000 C 
ATOM      8  C   UNL     1       1.779   7.221  18.886  0.00  0.00    +0.000 C 
ENDROOT
BRANCH   1   9
ATOM      9  C   UNL     1       0.668   9.914  19.447  0.00  0.00    +0.000 C 
BRANCH   9  10
ATOM     10  S   UNL     1      -0.104  11.552  19.414  0.00  0.00    +0.000 S 
BRANCH  10  16
ATOM     11  C   UNL     1      -5.079  12.225  18.809  0.00  0.00    +0.000 C 
ATOM     12  C   UNL     1      -3.868  11.469  18.357  0.00  0.00    +0.000 A 
ATOM     13  C   UNL     1      -3.944  10.503  17.375  0.00  0.00    +0.000 A 
ATOM     14  C   UNL     1      -2.760   9.883  17.049  0.00  0.00    +0.000 A 
ATOM     15  N   UNL     1      -1.580  10.173  17.627  0.00  0.00    +0.000 NA
ATOM     16  C   UNL     1      -1.607  11.136  18.568  0.00  0.00    +0.000 A 
ATOM     17  N   UNL     1      -2.710  11.782  18.971  0.00  0.00    +0.000 NA
ENDBRANCH  10  16
ENDBRANCH   9  10
ENDBRANCH   1   9
BRANCH   6  18
ATOM     18  C   UNL     1       3.655   5.092  17.457  0.00  0.00    +0.000 C 
BRANCH  18  19
ATOM     19  C   UNL     1       4.879   4.710  16.611  0.00  0.00    +0.000 A 
ATOM     20  C   UNL     1       6.173   4.748  17.162  0.00  0.00    +0.000 A 
ATOM     21  C   UNL     1       7.296   4.592  16.351  0.00  0.00    +0.000 A 
ATOM     22  C   UNL     1       7.144   4.389  14.981  0.00  0.00    +0.000 A 
ATOM     23  C   UNL     1       5.868   4.311  14.425  0.00  0.00    +0.000 A 
ATOM     24  C   UNL     1       4.740   4.459  15.235  0.00  0.00    +0.000 A 
ENDBRANCH  18  19
BRANCH  18  25
ATOM     25  C   UNL     1       2.966   3.832  18.003  0.00  0.00    +0.000 A 
ATOM     26  C   UNL     1       3.757   2.770  18.481  0.00  0.00    +0.000 A 
ATOM     27  C   UNL     1       3.172   1.612  19.003  0.00  0.00    +0.000 A 
ATOM     28  C   UNL     1       1.785   1.496  19.055  0.00  0.00    +0.000 A 
ATOM     29  C   UNL     1       0.984   2.539  18.594  0.00  0.00    +0.000 A 
ATOM     30  C   UNL     1       1.569   3.703  18.088  0.00  0.00    +0.000 A 
ENDBRANCH  18  25
ENDBRANCH   6  18
TORSDOF 6
ENDMDL
MODEL 2
REMARK VINA RESULT:      -7.3      0.555      1.515
REMARK  Name = 
REMARK  7 active torsions:
REMARK  status: ('A' for Active; 'I' for Inactive)
REMARK    1  A    between atoms: C_1  and  C_2
REMARK    2  A    between atoms: C_6  and  S_7
REMARK    3  A    between atoms: S_7  and  C_8
REMARK    4  A    between atoms: C_8  and  C_9
REMARK    5  A    between atoms: N_14  and  C_15
REMARK    6  A    between atoms: C_15  and  C_16
REMARK    7  A    between atoms: C_15  and  C_22
REMARK                            x       y       z     vdW  Elec       q    Type
REMARK                         _______ _______ _______ _____ _____    ______ ____
ROOT
ATOM      1  C   UNL     1       1.476   9.755  18.507  0.00  0.00    +0.000 C 
ATOM      2  O   UNL     1       1.794  10.681  17.757  0.00  0.00    +0.000 OA
ATOM      3  N   UNL     1       2.055   8.498  18.370  0.00  0.00    +0.000 N 
ATOM      4  C   UNL     1       3.071   8.289  17.333  0.00  0.00    +0.000 C 
ATOM      5  C   UNL     1       4.305   7.567  17.916  0.00  0.00    +0.000 C 
ATOM      6  N   UNL     1       4.001   6.288  18.626  0.00  0.00    +0.000 NA
ATOM      7  C   UNL     1       2.986   6.597  19.658  0.00  0.00    +0.000 C 
ATOM      8  C   UNL     1       1.719   7.297  19.142  0.00  0.00    +0.000 C 
ENDROOT
BRANCH   1   9
ATOM      9  C   UNL     1       0.513   9.955  19.674  0.00  0.00    +0.000 C 
BRANCH   9  10
ATOM     10  S   UNL     1      -0.019  11.674  19.876  0.00  0.00    +0.000 S 
BRANCH  10  16
ATOM     11  C   UNL     1      -2.689  10.437  15.764  0.00  0.00    +0.000 C 
ATOM     12  C   UNL     1      -2.737  11.023  17.141  0.00  0.00    +0.000 A 
ATOM     13  C   UNL     1      -3.917  11.478  17.692  0.00  0.00    +0.000 A 
ATOM     14  C   UNL     1      -3.827  11.991  18.965  0.00  0.00    +0.000 A 
ATOM     15  N   UNL     1      -2.680  12.060  19.665  0.00  0.00    +0.000 NA
ATOM     16  C   UNL     1      -1.584  11.582  19.045  0.00  0.00    +0.000 A 
ATOM     17  N   UNL     1      -1.563  11.085  17.800  0.00  0.00    +0.000 NA
ENDBRANCH  10  16
ENDBRANCH   9  10
ENDBRANCH   1   9
BRANCH   6  18
ATOM     18  C   UNL     1       3.604   5.204  17.673  0.00  0.00    +0.000 C 
BRANCH  18  19
ATOM     19  C   UNL     1       4.822   4.760  16.850  0.00  0.00    +0.000 A 
ATOM     20  C   UNL     1       6.108   4.744  17.420  0.00  0.00    +0.000 A 
ATOM     21  C   UNL     1       7.235   4.530  16.627  0.00  0.00    +0.000 A 
ATOM     22  C   UNL     1       7.094   4.322  15.257  0.00  0.00    +0.000 A 
ATOM     23  C   UNL     1       5.825   4.298  14.682  0.00  0.00    +0.000 A 
ATOM     24  C   UNL     1       4.693   4.503  15.473  0.00  0.00    +0.000 A 
ENDBRANCH  18  19
BRANCH  18  25
ATOM     25  C   UNL     1       2.905   3.986  18.297  0.00  0.00    +0.000 A 
ATOM     26  C   UNL     1       1.551   3.746  18.001  0.00  0.00    +0.000 A 
ATOM     27  C   UNL     1       0.880   2.639  18.532  0.00  0.00    +0.000 A 
ATOM     28  C   UNL     1       1.554   1.756  19.371  0.00  0.00    +0.000 A 
ATOM     29  C   UNL     1       2.897   1.971  19.671  0.00  0.00    +0.000 A 
ATOM     30  C   UNL     1       3.572   3.068  19.126  0.00  0.00    +0.000 A 
ENDBRANCH  18  25
ENDBRANCH   6  18
TORSDOF 6
ENDMDL
MODEL 3
REMARK VINA RESULT:      -7.2      4.260      8.812
REMARK  Name = 
REMARK  7 active torsions:
REMARK  status: ('A' for Active; 'I' for Inactive)
REMARK    1  A    between atoms: C_1  and  C_2
REMARK    2  A    between atoms: C_6  and  S_7
REMARK    3  A    between atoms: S_7  and  C_8
REMARK    4  A    between atoms: C_8  and  C_9
REMARK    5  A    between atoms: N_14  and  C_15
REMARK    6  A    between atoms: C_15  and  C_16
REMARK    7  A    between atoms: C_15  and  C_22
REMARK                            x       y       z     vdW  Elec       q    Type
REMARK                         _______ _______ _______ _____ _____    ______ ____
ROOT
ATOM      1  C   UNL     1       6.213   4.416  15.133  0.00  0.00    +0.000 C 
ATOM      2  O   UNL     1       6.446   3.207  15.070  0.00  0.00    +0.000 OA
ATOM      3  N   UNL     1       5.321   4.920  16.075  0.00  0.00    +0.000 N 
ATOM      4  C   UNL     1       4.677   3.996  17.014  0.00  0.00    +0.000 C 
ATOM      5  C   UNL     1       4.777   4.530  18.460  0.00  0.00    +0.000 C 
ATOM      6  N   UNL     1       4.263   5.921  18.647  0.00  0.00    +0.000 NA
ATOM      7  C   UNL     1       4.977   6.779  17.677  0.00  0.00    +0.000 C 
ATOM      8  C   UNL     1       4.900   6.318  16.213  0.00  0.00    +0.000 C 
ENDROOT
BRANCH   1   9
ATOM      9  C   UNL     1       6.947   5.428  14.258  0.00  0.00    +0.000 C 
BRANCH   9  10
ATOM     10  S   UNL     1       7.805   4.670  12.855  0.00  0.00    +0.000 S 
BRANCH  10  16
ATOM     11  C   UNL     1       6.136   0.249  11.054  0.00  0.00    +0.000 C 
ATOM     12  C   UNL     1       5.781   1.668  11.375  0.00  0.00    +0.000 A 
ATOM     13  C   UNL     1       4.515   2.166  11.149  0.00  0.00    +0.000 A 
ATOM     14  C   UNL     1       4.317   3.484  11.490  0.00  0.00    +0.000 A 
ATOM     15  N   UNL     1       5.273   4.272  12.016  0.00  0.00    +0.000 NA
ATOM     16  C   UNL     1       6.473   3.692  12.207  0.00  0.00    +0.000 A 
ATOM     17  N   UNL     1       6.772   2.425  11.888  0.00  0.00    +0.000 NA
ENDBRANCH  10  16
ENDBRANCH   9  10
ENDBRANCH   1   9
BRANCH   6  18
ATOM     18  C   UNL     1       2.771   5.981  18.546  0.00  0.00    +0.000 C 
BRANCH  18  19
ATOM     19  C   UNL     1       2.142   4.912  19.453  0.00  0.00    +0.000 A 
ATOM     20  C   UNL     1       2.531   4.793  20.800  0.00  0.00    +0.000 A 
ATOM     21  C   UNL     1       2.109   3.710  21.569  0.00  0.00    +0.000 A 
ATOM     22  C   UNL     1       1.289   2.734  21.007  0.00  0.00    +0.000 A 
ATOM     23  C   UNL     1       0.864   2.856  19.685  0.00  0.00    +0.000 A 
ATOM     24  C   UNL     1       1.277   3.943  18.914  0.00  0.00    +0.000 A 
ENDBRANCH  18  19
BRANCH  18  25
ATOM     25  C   UNL     1       2.136   7.354  18.814  0.00  0.00    +0.000 A 
ATOM     26  C   UNL     1       1.781   7.700  20.132  0.00  0.00    +0.000 A 
ATOM     27  C   UNL     1       1.218   8.946  20.425  0.00  0.00    +0.000 A 
ATOM     28  C   UNL     1       0.997   9.866  19.403  0.00  0.00    +0.000 A 
ATOM     29  C   UNL     1       1.348   9.546  18.093  0.00  0.00    +0.000 A 
ATOM     30  C   UNL     1       1.927   8.307  17.804  0.00  0.00    +0.000 A 
ENDBRANCH  18  25
ENDBRANCH   6  18
TORSDOF 6
ENDMDL
MODEL 4
REMARK VINA RESULT:      -7.2      2.440      2.893
REMARK  Name = 
REMARK  7 active torsions:
REMARK  status: ('A' for Active; 'I' for Inactive)
REMARK    1  A    between atoms: C_1  and  C_2
REMARK    2  A    between atoms: C_6  and  S_7
REMARK    3  A    between atoms: S_7  and  C_8
REMARK    4  A    between atoms: C_8  and  C_9
REMARK    5  A    between atoms: N_14  and  C_15
REMARK    6  A    between atoms: C_15  and  C_16
REMARK    7  A    between atoms: C_15  and  C_22
REMARK                            x       y       z     vdW  Elec       q    Type
REMARK                         _______ _______ _______ _____ _____    ______ ____
ROOT
ATOM      1  C   UNL     1       1.156   8.945  19.521  0.00  0.00    +0.000 C 
ATOM      2  O   UNL     1       1.092  10.020  18.920  0.00  0.00    +0.000 OA
ATOM      3  N   UNL     1       1.901   7.888  19.009  0.00  0.00    +0.000 N 
ATOM      4  C   UNL     1       2.635   8.073  17.753  0.00  0.00    +0.000 C 
ATOM      5  C   UNL     1       4.089   7.573  17.891  0.00  0.00    +0.000 C 
ATOM      6  N   UNL     1       4.221   6.167  18.380  0.00  0.00    +0.000 NA
ATOM      7  C   UNL     1       3.469   6.079  19.651  0.00  0.00    +0.000 C 
ATOM      8  C   UNL     1       2.005   6.541  19.580  0.00  0.00    +0.000 C 
ENDROOT
BRANCH   1   9
ATOM      9  C   UNL     1       0.508   8.744  20.888  0.00  0.00    +0.000 C 
BRANCH   9  10
ATOM     10  S   UNL     1       1.256   9.758  22.190  0.00  0.00    +0.000 S 
BRANCH  10  16
ATOM     11  C   UNL     1      -0.453  14.440  21.342  0.00  0.00    +0.000 C 
ATOM     12  C   UNL     1      -0.739  13.115  21.977  0.00  0.00    +0.000 A 
ATOM     13  C   UNL     1      -1.906  12.883  22.674  0.00  0.00    +0.000 A 
ATOM     14  C   UNL     1      -2.048  11.623  23.207  0.00  0.00    +0.000 A 
ATOM     15  N   UNL     1      -1.130  10.648  23.078  0.00  0.00    +0.000 NA
ATOM     16  C   UNL     1      -0.028  10.969  22.373  0.00  0.00    +0.000 A 
ATOM     17  N   UNL     1       0.214  12.172  21.834  0.00  0.00    +0.000 NA
ENDBRANCH  10  16
ENDBRANCH   9  10
ENDBRANCH   1   9
BRANCH   6  18
ATOM     18  C   UNL     1       3.798   5.176  17.341  0.00  0.00    +0.000 C 
BRANCH  18  19
ATOM     19  C   UNL     1       4.988   4.829  16.434  0.00  0.00    +0.000 A 
ATOM     20  C   UNL     1       6.309   5.028  16.875  0.00  0.00    +0.000 A 
ATOM     21  C   UNL     1       7.381   4.899  15.992  0.00  0.00    +0.000 A 
ATOM     22  C   UNL     1       7.149   4.563  14.660  0.00  0.00    +0.000 A 
ATOM     23  C   UNL     1       5.849   4.325  14.216  0.00  0.00    +0.000 A 
ATOM     24  C   UNL     1       4.774   4.445  15.098  0.00  0.00    +0.000 A 
ENDBRANCH  18  19
BRANCH  18  25
ATOM     25  C   UNL     1       3.134   3.894  17.869  0.00  0.00    +0.000 A 
ATOM     26  C   UNL     1       1.730   3.823  17.926  0.00  0.00    +0.000 A 
ATOM     27  C   UNL     1       1.083   2.670  18.383  0.00  0.00    +0.000 A 
ATOM     28  C   UNL     1       1.832   1.570  18.792  0.00  0.00    +0.000 A 
ATOM     29  C   UNL     1       3.223   1.617  18.736  0.00  0.00    +0.000 A 
ATOM     30  C   UNL     1       3.868   2.763  18.264  0.00  0.00    +0.000 A 
ENDBRANCH  18  25
ENDBRANCH   6  18
TORSDOF 6
ENDMDL
MODEL 5
REMARK VINA RESULT:      -7.2      6.298      9.668
REMARK  Name = 
REMARK  7 active torsions:
REMARK  status: ('A' for Active; 'I' for Inactive)
REMARK    1  A    between atoms: C_1  and  C_2
REMARK    2  A    between atoms: C_6  and  S_7
REMARK    3  A    between atoms: S_7  and  C_8
REMARK    4  A    between atoms: C_8  and  C_9
REMARK    5  A    between atoms: N_14  and  C_15
REMARK    6  A    between atoms: C_15  and  C_16
REMARK    7  A    between atoms: C_15  and  C_22
REMARK                            x       y       z     vdW  Elec       q    Type
REMARK                         _______ _______ _______ _____ _____    ______ ____
ROOT
ATOM      1  C   UNL     1       4.113  14.722  19.729  0.00  0.00    +0.000 C 
ATOM      2  O   UNL     1       4.746  14.787  20.785  0.00  0.00    +0.000 OA
ATOM      3  N   UNL     1       2.937  13.982  19.650  0.00  0.00    +0.000 N 
ATOM      4  C   UNL     1       2.442  13.298  20.849  0.00  0.00    +0.000 C 
ATOM      5  C   UNL     1       0.939  13.581  21.057  0.00  0.00    +0.000 C 
ATOM      6  N   UNL     1       0.077  13.273  19.876  0.00  0.00    +0.000 NA
ATOM      7  C   UNL     1       0.638  14.014  18.726  0.00  0.00    +0.000 C 
ATOM      8  C   UNL     1       2.128  13.761  18.447  0.00  0.00    +0.000 C 
ENDROOT
BRANCH   1   9
ATOM      9  C   UNL     1       4.524  15.511  18.489  0.00  0.00    +0.000 C 
BRANCH   9  10
ATOM     10  S   UNL     1       6.142  16.309  18.653  0.00  0.00    +0.000 S 
BRANCH  10  16
ATOM     11  C   UNL     1      10.287  13.691  19.892  0.00  0.00    +0.000 C 
ATOM     12  C   UNL     1       9.088  13.760  18.999  0.00  0.00    +0.000 A 
ATOM     13  C   UNL     1       8.842  12.796  18.043  0.00  0.00    +0.000 A 
ATOM     14  C   UNL     1       7.705  12.973  17.289  0.00  0.00    +0.000 A 
ATOM     15  N   UNL     1       6.858  14.007  17.444  0.00  0.00    +0.000 NA
ATOM     16  C   UNL     1       7.179  14.890  18.409  0.00  0.00    +0.000 A 
ATOM     17  N   UNL     1       8.273  14.818  19.179  0.00  0.00    +0.000 NA
ENDBRANCH  10  16
ENDBRANCH   9  10
ENDBRANCH   1   9
BRANCH   6  18
ATOM     18  C   UNL     1      -0.057  11.798  19.656  0.00  0.00    +0.000 C 
BRANCH  18  19
ATOM     19  C   UNL     1      -0.010  11.062  21.003  0.00  0.00    +0.000 A 
ATOM     20  C   UNL     1       0.885   9.997  21.210  0.00  0.00    +0.000 A 
ATOM     21  C   UNL     1       0.798   9.206  22.355  0.00  0.00    +0.000 A 
ATOM     22  C   UNL     1      -0.180   9.471  23.312  0.00  0.00    +0.000 A 
ATOM     23  C   UNL     1      -1.050  10.546  23.141  0.00  0.00    +0.000 A 
ATOM     24  C   UNL     1      -0.961  11.345  22.000  0.00  0.00    +0.000 A 
ENDBRANCH  18  19
BRANCH  18  25
ATOM     25  C   UNL     1      -1.281  11.350  18.842  0.00  0.00    +0.000 A 
ATOM     26  C   UNL     1      -1.153  10.270  17.949  0.00  0.00    +0.000 A 
ATOM     27  C   UNL     1      -2.244   9.817  17.202  0.00  0.00    +0.000 A 
ATOM     28  C   UNL     1      -3.483  10.440  17.333  0.00  0.00    +0.000 A 
ATOM     29  C   UNL     1      -3.633  11.507  18.217  0.00  0.00    +0.000 A 
ATOM     30  C   UNL     1      -2.545  11.948  18.976  0.00  0.00    +0.000 A 
ENDBRANCH  18  25
ENDBRANCH   6  18
TORSDOF 6
ENDMDL
MODEL 6
REMARK VINA RESULT:      -7.1      1.819      2.426
REMARK  Name = 
REMARK  7 active torsions:
REMARK  status: ('A' for Active; 'I' for Inactive)
REMARK    1  A    between atoms: C_1  and  C_2
REMARK    2  A    between atoms: C_6  and  S_7
REMARK    3  A    between atoms: S_7  and  C_8
REMARK    4  A    between atoms: C_8  and  C_9
REMARK    5  A    between atoms: N_14  and  C_15
REMARK    6  A    between atoms: C_15  and  C_16
REMARK    7  A    between atoms: C_15  and  C_22
REMARK                            x       y       z     vdW  Elec       q    Type
REMARK                         _______ _______ _______ _____ _____    ______ ____
ROOT
ATOM      1  C   UNL     1       1.103   9.531  19.113  0.00  0.00    +0.000 C 
ATOM      2  O   UNL     1       1.198  10.558  18.437  0.00  0.00    +0.000 OA
ATOM      3  N   UNL     1       1.806   8.383  18.764  0.00  0.00    +0.000 N 
ATOM      4  C   UNL     1       2.686   8.413  17.591  0.00  0.00    +0.000 C 
ATOM      5  C   UNL     1       4.068   7.813  17.930  0.00  0.00    +0.000 C 
ATOM      6  N   UNL     1       4.024   6.443  18.525  0.00  0.00    +0.000 NA
ATOM      7  C   UNL     1       3.133   6.512  19.703  0.00  0.00    +0.000 C 
ATOM      8  C   UNL     1       1.730   7.080  19.433  0.00  0.00    +0.000 C 
ENDROOT
BRANCH   1   9
ATOM      9  C   UNL     1       0.295   9.487  20.407  0.00  0.00    +0.000 C 
BRANCH   9  10
ATOM     10  S   UNL     1       0.603  10.904  21.491  0.00  0.00    +0.000 S 
BRANCH  10  16
ATOM     11  C   UNL     1      -3.581  12.489  23.848  0.00  0.00    +0.000 C 
ATOM     12  C   UNL     1      -2.879  12.348  22.533  0.00  0.00    +0.000 A 
ATOM     13  C   UNL     1      -3.463  12.762  21.354  0.00  0.00    +0.000 A 
ATOM     14  C   UNL     1      -2.713  12.579  20.215  0.00  0.00    +0.000 A 
ATOM     15  N   UNL     1      -1.482  12.036  20.209  0.00  0.00    +0.000 NA
ATOM     16  C   UNL     1      -0.996  11.671  21.410  0.00  0.00    +0.000 A 
ATOM     17  N   UNL     1      -1.655  11.786  22.571  0.00  0.00    +0.000 NA
ENDBRANCH  10  16
ENDBRANCH   9  10
ENDBRANCH   1   9
BRANCH   6  18
ATOM     18  C   UNL     1       3.633   5.410  17.514  0.00  0.00    +0.000 C 
BRANCH  18  19
ATOM     19  C   UNL     1       4.827   5.097  16.599  0.00  0.00    +0.000 A 
ATOM     20  C   UNL     1       4.626   4.585  15.304  0.00  0.00    +0.000 A 
ATOM     21  C   UNL     1       5.701   4.120  14.547  0.00  0.00    +0.000 A 
ATOM     22  C   UNL     1       6.992   4.167  15.070  0.00  0.00    +0.000 A 
ATOM     23  C   UNL     1       7.213   4.706  16.336  0.00  0.00    +0.000 A 
ATOM     24  C   UNL     1       6.141   5.180  17.093  0.00  0.00    +0.000 A 
ENDBRANCH  18  19
BRANCH  18  25
ATOM     25  C   UNL     1       3.035   4.113  18.078  0.00  0.00    +0.000 A 
ATOM     26  C   UNL     1       1.645   3.908  17.999  0.00  0.00    +0.000 A 
ATOM     27  C   UNL     1       1.059   2.733  18.483  0.00  0.00    +0.000 A 
ATOM     28  C   UNL     1       1.855   1.746  19.058  0.00  0.00    +0.000 A 
ATOM     29  C   UNL     1       3.234   1.926  19.139  0.00  0.00    +0.000 A 
ATOM     30  C   UNL     1       3.821   3.093  18.640  0.00  0.00    +0.000 A 
ENDBRANCH  18  25
ENDBRANCH   6  18
TORSDOF 6
ENDMDL
MODEL 7
REMARK VINA RESULT:      -7.0      1.916      2.466
REMARK  Name = 
REMARK  7 active torsions:
REMARK  status: ('A' for Active; 'I' for Inactive)
REMARK    1  A    between atoms: C_1  and  C_2
REMARK    2  A    between atoms: C_6  and  S_7
REMARK    3  A    between atoms: S_7  and  C_8
REMARK    4  A    between atoms: C_8  and  C_9
REMARK    5  A    between atoms: N_14  and  C_15
REMARK    6  A    between atoms: C_15  and  C_16
REMARK    7  A    between atoms: C_15  and  C_22
REMARK                            x       y       z     vdW  Elec       q    Type
REMARK                         _______ _______ _______ _____ _____    ______ ____
ROOT
ATOM      1  C   UNL     1       1.088   9.322  19.191  0.00  0.00    +0.000 C 
ATOM      2  O   UNL     1       1.066  10.368  18.538  0.00  0.00    +0.000 OA
ATOM      3  N   UNL     1       1.839   8.232  18.762  0.00  0.00    +0.000 N 
ATOM      4  C   UNL     1       2.628   8.348  17.532  0.00  0.00    +0.000 C 
ATOM      5  C   UNL     1       4.067   7.836  17.757  0.00  0.00    +0.000 C 
ATOM      6  N   UNL     1       4.156   6.453  18.316  0.00  0.00    +0.000 NA
ATOM      7  C   UNL     1       3.349   6.435  19.555  0.00  0.00    +0.000 C 
ATOM      8  C   UNL     1       1.897   6.912  19.399  0.00  0.00    +0.000 C 
ENDROOT
BRANCH   1   9
ATOM      9  C   UNL     1       0.379   9.193  20.537  0.00  0.00    +0.000 C 
BRANCH   9  10
ATOM     10  S   UNL     1       0.882  10.457  21.733  0.00  0.00    +0.000 S 
BRANCH  10  16
ATOM     11  C   UNL     1      -3.190  12.817  19.887  0.00  0.00    +0.000 C 
ATOM     12  C   UNL     1      -2.507  12.309  21.118  0.00  0.00    +0.000 A 
ATOM     13  C   UNL     1      -3.065  12.461  22.370  0.00  0.00    +0.000 A 
ATOM     14  C   UNL     1      -2.337  11.947  23.419  0.00  0.00    +0.000 A 
ATOM     15  N   UNL     1      -1.152  11.327  23.275  0.00  0.00    +0.000 NA
ATOM     16  C   UNL     1      -0.695  11.221  22.013  0.00  0.00    +0.000 A 
ATOM     17  N   UNL     1      -1.316  11.707  20.929  0.00  0.00    +0.000 NA
ENDBRANCH  10  16
ENDBRANCH   9  10
ENDBRANCH   1   9
BRANCH   6  18
ATOM     18  C   UNL     1       3.763   5.419  17.306  0.00  0.00    +0.000 C 
BRANCH  18  19
ATOM     19  C   UNL     1       4.917   5.188  16.319  0.00  0.00    +0.000 A 
ATOM     20  C   UNL     1       4.706   4.484  15.120  0.00  0.00    +0.000 A 
ATOM     21  C   UNL     1       5.783   4.106  14.318  0.00  0.00    +0.000 A 
ATOM     22  C   UNL     1       7.083   4.431  14.698  0.00  0.00    +0.000 A 
ATOM     23  C   UNL     1       7.306   5.161  15.865  0.00  0.00    +0.000 A 
ATOM     24  C   UNL     1       6.232   5.548  16.666  0.00  0.00    +0.000 A 
ENDBRANCH  18  19
BRANCH  18  25
ATOM     25  C   UNL     1       3.268   4.081  17.876  0.00  0.00    +0.000 A 
ATOM     26  C   UNL     1       4.181   3.236  18.535  0.00  0.00    +0.000 A 
ATOM     27  C   UNL     1       3.770   2.017  19.084  0.00  0.00    +0.000 A 
ATOM     28  C   UNL     1       2.438   1.623  18.982  0.00  0.00    +0.000 A 
ATOM     29  C   UNL     1       1.517   2.449  18.341  0.00  0.00    +0.000 A 
ATOM     30  C   UNL     1       1.925   3.674  17.807  0.00  0.00    +0.000 A 
ENDBRANCH  18  25
ENDBRANCH   6  18
TORSDOF 6
ENDMDL
MODEL 8
REMARK VINA RESULT:      -7.0      2.242      2.682
REMARK  Name = 
REMARK  7 active torsions:
REMARK  status: ('A' for Active; 'I' for Inactive)
REMARK    1  A    between atoms: C_1  and  C_2
REMARK    2  A    between atoms: C_6  and  S_7
REMARK    3  A    between atoms: S_7  and  C_8
REMARK    4  A    between atoms: C_8  and  C_9
REMARK    5  A    between atoms: N_14  and  C_15
REMARK    6  A    between atoms: C_15  and  C_16
REMARK    7  A    between atoms: C_15  and  C_22
REMARK                            x       y       z     vdW  Elec       q    Type
REMARK                         _______ _______ _______ _____ _____    ______ ____
ROOT
ATOM      1  C   UNL     1       0.884   9.444  19.027  0.00  0.00    +0.000 C 
ATOM      2  O   UNL     1       0.952  10.445  18.310  0.00  0.00    +0.000 OA
ATOM      3  N   UNL     1       1.625   8.305  18.730  0.00  0.00    +0.000 N 
ATOM      4  C   UNL     1       2.512   8.314  17.563  0.00  0.00    +0.000 C 
ATOM      5  C   UNL     1       3.909   7.772  17.934  0.00  0.00    +0.000 C 
ATOM      6  N   UNL     1       3.903   6.427  18.585  0.00  0.00    +0.000 NA
ATOM      7  C   UNL     1       3.001   6.517  19.755  0.00  0.00    +0.000 C 
ATOM      8  C   UNL     1       1.584   7.029  19.452  0.00  0.00    +0.000 C 
ENDROOT
BRANCH   1   9
ATOM      9  C   UNL     1       0.068   9.428  20.317  0.00  0.00    +0.000 C 
BRANCH   9  10
ATOM     10  S   UNL     1       0.982  10.055  21.749  0.00  0.00    +0.000 S 
BRANCH  10  16
ATOM     11  C   UNL     1      -3.210  12.204  23.586  0.00  0.00    +0.000 C 
ATOM     12  C   UNL     1      -1.902  12.435  22.896  0.00  0.00    +0.000 A 
ATOM     13  C   UNL     1      -1.496  13.697  22.517  0.00  0.00    +0.000 A 
ATOM     14  C   UNL     1      -0.272  13.774  21.894  0.00  0.00    +0.000 A 
ATOM     15  N   UNL     1       0.513  12.708  21.652  0.00  0.00    +0.000 NA
ATOM     16  C   UNL     1       0.034  11.521  22.067  0.00  0.00    +0.000 A 
ATOM     17  N   UNL     1      -1.154  11.338  22.661  0.00  0.00    +0.000 NA
ENDBRANCH  10  16
ENDBRANCH   9  10
ENDBRANCH   1   9
BRANCH   6  18
ATOM     18  C   UNL     1       3.552   5.342  17.615  0.00  0.00    +0.000 C 
BRANCH  18  19
ATOM     19  C   UNL     1       4.806   4.905  16.844  0.00  0.00    +0.000 A 
ATOM     20  C   UNL     1       6.084   5.032  17.418  0.00  0.00    +0.000 A 
ATOM     21  C   UNL     1       7.232   4.820  16.655  0.00  0.00    +0.000 A 
ATOM     22  C   UNL     1       7.119   4.471  15.311  0.00  0.00    +0.000 A 
ATOM     23  C   UNL     1       5.861   4.303  14.736  0.00  0.00    +0.000 A 
ATOM     24  C   UNL     1       4.709   4.507  15.498  0.00  0.00    +0.000 A 
ENDBRANCH  18  19
BRANCH  18  25
ATOM     25  C   UNL     1       2.833   4.120  18.209  0.00  0.00    +0.000 A 
ATOM     26  C   UNL     1       3.549   3.242  19.044  0.00  0.00    +0.000 A 
ATOM     27  C   UNL     1       2.930   2.128  19.620  0.00  0.00    +0.000 A 
ATOM     28  C   UNL     1       1.585   1.873  19.368  0.00  0.00    +0.000 A 
ATOM     29  C   UNL     1       0.857   2.733  18.550  0.00  0.00    +0.000 A 
ATOM     30  C   UNL     1       1.471   3.856  17.988  0.00  0.00    +0.000 A 
ENDBRANCH  18  25
ENDBRANCH   6  18
TORSDOF 6
ENDMDL
MODEL 9
REMARK VINA RESULT:      -7.0      2.047      2.647
REMARK  Name = 
REMARK  7 active torsions:
REMARK  status: ('A' for Active; 'I' for Inactive)
REMARK    1  A    between atoms: C_1  and  C_2
REMARK    2  A    between atoms: C_6  and  S_7
REMARK    3  A    between atoms: S_7  and  C_8
REMARK    4  A    between atoms: C_8  and  C_9
REMARK    5  A    between atoms: N_14  and  C_15
REMARK    6  A    between atoms: C_15  and  C_16
REMARK    7  A    between atoms: C_15  and  C_22
REMARK                            x       y       z     vdW  Elec       q    Type
REMARK                         _______ _______ _______ _____ _____    ______ ____
ROOT
ATOM      1  C   UNL     1       1.520   9.642  18.758  0.00  0.00    +0.000 C 
ATOM      2  O   UNL     1       1.765  10.610  18.035  0.00  0.00    +0.000 OA
ATOM      3  N   UNL     1       2.113   8.406  18.516  0.00  0.00    +0.000 N 
ATOM      4  C   UNL     1       3.056   8.273  17.401  0.00  0.00    +0.000 C 
ATOM      5  C   UNL     1       4.342   7.552  17.858  0.00  0.00    +0.000 C 
ATOM      6  N   UNL     1       4.115   6.232  18.522  0.00  0.00    +0.000 NA
ATOM      7  C   UNL     1       3.171   6.466  19.637  0.00  0.00    +0.000 C 
ATOM      8  C   UNL     1       1.857   7.162  19.248  0.00  0.00    +0.000 C 
ENDROOT
BRANCH   1   9
ATOM      9  C   UNL     1       0.640   9.761  19.999  0.00  0.00    +0.000 C 
BRANCH   9  10
ATOM     10  S   UNL     1      -0.947  10.572  19.673  0.00  0.00    +0.000 S 
BRANCH  10  16
ATOM     11  C   UNL     1      -3.113  12.751  23.689  0.00  0.00    +0.000 C 
ATOM     12  C   UNL     1      -1.944  12.765  22.754  0.00  0.00    +0.000 A 
ATOM     13  C   UNL     1      -0.931  13.693  22.876  0.00  0.00    +0.000 A 
ATOM     14  C   UNL     1       0.087  13.597  21.956  0.00  0.00    +0.000 A 
ATOM     15  N   UNL     1       0.130  12.669  20.983  0.00  0.00    +0.000 NA
ATOM     16  C   UNL     1      -0.900  11.802  20.951  0.00  0.00    +0.000 A 
ATOM     17  N   UNL     1      -1.948  11.826  21.787  0.00  0.00    +0.000 NA
ENDBRANCH  10  16
ENDBRANCH   9  10
ENDBRANCH   1   9
BRANCH   6  18
ATOM     18  C   UNL     1       3.672   5.188  17.546  0.00  0.00    +0.000 C 
BRANCH  18  19
ATOM     19  C   UNL     1       4.857   4.756  16.668  0.00  0.00    +0.000 A 
ATOM     20  C   UNL     1       6.164   4.730  17.188  0.00  0.00    +0.000 A 
ATOM     21  C   UNL     1       7.260   4.528  16.349  0.00  0.00    +0.000 A 
ATOM     22  C   UNL     1       7.065   4.343  14.982  0.00  0.00    +0.000 A 
ATOM     23  C   UNL     1       5.774   4.329  14.457  0.00  0.00    +0.000 A 
ATOM     24  C   UNL     1       4.675   4.522  15.293  0.00  0.00    +0.000 A 
ENDBRANCH  18  19
BRANCH  18  25
ATOM     25  C   UNL     1       2.976   3.958  18.150  0.00  0.00    +0.000 A 
ATOM     26  C   UNL     1       1.586   3.811  17.992  0.00  0.00    +0.000 A 
ATOM     27  C   UNL     1       0.914   2.699  18.509  0.00  0.00    +0.000 A 
ATOM     28  C   UNL     1       1.622   1.716  19.195  0.00  0.00    +0.000 A 
ATOM     29  C   UNL     1       3.001   1.839  19.356  0.00  0.00    +0.000 A 
ATOM     30  C   UNL     1       3.674   2.942  18.824  0.00  0.00    +0.000 A 
ENDBRANCH  18  25
ENDBRANCH   6  18
TORSDOF 6
ENDMDL
