MODEL 1
REMARK VINA RESULT:      -8.5      0.000      0.000
REMARK  Name = 
REMARK  5 active torsions:
REMARK  status: ('A' for Active; 'I' for Inactive)
REMARK    1  A    between atoms: C_6  and  C_7
REMARK    2  A    between atoms: C_10  and  N_11
REMARK    3  A    between atoms: C_19  and  N_20
REMARK    4  A    between atoms: N_20  and  C_21
REMARK    5  A    between atoms: C_21  and  C_22
REMARK                            x       y       z     vdW  Elec       q    Type
REMARK                         _______ _______ _______ _____ _____    ______ ____
ROOT
ATOM      1  O   UNL     1       5.987   3.350  15.422  0.00  0.00    +0.000 OA
ATOM      2  C   UNL     1       5.772   4.393  16.013  0.00  0.00    +0.000 C 
ATOM      3  N   UNL     1       6.563   5.474  16.086  0.00  0.00    +0.000 N 
ATOM      4  C   UNL     1       5.972   6.441  16.813  0.00  0.00    +0.000 C 
ATOM      5  O   UNL     1       6.462   7.537  17.025  0.00  0.00    +0.000 OA
ATOM      6  C   UNL     1       4.650   5.932  17.284  0.00  0.00    +0.000 C 
ATOM      7  C   UNL     1       4.545   4.676  16.808  0.00  0.00    +0.000 C 
ATOM      8  H   UNL     1       7.458   5.566  15.638  0.00  0.00    +0.000 HD
ENDROOT
BRANCH   6   9
ATOM      9  C   UNL     1       3.664   6.695  18.078  0.00  0.00    +0.000 A 
ATOM     10  C   UNL     1       3.135   7.900  17.612  0.00  0.00    +0.000 A 
ATOM     11  C   UNL     1       2.168   8.622  18.317  0.00  0.00    +0.000 A 
ATOM     12  C   UNL     1       1.704   8.202  19.560  0.00  0.00    +0.000 A 
ATOM     13  C   UNL     1       2.262   7.019  20.056  0.00  0.00    +0.000 A 
ATOM     14  C   UNL     1       3.215   6.276  19.334  0.00  0.00    +0.000 A 
BRANCH  12  15
ATOM     15  N   UNL     1       0.793   8.951  20.265  0.00  0.00    +0.000 N 
ATOM     16  C   UNL     1       0.223  10.206  19.749  0.00  0.00    +0.000 C 
ATOM     17  C   UNL     1       0.253  11.266  20.859  0.00  0.00    +0.000 C 
ATOM     18  O   UNL     1      -0.440  10.810  22.033  0.00  0.00    +0.000 OA
ATOM     19  C   UNL     1       0.171   9.609  22.537  0.00  0.00    +0.000 C 
ATOM     20  C   UNL     1       0.159   8.474  21.499  0.00  0.00    +0.000 C 
ENDBRANCH  12  15
ENDBRANCH   6   9
BRANCH   7  21
ATOM     21  N   UNL     1       3.540   3.710  16.873  0.00  0.00    +0.000 N 
ATOM     22  H   UNL     1       3.385   3.360  15.927  0.00  0.00    +0.000 HD
BRANCH  21  23
ATOM     23  C   UNL     1       3.669   2.548  17.761  0.00  0.00    +0.000 C 
BRANCH  23  24
ATOM     24  C   UNL     1       2.834   2.753  19.006  0.00  0.00    +0.000 A 
ATOM     25  C   UNL     1       3.391   2.618  20.283  0.00  0.00    +0.000 A 
ATOM     26  C   UNL     1       2.574   2.789  21.391  0.00  0.00    +0.000 A 
ATOM     27  N   UNL     1       1.261   3.091  21.320  0.00  0.00    +0.000 NA
ATOM     28  C   UNL     1       0.740   3.226  20.084  0.00  0.00    +0.000 A 
ATOM     29  C   UNL     1       1.473   3.073  18.916  0.00  0.00    +0.000 A 
ENDBRANCH  23  24
ENDBRANCH  21  23
ENDBRANCH   7  21
TORSDOF 5
ENDMDL
MODEL 2
REMARK VINA RESULT:      -7.8      2.267      4.645
REMARK  Name = 
REMARK  5 active torsions:
REMARK  status: ('A' for Active; 'I' for Inactive)
REMARK    1  A    between atoms: C_6  and  C_7
REMARK    2  A    between atoms: C_10  and  N_11
REMARK    3  A    between atoms: C_19  and  N_20
REMARK    4  A    between atoms: N_20  and  C_21
REMARK    5  A    between atoms: C_21  and  C_22
REMARK                            x       y       z     vdW  Elec       q    Type
REMARK                         _______ _______ _______ _____ _____    ______ ____
ROOT
ATOM      1  O   UNL     1       4.250   0.781  18.370  0.00  0.00    +0.000 OA
ATOM      2  C   UNL     1       3.381   1.614  18.558  0.00  0.00    +0.000 C 
ATOM      3  N   UNL     1       2.063   1.411  18.696  0.00  0.00    +0.000 N 
ATOM      4  C   UNL     1       1.426   2.577  18.915  0.00  0.00    +0.000 C 
ATOM      5  O   UNL     1       0.225   2.680  19.093  0.00  0.00    +0.000 OA
ATOM      6  C   UNL     1       2.440   3.673  18.904  0.00  0.00    +0.000 C 
ATOM      7  C   UNL     1       3.626   3.079  18.667  0.00  0.00    +0.000 C 
ATOM      8  H   UNL     1       1.612   0.512  18.670  0.00  0.00    +0.000 HD
ENDROOT
BRANCH   6   9
ATOM      9  C   UNL     1       2.166   5.105  19.148  0.00  0.00    +0.000 A 
ATOM     10  C   UNL     1       1.736   5.557  20.397  0.00  0.00    +0.000 A 
ATOM     11  C   UNL     1       1.512   6.909  20.672  0.00  0.00    +0.000 A 
ATOM     12  C   UNL     1       1.661   7.889  19.696  0.00  0.00    +0.000 A 
ATOM     13  C   UNL     1       2.047   7.439  18.429  0.00  0.00    +0.000 A 
ATOM     14  C   UNL     1       2.300   6.081  18.157  0.00  0.00    +0.000 A 
BRANCH  12  15
ATOM     15  N   UNL     1       1.385   9.208  19.968  0.00  0.00    +0.000 N 
ATOM     16  C   UNL     1       1.153   9.708  21.333  0.00  0.00    +0.000 C 
ATOM     17  C   UNL     1      -0.077  10.626  21.331  0.00  0.00    +0.000 C 
ATOM     18  O   UNL     1       0.078  11.701  20.388  0.00  0.00    +0.000 OA
ATOM     19  C   UNL     1       0.254  11.177  19.060  0.00  0.00    +0.000 C 
ATOM     20  C   UNL     1       1.489  10.265  18.957  0.00  0.00    +0.000 C 
ENDBRANCH  12  15
ENDBRANCH   6   9
BRANCH   7  21
ATOM     21  N   UNL     1       4.934   3.558  18.582  0.00  0.00    +0.000 N 
ATOM     22  H   UNL     1       5.562   2.785  18.807  0.00  0.00    +0.000 HD
BRANCH  21  23
ATOM     23  C   UNL     1       5.427   4.187  17.350  0.00  0.00    +0.000 C 
BRANCH  23  24
ATOM     24  C   UNL     1       6.329   5.353  17.690  0.00  0.00    +0.000 A 
ATOM     25  C   UNL     1       6.252   6.558  16.983  0.00  0.00    +0.000 A 
ATOM     26  C   UNL     1       7.121   7.587  17.316  0.00  0.00    +0.000 A 
ATOM     27  N   UNL     1       8.044   7.505  18.297  0.00  0.00    +0.000 NA
ATOM     28  C   UNL     1       8.101   6.341  18.976  0.00  0.00    +0.000 A 
ATOM     29  C   UNL     1       7.278   5.255  18.716  0.00  0.00    +0.000 A 
ENDBRANCH  23  24
ENDBRANCH  21  23
ENDBRANCH   7  21
TORSDOF 5
ENDMDL
MODEL 3
REMARK VINA RESULT:      -7.7      0.573      1.685
REMARK  Name = 
REMARK  5 active torsions:
REMARK  status: ('A' for Active; 'I' for Inactive)
REMARK    1  A    between atoms: C_6  and  C_7
REMARK    2  A    between atoms: C_10  and  N_11
REMARK    3  A    between atoms: C_19  and  N_20
REMARK    4  A    between atoms: N_20  and  C_21
REMARK    5  A    between atoms: C_21  and  C_22
REMARK                            x       y       z     vdW  Elec       q    Type
REMARK                         _______ _______ _______ _____ _____    ______ ____
ROOT
ATOM      1  O   UNL     1       5.934   3.010  15.287  0.00  0.00    +0.000 OA
ATOM      2  C   UNL     1       5.786   4.090  15.832  0.00  0.00    +0.000 C 
ATOM      3  N   UNL     1       6.632   5.130  15.839  0.00  0.00    +0.000 N 
ATOM      4  C   UNL     1       6.108   6.160  16.531  0.00  0.00    +0.000 C 
ATOM      5  O   UNL     1       6.658   7.236  16.680  0.00  0.00    +0.000 OA
ATOM      6  C   UNL     1       4.772   5.743  17.050  0.00  0.00    +0.000 C 
ATOM      7  C   UNL     1       4.592   4.473  16.636  0.00  0.00    +0.000 C 
ATOM      8  H   UNL     1       7.521   5.154  15.370  0.00  0.00    +0.000 HD
ENDROOT
BRANCH   6   9
ATOM      9  C   UNL     1       3.844   6.592  17.826  0.00  0.00    +0.000 A 
ATOM     10  C   UNL     1       3.361   6.186  19.072  0.00  0.00    +0.000 A 
ATOM     11  C   UNL     1       2.518   6.986  19.850  0.00  0.00    +0.000 A 
ATOM     12  C   UNL     1       2.069   8.225  19.405  0.00  0.00    +0.000 A 
ATOM     13  C   UNL     1       2.512   8.619  18.138  0.00  0.00    +0.000 A 
ATOM     14  C   UNL     1       3.383   7.828  17.365  0.00  0.00    +0.000 A 
BRANCH  12  15
ATOM     15  N   UNL     1       1.198   8.975  20.158  0.00  0.00    +0.000 N 
ATOM     16  C   UNL     1       0.903   8.675  21.569  0.00  0.00    +0.000 C 
ATOM     17  C   UNL     1      -0.613   8.754  21.794  0.00  0.00    +0.000 C 
ATOM     18  O   UNL     1      -1.131  10.037  21.402  0.00  0.00    +0.000 OA
ATOM     19  C   UNL     1      -0.867  10.277  20.008  0.00  0.00    +0.000 C 
ATOM     20  C   UNL     1       0.638  10.248  19.691  0.00  0.00    +0.000 C 
ENDBRANCH  12  15
ENDBRANCH   6   9
BRANCH   7  21
ATOM     21  N   UNL     1       3.540   3.566  16.766  0.00  0.00    +0.000 N 
ATOM     22  H   UNL     1       3.347   3.181  15.840  0.00  0.00    +0.000 HD
BRANCH  21  23
ATOM     23  C   UNL     1       3.628   2.441  17.705  0.00  0.00    +0.000 C 
BRANCH  23  24
ATOM     24  C   UNL     1       2.790   2.723  18.932  0.00  0.00    +0.000 A 
ATOM     25  C   UNL     1       1.447   3.102  18.821  0.00  0.00    +0.000 A 
ATOM     26  C   UNL     1       0.731   3.376  19.977  0.00  0.00    +0.000 A 
ATOM     27  N   UNL     1       1.247   3.293  21.221  0.00  0.00    +0.000 NA
ATOM     28  C   UNL     1       2.540   2.918  21.313  0.00  0.00    +0.000 A 
ATOM     29  C   UNL     1       3.338   2.625  20.217  0.00  0.00    +0.000 A 
ENDBRANCH  23  24
ENDBRANCH  21  23
ENDBRANCH   7  21
TORSDOF 5
ENDMDL
MODEL 4
REMARK VINA RESULT:      -7.6      2.303      4.539
REMARK  Name = 
REMARK  5 active torsions:
REMARK  status: ('A' for Active; 'I' for Inactive)
REMARK    1  A    between atoms: C_6  and  C_7
REMARK    2  A    between atoms: C_10  and  N_11
REMARK    3  A    between atoms: C_19  and  N_20
REMARK    4  A    between atoms: N_20  and  C_21
REMARK    5  A    between atoms: C_21  and  C_22
REMARK                            x       y       z     vdW  Elec       q    Type
REMARK                         _______ _______ _______ _____ _____    ______ ____
ROOT
ATOM      1  O   UNL     1       4.279   0.673  18.689  0.00  0.00    +0.000 OA
ATOM      2  C   UNL     1       3.425   1.541  18.695  0.00  0.00    +0.000 C 
ATOM      3  N   UNL     1       2.113   1.405  18.453  0.00  0.00    +0.000 N 
ATOM      4  C   UNL     1       1.486   2.591  18.575  0.00  0.00    +0.000 C 
ATOM      5  O   UNL     1       0.288   2.751  18.426  0.00  0.00    +0.000 OA
ATOM      6  C   UNL     1       2.504   3.626  18.922  0.00  0.00    +0.000 C 
ATOM      7  C   UNL     1       3.686   2.981  18.975  0.00  0.00    +0.000 C 
ATOM      8  H   UNL     1       1.653   0.538  18.238  0.00  0.00    +0.000 HD
ENDROOT
BRANCH   6   9
ATOM      9  C   UNL     1       2.229   5.053  19.187  0.00  0.00    +0.000 A 
ATOM     10  C   UNL     1       2.345   6.013  18.179  0.00  0.00    +0.000 A 
ATOM     11  C   UNL     1       2.048   7.363  18.386  0.00  0.00    +0.000 A 
ATOM     12  C   UNL     1       1.660   7.844  19.633  0.00  0.00    +0.000 A 
ATOM     13  C   UNL     1       1.585   6.897  20.660  0.00  0.00    +0.000 A 
ATOM     14  C   UNL     1       1.857   5.532  20.446  0.00  0.00    +0.000 A 
BRANCH  12  15
ATOM     15  N   UNL     1       1.423   9.183  19.832  0.00  0.00    +0.000 N 
ATOM     16  C   UNL     1       1.183   9.759  21.165  0.00  0.00    +0.000 C 
ATOM     17  C   UNL     1      -0.015  10.716  21.090  0.00  0.00    +0.000 C 
ATOM     18  O   UNL     1       0.194  11.736  20.099  0.00  0.00    +0.000 OA
ATOM     19  C   UNL     1       0.379  11.140  18.802  0.00  0.00    +0.000 C 
ATOM     20  C   UNL     1       1.583  10.183  18.772  0.00  0.00    +0.000 C 
ENDBRANCH  12  15
ENDBRANCH   6   9
BRANCH   7  21
ATOM     21  N   UNL     1       4.984   3.388  19.286  0.00  0.00    +0.000 N 
ATOM     22  H   UNL     1       5.612   2.977  18.594  0.00  0.00    +0.000 HD
BRANCH  21  23
ATOM     23  C   UNL     1       5.319   4.813  19.397  0.00  0.00    +0.000 C 
BRANCH  23  24
ATOM     24  C   UNL     1       6.073   5.266  18.166  0.00  0.00    +0.000 A 
ATOM     25  C   UNL     1       6.103   4.483  17.006  0.00  0.00    +0.000 A 
ATOM     26  C   UNL     1       6.832   4.931  15.914  0.00  0.00    +0.000 A 
ATOM     27  N   UNL     1       7.516   6.094  15.891  0.00  0.00    +0.000 NA
ATOM     28  C   UNL     1       7.471   6.842  17.012  0.00  0.00    +0.000 A 
ATOM     29  C   UNL     1       6.773   6.479  18.155  0.00  0.00    +0.000 A 
ENDBRANCH  23  24
ENDBRANCH  21  23
ENDBRANCH   7  21
TORSDOF 5
ENDMDL
MODEL 5
REMARK VINA RESULT:      -7.6      0.828      1.195
REMARK  Name = 
REMARK  5 active torsions:
REMARK  status: ('A' for Active; 'I' for Inactive)
REMARK    1  A    between atoms: C_6  and  C_7
REMARK    2  A    between atoms: C_10  and  N_11
REMARK    3  A    between atoms: C_19  and  N_20
REMARK    4  A    between atoms: N_20  and  C_21
REMARK    5  A    between atoms: C_21  and  C_22
REMARK                            x       y       z     vdW  Elec       q    Type
REMARK                         _______ _______ _______ _____ _____    ______ ____
ROOT
ATOM      1  O   UNL     1       5.087   2.877  15.967  0.00  0.00    +0.000 OA
ATOM      2  C   UNL     1       5.039   3.942  16.557  0.00  0.00    +0.000 C 
ATOM      3  N   UNL     1       6.048   4.787  16.812  0.00  0.00    +0.000 N 
ATOM      4  C   UNL     1       5.598   5.873  17.468  0.00  0.00    +0.000 C 
ATOM      5  O   UNL     1       6.301   6.809  17.809  0.00  0.00    +0.000 OA
ATOM      6  C   UNL     1       4.129   5.717  17.682  0.00  0.00    +0.000 C 
ATOM      7  C   UNL     1       3.800   4.528  17.140  0.00  0.00    +0.000 C 
ATOM      8  H   UNL     1       7.003   4.648  16.530  0.00  0.00    +0.000 HD
ENDROOT
BRANCH   6   9
ATOM      9  C   UNL     1       3.240   6.707  18.326  0.00  0.00    +0.000 A 
ATOM     10  C   UNL     1       2.845   7.868  17.659  0.00  0.00    +0.000 A 
ATOM     11  C   UNL     1       1.970   8.800  18.223  0.00  0.00    +0.000 A 
ATOM     12  C   UNL     1       1.471   8.649  19.513  0.00  0.00    +0.000 A 
ATOM     13  C   UNL     1       1.898   7.511  20.206  0.00  0.00    +0.000 A 
ATOM     14  C   UNL     1       2.758   6.557  19.629  0.00  0.00    +0.000 A 
BRANCH  12  15
ATOM     15  N   UNL     1       0.655   9.602  20.073  0.00  0.00    +0.000 N 
ATOM     16  C   UNL     1       0.557  10.974  19.550  0.00  0.00    +0.000 C 
ATOM     17  C   UNL     1       0.618  11.964  20.722  0.00  0.00    +0.000 C 
ATOM     18  O   UNL     1      -0.409  11.689  21.690  0.00  0.00    +0.000 OA
ATOM     19  C   UNL     1      -0.255  10.357  22.214  0.00  0.00    +0.000 C 
ATOM     20  C   UNL     1      -0.334   9.288  21.110  0.00  0.00    +0.000 C 
ENDBRANCH  12  15
ENDBRANCH   6   9
BRANCH   7  21
ATOM     21  N   UNL     1       2.590   3.850  16.988  0.00  0.00    +0.000 N 
ATOM     22  H   UNL     1       2.410   3.757  15.988  0.00  0.00    +0.000 HD
BRANCH  21  23
ATOM     23  C   UNL     1       2.385   2.530  17.600  0.00  0.00    +0.000 C 
BRANCH  23  24
ATOM     24  C   UNL     1       2.250   2.670  19.100  0.00  0.00    +0.000 A 
ATOM     25  C   UNL     1       1.059   3.118  19.682  0.00  0.00    +0.000 A 
ATOM     26  C   UNL     1       0.998   3.255  21.061  0.00  0.00    +0.000 A 
ATOM     27  N   UNL     1       2.021   2.971  21.893  0.00  0.00    +0.000 NA
ATOM     28  C   UNL     1       3.160   2.532  21.319  0.00  0.00    +0.000 A 
ATOM     29  C   UNL     1       3.320   2.365  19.951  0.00  0.00    +0.000 A 
ENDBRANCH  23  24
ENDBRANCH  21  23
ENDBRANCH   7  21
TORSDOF 5
ENDMDL
MODEL 6
REMARK VINA RESULT:      -7.5      2.108      6.726
REMARK  Name = 
REMARK  5 active torsions:
REMARK  status: ('A' for Active; 'I' for Inactive)
REMARK    1  A    between atoms: C_6  and  C_7
REMARK    2  A    between atoms: C_10  and  N_11
REMARK    3  A    between atoms: C_19  and  N_20
REMARK    4  A    between atoms: N_20  and  C_21
REMARK    5  A    between atoms: C_21  and  C_22
REMARK                            x       y       z     vdW  Elec       q    Type
REMARK                         _______ _______ _______ _____ _____    ______ ____
ROOT
ATOM      1  O   UNL     1       1.073   8.106  21.610  0.00  0.00    +0.000 OA
ATOM      2  C   UNL     1       1.503   8.106  20.470  0.00  0.00    +0.000 C 
ATOM      3  N   UNL     1       1.339   9.048  19.530  0.00  0.00    +0.000 N 
ATOM      4  C   UNL     1       1.985   8.702  18.400  0.00  0.00    +0.000 C 
ATOM      5  O   UNL     1       2.016   9.386  17.392  0.00  0.00    +0.000 OA
ATOM      6  C   UNL     1       2.633   7.375  18.617  0.00  0.00    +0.000 C 
ATOM      7  C   UNL     1       2.319   7.010  19.876  0.00  0.00    +0.000 C 
ATOM      8  H   UNL     1       0.832   9.907  19.656  0.00  0.00    +0.000 HD
ENDROOT
BRANCH   6   9
ATOM      9  C   UNL     1       3.476   6.655  17.639  0.00  0.00    +0.000 A 
ATOM     10  C   UNL     1       4.364   7.340  16.806  0.00  0.00    +0.000 A 
ATOM     11  C   UNL     1       5.207   6.685  15.904  0.00  0.00    +0.000 A 
ATOM     12  C   UNL     1       5.179   5.303  15.747  0.00  0.00    +0.000 A 
ATOM     13  C   UNL     1       4.260   4.613  16.546  0.00  0.00    +0.000 A 
ATOM     14  C   UNL     1       3.430   5.269  17.475  0.00  0.00    +0.000 A 
BRANCH  12  15
ATOM     15  N   UNL     1       5.976   4.680  14.817  0.00  0.00    +0.000 N 
ATOM     16  C   UNL     1       7.380   5.057  14.591  0.00  0.00    +0.000 C 
ATOM     17  C   UNL     1       7.638   5.154  13.081  0.00  0.00    +0.000 C 
ATOM     18  O   UNL     1       7.303   3.924  12.415  0.00  0.00    +0.000 OA
ATOM     19  C   UNL     1       5.913   3.611  12.618  0.00  0.00    +0.000 C 
ATOM     20  C   UNL     1       5.565   3.462  14.109  0.00  0.00    +0.000 C 
ENDBRANCH  12  15
ENDBRANCH   6   9
BRANCH   7  21
ATOM     21  N   UNL     1       2.656   5.909  20.663  0.00  0.00    +0.000 N 
ATOM     22  H   UNL     1       2.875   6.254  21.599  0.00  0.00    +0.000 HD
BRANCH  21  23
ATOM     23  C   UNL     1       1.731   4.778  20.812  0.00  0.00    +0.000 C 
BRANCH  23  24
ATOM     24  C   UNL     1       2.235   3.590  20.023  0.00  0.00    +0.000 A 
ATOM     25  C   UNL     1       3.527   3.088  20.215  0.00  0.00    +0.000 A 
ATOM     26  C   UNL     1       3.949   2.014  19.445  0.00  0.00    +0.000 A 
ATOM     27  N   UNL     1       3.183   1.405  18.516  0.00  0.00    +0.000 NA
ATOM     28  C   UNL     1       1.937   1.894  18.348  0.00  0.00    +0.000 A 
ATOM     29  C   UNL     1       1.425   2.964  19.066  0.00  0.00    +0.000 A 
ENDBRANCH  23  24
ENDBRANCH  21  23
ENDBRANCH   7  21
TORSDOF 5
ENDMDL
MODEL 7
REMARK VINA RESULT:      -7.4      2.226      4.546
REMARK  Name = 
REMARK  5 active torsions:
REMARK  status: ('A' for Active; 'I' for Inactive)
REMARK    1  A    between atoms: C_6  and  C_7
REMARK    2  A    between atoms: C_10  and  N_11
REMARK    3  A    between atoms: C_19  and  N_20
REMARK    4  A    between atoms: N_20  and  C_21
REMARK    5  A    between atoms: C_21  and  C_22
REMARK                            x       y       z     vdW  Elec       q    Type
REMARK                         _______ _______ _______ _____ _____    ______ ____
ROOT
ATOM      1  O   UNL     1       4.129   1.033  17.910  0.00  0.00    +0.000 OA
ATOM      2  C   UNL     1       3.302   1.830  18.318  0.00  0.00    +0.000 C 
ATOM      3  N   UNL     1       2.095   1.568  18.838  0.00  0.00    +0.000 N 
ATOM      4  C   UNL     1       1.478   2.710  19.197  0.00  0.00    +0.000 C 
ATOM      5  O   UNL     1       0.376   2.761  19.713  0.00  0.00    +0.000 OA
ATOM      6  C   UNL     1       2.377   3.853  18.860  0.00  0.00    +0.000 C 
ATOM      7  C   UNL     1       3.479   3.309  18.307  0.00  0.00    +0.000 C 
ATOM      8  H   UNL     1       1.711   0.648  18.971  0.00  0.00    +0.000 HD
ENDROOT
BRANCH   6   9
ATOM      9  C   UNL     1       2.098   5.279  19.130  0.00  0.00    +0.000 A 
ATOM     10  C   UNL     1       1.686   5.710  20.394  0.00  0.00    +0.000 A 
ATOM     11  C   UNL     1       1.459   7.056  20.693  0.00  0.00    +0.000 A 
ATOM     12  C   UNL     1       1.584   8.052  19.729  0.00  0.00    +0.000 A 
ATOM     13  C   UNL     1       1.952   7.623  18.449  0.00  0.00    +0.000 A 
ATOM     14  C   UNL     1       2.209   6.271  18.153  0.00  0.00    +0.000 A 
BRANCH  12  15
ATOM     15  N   UNL     1       1.304   9.364  20.026  0.00  0.00    +0.000 N 
ATOM     16  C   UNL     1       1.161   9.855  21.406  0.00  0.00    +0.000 C 
ATOM     17  C   UNL     1      -0.083  10.751  21.495  0.00  0.00    +0.000 C 
ATOM     18  O   UNL     1      -0.015  11.832  20.549  0.00  0.00    +0.000 OA
ATOM     19  C   UNL     1       0.077  11.315  19.209  0.00  0.00    +0.000 C 
ATOM     20  C   UNL     1       1.318  10.426  19.015  0.00  0.00    +0.000 C 
ENDBRANCH  12  15
ENDBRANCH   6   9
BRANCH   7  21
ATOM     21  N   UNL     1       4.675   3.848  17.833  0.00  0.00    +0.000 N 
ATOM     22  H   UNL     1       4.444   4.669  17.272  0.00  0.00    +0.000 HD
BRANCH  21  23
ATOM     23  C   UNL     1       5.748   4.230  18.759  0.00  0.00    +0.000 C 
BRANCH  23  24
ATOM     24  C   UNL     1       6.381   5.529  18.310  0.00  0.00    +0.000 A 
ATOM     25  C   UNL     1       7.596   5.967  18.849  0.00  0.00    +0.000 A 
ATOM     26  C   UNL     1       8.120   7.179  18.422  0.00  0.00    +0.000 A 
ATOM     27  N   UNL     1       7.533   7.970  17.501  0.00  0.00    +0.000 NA
ATOM     28  C   UNL     1       6.367   7.531  16.984  0.00  0.00    +0.000 A 
ATOM     29  C   UNL     1       5.763   6.337  17.347  0.00  0.00    +0.000 A 
ENDBRANCH  23  24
ENDBRANCH  21  23
ENDBRANCH   7  21
TORSDOF 5
ENDMDL
MODEL 8
REMARK VINA RESULT:      -7.4      2.423      4.594
REMARK  Name = 
REMARK  5 active torsions:
REMARK  status: ('A' for Active; 'I' for Inactive)
REMARK    1  A    between atoms: C_6  and  C_7
REMARK    2  A    between atoms: C_10  and  N_11
REMARK    3  A    between atoms: C_19  and  N_20
REMARK    4  A    between atoms: N_20  and  C_21
REMARK    5  A    between atoms: C_21  and  C_22
REMARK                            x       y       z     vdW  Elec       q    Type
REMARK                         _______ _______ _______ _____ _____    ______ ____
ROOT
ATOM      1  O   UNL     1       5.195   3.110  19.461  0.00  0.00    +0.000 OA
ATOM      2  C   UNL     1       4.166   3.759  19.533  0.00  0.00    +0.000 C 
ATOM      3  N   UNL     1       2.926   3.309  19.774  0.00  0.00    +0.000 N 
ATOM      4  C   UNL     1       2.051   4.332  19.801  0.00  0.00    +0.000 C 
ATOM      5  O   UNL     1       0.858   4.209  20.018  0.00  0.00    +0.000 OA
ATOM      6  C   UNL     1       2.799   5.596  19.532  0.00  0.00    +0.000 C 
ATOM      7  C   UNL     1       4.085   5.235  19.351  0.00  0.00    +0.000 C 
ATOM      8  H   UNL     1       2.683   2.348  19.942  0.00  0.00    +0.000 HD
ENDROOT
BRANCH   6   9
ATOM      9  C   UNL     1       2.219   6.956  19.515  0.00  0.00    +0.000 A 
ATOM     10  C   UNL     1       2.178   7.711  18.341  0.00  0.00    +0.000 A 
ATOM     11  C   UNL     1       1.596   8.980  18.281  0.00  0.00    +0.000 A 
ATOM     12  C   UNL     1       1.060   9.593  19.409  0.00  0.00    +0.000 A 
ATOM     13  C   UNL     1       1.138   8.862  20.600  0.00  0.00    +0.000 A 
ATOM     14  C   UNL     1       1.698   7.571  20.656  0.00  0.00    +0.000 A 
BRANCH  12  15
ATOM     15  N   UNL     1       0.540  10.863  19.346  0.00  0.00    +0.000 N 
ATOM     16  C   UNL     1      -0.905  11.130  19.275  0.00  0.00    +0.000 C 
ATOM     17  C   UNL     1      -1.169  12.187  18.193  0.00  0.00    +0.000 C 
ATOM     18  O   UNL     1      -0.418  13.387  18.444  0.00  0.00    +0.000 OA
ATOM     19  C   UNL     1       0.991  13.098  18.460  0.00  0.00    +0.000 C 
ATOM     20  C   UNL     1       1.358  12.065  19.540  0.00  0.00    +0.000 C 
ENDBRANCH  12  15
ENDBRANCH   6   9
BRANCH   7  21
ATOM     21  N   UNL     1       5.254   5.956  19.111  0.00  0.00    +0.000 N 
ATOM     22  H   UNL     1       6.038   5.306  19.176  0.00  0.00    +0.000 HD
BRANCH  21  23
ATOM     23  C   UNL     1       5.421   6.730  17.874  0.00  0.00    +0.000 C 
BRANCH  23  24
ATOM     24  C   UNL     1       5.833   5.815  16.742  0.00  0.00    +0.000 A 
ATOM     25  C   UNL     1       6.867   4.884  16.902  0.00  0.00    +0.000 A 
ATOM     26  C   UNL     1       7.223   4.088  15.823  0.00  0.00    +0.000 A 
ATOM     27  N   UNL     1       6.624   4.143  14.615  0.00  0.00    +0.000 NA
ATOM     28  C   UNL     1       5.624   5.038  14.479  0.00  0.00    +0.000 A 
ATOM     29  C   UNL     1       5.197   5.879  15.496  0.00  0.00    +0.000 A 
ENDBRANCH  23  24
ENDBRANCH  21  23
ENDBRANCH   7  21
TORSDOF 5
ENDMDL
MODEL 9
REMARK VINA RESULT:      -7.3      1.318      1.702
REMARK  Name = 
REMARK  5 active torsions:
REMARK  status: ('A' for Active; 'I' for Inactive)
REMARK    1  A    between atoms: C_6  and  C_7
REMARK    2  A    between atoms: C_10  and  N_11
REMARK    3  A    between atoms: C_19  and  N_20
REMARK    4  A    between atoms: N_20  and  C_21
REMARK    5  A    between atoms: C_21  and  C_22
REMARK                            x       y       z     vdW  Elec       q    Type
REMARK                         _______ _______ _______ _____ _____    ______ ____
ROOT
ATOM      1  O   UNL     1       4.427   3.258  16.433  0.00  0.00    +0.000 OA
ATOM      2  C   UNL     1       4.416   4.388  16.888  0.00  0.00    +0.000 C 
ATOM      3  N   UNL     1       5.440   5.249  16.975  0.00  0.00    +0.000 N 
ATOM      4  C   UNL     1       5.033   6.413  17.516  0.00  0.00    +0.000 C 
ATOM      5  O   UNL     1       5.756   7.377  17.694  0.00  0.00    +0.000 OA
ATOM      6  C   UNL     1       3.579   6.298  17.836  0.00  0.00    +0.000 C 
ATOM      7  C   UNL     1       3.215   5.053  17.467  0.00  0.00    +0.000 C 
ATOM      8  H   UNL     1       6.376   5.067  16.654  0.00  0.00    +0.000 HD
ENDROOT
BRANCH   6   9
ATOM      9  C   UNL     1       2.732   7.367  18.405  0.00  0.00    +0.000 A 
ATOM     10  C   UNL     1       2.393   8.497  17.656  0.00  0.00    +0.000 A 
ATOM     11  C   UNL     1       1.558   9.503  18.149  0.00  0.00    +0.000 A 
ATOM     12  C   UNL     1       1.048   9.463  19.443  0.00  0.00    +0.000 A 
ATOM     13  C   UNL     1       1.420   8.357  20.215  0.00  0.00    +0.000 A 
ATOM     14  C   UNL     1       2.239   7.329  19.711  0.00  0.00    +0.000 A 
BRANCH  12  15
ATOM     15  N   UNL     1       0.272  10.487  19.931  0.00  0.00    +0.000 N 
ATOM     16  C   UNL     1      -1.030  10.849  19.347  0.00  0.00    +0.000 C 
ATOM     17  C   UNL     1      -1.107  12.374  19.196  0.00  0.00    +0.000 C 
ATOM     18  O   UNL     1      -0.887  13.034  20.454  0.00  0.00    +0.000 OA
ATOM     19  C   UNL     1       0.412  12.696  20.973  0.00  0.00    +0.000 C 
ATOM     20  C   UNL     1       0.573  11.181  21.188  0.00  0.00    +0.000 C 
ENDBRANCH  12  15
ENDBRANCH   6   9
BRANCH   7  21
ATOM     21  N   UNL     1       1.998   4.372  17.475  0.00  0.00    +0.000 N 
ATOM     22  H   UNL     1       1.593   4.451  16.541  0.00  0.00    +0.000 HD
BRANCH  21  23
ATOM     23  C   UNL     1       1.928   2.960  17.871  0.00  0.00    +0.000 C 
BRANCH  23  24
ATOM     24  C   UNL     1       2.134   2.829  19.364  0.00  0.00    +0.000 A 
ATOM     25  C   UNL     1       3.380   2.478  19.896  0.00  0.00    +0.000 A 
ATOM     26  C   UNL     1       3.507   2.346  21.271  0.00  0.00    +0.000 A 
ATOM     27  N   UNL     1       2.498   2.544  22.144  0.00  0.00    +0.000 NA
ATOM     28  C   UNL     1       1.305   2.891  21.618  0.00  0.00    +0.000 A 
ATOM     29  C   UNL     1       1.078   3.046  20.258  0.00  0.00    +0.000 A 
ENDBRANCH  23  24
ENDBRANCH  21  23
ENDBRANCH   7  21
TORSDOF 5
ENDMDL
