MODEL 1
REMARK VINA RESULT:      -8.0      0.000      0.000
REMARK  Name = 
REMARK  9 active torsions:
REMARK  status: ('A' for Active; 'I' for Inactive)
REMARK    1  A    between atoms: C_1  and  C_2
REMARK    2  A    between atoms: C_2  and  C_3
REMARK    3  A    between atoms: C_3  and  C_4
REMARK    4  A    between atoms: C_4  and  N_5
REMARK    5  A    between atoms: N_5  and  C_6
REMARK    6  A    between atoms: C_7  and  C_9
REMARK    7  A    between atoms: C_9  and  N_10
REMARK    8  A    between atoms: C_12  and  C_13
REMARK    9  A    between atoms: C_13  and  C_14
REMARK                            x       y       z     vdW  Elec       q    Type
REMARK                         _______ _______ _______ _____ _____    ______ ____
ROOT
ATOM      1  N   UNL     1       4.812   6.127  18.406  0.00  0.00    +0.000 N 
ATOM      2  N   UNL     1       3.725   6.960  18.314  0.00  0.00    +0.000 NA
ATOM      3  C   UNL     1       2.590   6.577  18.820  0.00  0.00    +0.000 A 
ATOM      4  C   UNL     1       2.396   5.260  19.471  0.00  0.00    +0.000 A 
ATOM      5  C   UNL     1       1.151   4.780  19.895  0.00  0.00    +0.000 A 
ATOM      6  C   UNL     1       1.045   3.500  20.448  0.00  0.00    +0.000 A 
ATOM      7  C   UNL     1       2.178   2.700  20.587  0.00  0.00    +0.000 A 
ATOM      8  C   UNL     1       3.421   3.183  20.185  0.00  0.00    +0.000 A 
ATOM      9  C   UNL     1       3.526   4.462  19.620  0.00  0.00    +0.000 A 
ATOM     10  C   UNL     1       4.828   4.943  19.129  0.00  0.00    +0.000 A 
ATOM     11  O   UNL     1       5.844   4.292  19.362  0.00  0.00    +0.000 OA
ENDROOT
BRANCH   1  12
ATOM     12  C   UNL     1       6.014   6.545  17.692  0.00  0.00    +0.000 C 
BRANCH  12  15
ATOM     13  N   UNL     1       6.769   5.158  15.752  0.00  0.00    +0.000 N 
ATOM     14  C   UNL     1       7.620   4.409  16.664  0.00  0.00    +0.000 C 
ATOM     15  C   UNL     1       5.959   6.221  16.185  0.00  0.00    +0.000 C 
ATOM     16  O   UNL     1       5.252   6.861  15.398  0.00  0.00    +0.000 OA
BRANCH  13  17
ATOM     17  C   UNL     1       6.842   4.836  14.323  0.00  0.00    +0.000 C 
BRANCH  17  18
ATOM     18  C   UNL     1       5.685   3.978  13.797  0.00  0.00    +0.000 C 
BRANCH  18  20
ATOM     19  C   UNL     1       4.623   3.120  11.685  0.00  0.00    +0.000 C 
ATOM     20  C   UNL     1       5.935   3.414  12.399  0.00  0.00    +0.000 C 
ENDBRANCH  18  20
ENDBRANCH  17  18
ENDBRANCH  13  17
ENDBRANCH  12  15
ENDBRANCH   1  12
BRANCH   3  21
ATOM     21  C   UNL     1       1.410   7.528  18.667  0.00  0.00    +0.000 C 
BRANCH  21  22
ATOM     22  C   UNL     1       1.304   8.541  19.784  0.00  0.00    +0.000 A 
ATOM     23  C   UNL     1       1.506   8.143  21.109  0.00  0.00    +0.000 A 
ATOM     24  C   UNL     1       1.368   9.086  22.117  0.00  0.00    +0.000 A 
ATOM     25  N   UNL     1       1.063  10.382  21.899  0.00  0.00    +0.000 NA
ATOM     26  C   UNL     1       0.914  10.759  20.612  0.00  0.00    +0.000 A 
ATOM     27  C   UNL     1       1.036   9.892  19.537  0.00  0.00    +0.000 A 
ENDBRANCH  21  22
ENDBRANCH   3  21
TORSDOF 7
ENDMDL
MODEL 2
REMARK VINA RESULT:      -7.9      0.972      1.165
REMARK  Name = 
REMARK  9 active torsions:
REMARK  status: ('A' for Active; 'I' for Inactive)
REMARK    1  A    between atoms: C_1  and  C_2
REMARK    2  A    between atoms: C_2  and  C_3
REMARK    3  A    between atoms: C_3  and  C_4
REMARK    4  A    between atoms: C_4  and  N_5
REMARK    5  A    between atoms: N_5  and  C_6
REMARK    6  A    between atoms: C_7  and  C_9
REMARK    7  A    between atoms: C_9  and  N_10
REMARK    8  A    between atoms: C_12  and  C_13
REMARK    9  A    between atoms: C_13  and  C_14
REMARK                            x       y       z     vdW  Elec       q    Type
REMARK                         _______ _______ _______ _____ _____    ______ ____
ROOT
ATOM      1  N   UNL     1       5.212   5.811  18.392  0.00  0.00    +0.000 N 
ATOM      2  N   UNL     1       4.191   6.689  18.122  0.00  0.00    +0.000 NA
ATOM      3  C   UNL     1       2.970   6.347  18.409  0.00  0.00    +0.000 A 
ATOM      4  C   UNL     1       2.612   5.032  18.989  0.00  0.00    +0.000 A 
ATOM      5  C   UNL     1       1.293   4.598  19.173  0.00  0.00    +0.000 A 
ATOM      6  C   UNL     1       1.040   3.317  19.674  0.00  0.00    +0.000 A 
ATOM      7  C   UNL     1       2.098   2.470  20.001  0.00  0.00    +0.000 A 
ATOM      8  C   UNL     1       3.411   2.906  19.837  0.00  0.00    +0.000 A 
ATOM      9  C   UNL     1       3.665   4.187  19.325  0.00  0.00    +0.000 A 
ATOM     10  C   UNL     1       5.051   4.619  19.085  0.00  0.00    +0.000 A 
ATOM     11  O   UNL     1       5.983   3.925  19.484  0.00  0.00    +0.000 OA
ENDROOT
BRANCH   1  12
ATOM     12  C   UNL     1       6.538   6.188  17.915  0.00  0.00    +0.000 C 
BRANCH  12  15
ATOM     13  N   UNL     1       6.430   5.472  15.520  0.00  0.00    +0.000 N 
ATOM     14  C   UNL     1       5.377   6.455  15.311  0.00  0.00    +0.000 C 
ATOM     15  C   UNL     1       7.041   5.283  16.771  0.00  0.00    +0.000 C 
ATOM     16  O   UNL     1       7.924   4.433  16.941  0.00  0.00    +0.000 OA
BRANCH  13  17
ATOM     17  C   UNL     1       6.788   4.599  14.398  0.00  0.00    +0.000 C 
BRANCH  17  18
ATOM     18  C   UNL     1       5.617   3.817  13.792  0.00  0.00    +0.000 C 
BRANCH  18  20
ATOM     19  C   UNL     1       4.578   3.239  11.576  0.00  0.00    +0.000 C 
ATOM     20  C   UNL     1       5.877   3.344  12.362  0.00  0.00    +0.000 C 
ENDBRANCH  18  20
ENDBRANCH  17  18
ENDBRANCH  13  17
ENDBRANCH  12  15
ENDBRANCH   1  12
BRANCH   3  21
ATOM     21  C   UNL     1       1.874   7.347  18.063  0.00  0.00    +0.000 C 
BRANCH  21  22
ATOM     22  C   UNL     1       1.571   8.318  19.181  0.00  0.00    +0.000 A 
ATOM     23  C   UNL     1       1.655   7.899  20.512  0.00  0.00    +0.000 A 
ATOM     24  C   UNL     1       1.337   8.802  21.517  0.00  0.00    +0.000 A 
ATOM     25  N   UNL     1       0.964  10.078  21.291  0.00  0.00    +0.000 NA
ATOM     26  C   UNL     1       0.930  10.479  20.003  0.00  0.00    +0.000 A 
ATOM     27  C   UNL     1       1.234   9.654  18.932  0.00  0.00    +0.000 A 
ENDBRANCH  21  22
ENDBRANCH   3  21
TORSDOF 7
ENDMDL
MODEL 3
REMARK VINA RESULT:      -7.7      1.106      1.604
REMARK  Name = 
REMARK  9 active torsions:
REMARK  status: ('A' for Active; 'I' for Inactive)
REMARK    1  A    between atoms: C_1  and  C_2
REMARK    2  A    between atoms: C_2  and  C_3
REMARK    3  A    between atoms: C_3  and  C_4
REMARK    4  A    between atoms: C_4  and  N_5
REMARK    5  A    between atoms: N_5  and  C_6
REMARK    6  A    between atoms: C_7  and  C_9
REMARK    7  A    between atoms: C_9  and  N_10
REMARK    8  A    between atoms: C_12  and  C_13
REMARK    9  A    between atoms: C_13  and  C_14
REMARK                            x       y       z     vdW  Elec       q    Type
REMARK                         _______ _______ _______ _____ _____    ______ ____
ROOT
ATOM      1  N   UNL     1       5.260   5.974  18.255  0.00  0.00    +0.000 N 
ATOM      2  N   UNL     1       4.215   6.765  17.846  0.00  0.00    +0.000 NA
ATOM      3  C   UNL     1       3.003   6.438  18.185  0.00  0.00    +0.000 A 
ATOM      4  C   UNL     1       2.682   5.224  18.972  0.00  0.00    +0.000 A 
ATOM      5  C   UNL     1       1.375   4.787  19.225  0.00  0.00    +0.000 A 
ATOM      6  C   UNL     1       1.158   3.597  19.928  0.00  0.00    +0.000 A 
ATOM      7  C   UNL     1       2.240   2.847  20.386  0.00  0.00    +0.000 A 
ATOM      8  C   UNL     1       3.540   3.289  20.153  0.00  0.00    +0.000 A 
ATOM      9  C   UNL     1       3.758   4.477  19.440  0.00  0.00    +0.000 A 
ATOM     10  C   UNL     1       5.132   4.906  19.132  0.00  0.00    +0.000 A 
ATOM     11  O   UNL     1       6.082   4.314  19.638  0.00  0.00    +0.000 OA
ENDROOT
BRANCH   1  12
ATOM     12  C   UNL     1       6.576   6.307  17.721  0.00  0.00    +0.000 C 
BRANCH  12  15
ATOM     13  N   UNL     1       6.451   5.381  15.401  0.00  0.00    +0.000 N 
ATOM     14  C   UNL     1       5.407   6.352  15.108  0.00  0.00    +0.000 C 
ATOM     15  C   UNL     1       7.065   5.299  16.662  0.00  0.00    +0.000 C 
ATOM     16  O   UNL     1       7.940   4.459  16.904  0.00  0.00    +0.000 OA
BRANCH  13  17
ATOM     17  C   UNL     1       6.796   4.407  14.360  0.00  0.00    +0.000 C 
BRANCH  17  18
ATOM     18  C   UNL     1       5.597   3.699  13.719  0.00  0.00    +0.000 C 
BRANCH  18  20
ATOM     19  C   UNL     1       4.470   3.198  11.527  0.00  0.00    +0.000 C 
ATOM     20  C   UNL     1       5.803   3.375  12.240  0.00  0.00    +0.000 C 
ENDBRANCH  18  20
ENDBRANCH  17  18
ENDBRANCH  13  17
ENDBRANCH  12  15
ENDBRANCH   1  12
BRANCH   3  21
ATOM     21  C   UNL     1       1.880   7.335  17.683  0.00  0.00    +0.000 C 
BRANCH  21  22
ATOM     22  C   UNL     1       1.645   8.551  18.550  0.00  0.00    +0.000 A 
ATOM     23  C   UNL     1       1.707   9.830  17.990  0.00  0.00    +0.000 A 
ATOM     24  C   UNL     1       1.523  10.929  18.817  0.00  0.00    +0.000 A 
ATOM     25  N   UNL     1       1.269  10.843  20.138  0.00  0.00    +0.000 NA
ATOM     26  C   UNL     1       1.170   9.600  20.654  0.00  0.00    +0.000 A 
ATOM     27  C   UNL     1       1.334   8.442  19.910  0.00  0.00    +0.000 A 
ENDBRANCH  21  22
ENDBRANCH   3  21
TORSDOF 7
ENDMDL
MODEL 4
REMARK VINA RESULT:      -7.5      0.594      1.093
REMARK  Name = 
REMARK  9 active torsions:
REMARK  status: ('A' for Active; 'I' for Inactive)
REMARK    1  A    between atoms: C_1  and  C_2
REMARK    2  A    between atoms: C_2  and  C_3
REMARK    3  A    between atoms: C_3  and  C_4
REMARK    4  A    between atoms: C_4  and  N_5
REMARK    5  A    between atoms: N_5  and  C_6
REMARK    6  A    between atoms: C_7  and  C_9
REMARK    7  A    between atoms: C_9  and  N_10
REMARK    8  A    between atoms: C_12  and  C_13
REMARK    9  A    between atoms: C_13  and  C_14
REMARK                            x       y       z     vdW  Elec       q    Type
REMARK                         _______ _______ _______ _____ _____    ______ ____
ROOT
ATOM      1  N   UNL     1       4.738   5.827  18.221  0.00  0.00    +0.000 N 
ATOM      2  N   UNL     1       3.671   6.685  18.128  0.00  0.00    +0.000 NA
ATOM      3  C   UNL     1       2.577   6.408  18.775  0.00  0.00    +0.000 A 
ATOM      4  C   UNL     1       2.408   5.185  19.593  0.00  0.00    +0.000 A 
ATOM      5  C   UNL     1       1.194   4.806  20.180  0.00  0.00    +0.000 A 
ATOM      6  C   UNL     1       1.104   3.605  20.890  0.00  0.00    +0.000 A 
ATOM      7  C   UNL     1       2.222   2.783  21.022  0.00  0.00    +0.000 A 
ATOM      8  C   UNL     1       3.435   3.166  20.456  0.00  0.00    +0.000 A 
ATOM      9  C   UNL     1       3.523   4.367  19.736  0.00  0.00    +0.000 A 
ATOM     10  C   UNL     1       4.787   4.735  19.077  0.00  0.00    +0.000 A 
ATOM     11  O   UNL     1       5.802   4.077  19.294  0.00  0.00    +0.000 OA
ENDROOT
BRANCH   1  12
ATOM     12  C   UNL     1       5.880   6.112  17.359  0.00  0.00    +0.000 C 
BRANCH  12  15
ATOM     13  N   UNL     1       5.726   4.755  15.263  0.00  0.00    +0.000 N 
ATOM     14  C   UNL     1       6.228   3.611  16.009  0.00  0.00    +0.000 C 
ATOM     15  C   UNL     1       5.536   6.013  15.858  0.00  0.00    +0.000 C 
ATOM     16  O   UNL     1       5.125   6.983  15.210  0.00  0.00    +0.000 OA
BRANCH  13  17
ATOM     17  C   UNL     1       5.505   4.593  13.822  0.00  0.00    +0.000 C 
BRANCH  17  18
ATOM     18  C   UNL     1       6.399   3.547  13.147  0.00  0.00    +0.000 C 
BRANCH  18  20
ATOM     19  C   UNL     1       4.348   3.388  11.701  0.00  0.00    +0.000 C 
ATOM     20  C   UNL     1       5.808   2.985  11.855  0.00  0.00    +0.000 C 
ENDBRANCH  18  20
ENDBRANCH  17  18
ENDBRANCH  13  17
ENDBRANCH  12  15
ENDBRANCH   1  12
BRANCH   3  21
ATOM     21  C   UNL     1       1.416   7.381  18.614  0.00  0.00    +0.000 C 
BRANCH  21  22
ATOM     22  C   UNL     1       1.315   8.390  19.735  0.00  0.00    +0.000 A 
ATOM     23  C   UNL     1       1.038   9.729  19.446  0.00  0.00    +0.000 A 
ATOM     24  C   UNL     1       0.986  10.640  20.490  0.00  0.00    +0.000 A 
ATOM     25  N   UNL     1       1.171  10.312  21.785  0.00  0.00    +0.000 NA
ATOM     26  C   UNL     1       1.395   9.007  22.051  0.00  0.00    +0.000 A 
ATOM     27  C   UNL     1       1.461   8.023  21.078  0.00  0.00    +0.000 A 
ENDBRANCH  21  22
ENDBRANCH   3  21
TORSDOF 7
ENDMDL
MODEL 5
REMARK VINA RESULT:      -7.5      1.850      4.843
REMARK  Name = 
REMARK  9 active torsions:
REMARK  status: ('A' for Active; 'I' for Inactive)
REMARK    1  A    between atoms: C_1  and  C_2
REMARK    2  A    between atoms: C_2  and  C_3
REMARK    3  A    between atoms: C_3  and  C_4
REMARK    4  A    between atoms: C_4  and  N_5
REMARK    5  A    between atoms: N_5  and  C_6
REMARK    6  A    between atoms: C_7  and  C_9
REMARK    7  A    between atoms: C_9  and  N_10
REMARK    8  A    between atoms: C_12  and  C_13
REMARK    9  A    between atoms: C_13  and  C_14
REMARK                            x       y       z     vdW  Elec       q    Type
REMARK                         _______ _______ _______ _____ _____    ______ ____
ROOT
ATOM      1  N   UNL     1       3.053   7.677  18.273  0.00  0.00    +0.000 N 
ATOM      2  N   UNL     1       2.926   6.605  19.120  0.00  0.00    +0.000 NA
ATOM      3  C   UNL     1       2.099   6.683  20.121  0.00  0.00    +0.000 A 
ATOM      4  C   UNL     1       1.299   7.894  20.418  0.00  0.00    +0.000 A 
ATOM      5  C   UNL     1       0.511   8.041  21.567  0.00  0.00    +0.000 A 
ATOM      6  C   UNL     1      -0.168   9.240  21.802  0.00  0.00    +0.000 A 
ATOM      7  C   UNL     1      -0.071  10.291  20.891  0.00  0.00    +0.000 A 
ATOM      8  C   UNL     1       0.695  10.141  19.738  0.00  0.00    +0.000 A 
ATOM      9  C   UNL     1       1.385   8.942  19.507  0.00  0.00    +0.000 A 
ATOM     10  C   UNL     1       2.252   8.810  18.324  0.00  0.00    +0.000 A 
ATOM     11  O   UNL     1       2.242   9.685  17.461  0.00  0.00    +0.000 OA
ENDROOT
BRANCH   1  12
ATOM     12  C   UNL     1       4.100   7.588  17.261  0.00  0.00    +0.000 C 
BRANCH  12  15
ATOM     13  N   UNL     1       5.986   5.967  16.993  0.00  0.00    +0.000 N 
ATOM     14  C   UNL     1       6.915   7.078  17.140  0.00  0.00    +0.000 C 
ATOM     15  C   UNL     1       4.593   6.144  17.036  0.00  0.00    +0.000 C 
ATOM     16  O   UNL     1       3.813   5.195  16.893  0.00  0.00    +0.000 OA
BRANCH  13  17
ATOM     17  C   UNL     1       6.541   4.641  16.699  0.00  0.00    +0.000 C 
BRANCH  17  18
ATOM     18  C   UNL     1       6.974   4.433  15.244  0.00  0.00    +0.000 C 
BRANCH  18  20
ATOM     19  C   UNL     1       6.316   3.673  12.938  0.00  0.00    +0.000 C 
ATOM     20  C   UNL     1       5.811   4.120  14.303  0.00  0.00    +0.000 C 
ENDBRANCH  18  20
ENDBRANCH  17  18
ENDBRANCH  13  17
ENDBRANCH  12  15
ENDBRANCH   1  12
BRANCH   3  21
ATOM     21  C   UNL     1       2.017   5.475  21.044  0.00  0.00    +0.000 C 
BRANCH  21  22
ATOM     22  C   UNL     1       2.004   4.154  20.309  0.00  0.00    +0.000 A 
ATOM     23  C   UNL     1       3.188   3.424  20.164  0.00  0.00    +0.000 A 
ATOM     24  C   UNL     1       3.154   2.232  19.454  0.00  0.00    +0.000 A 
ATOM     25  N   UNL     1       2.037   1.717  18.903  0.00  0.00    +0.000 NA
ATOM     26  C   UNL     1       0.895   2.412  19.089  0.00  0.00    +0.000 A 
ATOM     27  C   UNL     1       0.827   3.608  19.785  0.00  0.00    +0.000 A 
ENDBRANCH  21  22
ENDBRANCH   3  21
TORSDOF 7
ENDMDL
MODEL 6
REMARK VINA RESULT:      -7.4      2.371      3.947
REMARK  Name = 
REMARK  9 active torsions:
REMARK  status: ('A' for Active; 'I' for Inactive)
REMARK    1  A    between atoms: C_1  and  C_2
REMARK    2  A    between atoms: C_2  and  C_3
REMARK    3  A    between atoms: C_3  and  C_4
REMARK    4  A    between atoms: C_4  and  N_5
REMARK    5  A    between atoms: N_5  and  C_6
REMARK    6  A    between atoms: C_7  and  C_9
REMARK    7  A    between atoms: C_9  and  N_10
REMARK    8  A    between atoms: C_12  and  C_13
REMARK    9  A    between atoms: C_13  and  C_14
REMARK                            x       y       z     vdW  Elec       q    Type
REMARK                         _______ _______ _______ _____ _____    ______ ____
ROOT
ATOM      1  N   UNL     1       4.813   4.606  18.044  0.00  0.00    +0.000 N 
ATOM      2  N   UNL     1       4.406   5.620  18.874  0.00  0.00    +0.000 NA
ATOM      3  C   UNL     1       3.265   5.514  19.490  0.00  0.00    +0.000 A 
ATOM      4  C   UNL     1       2.355   4.358  19.317  0.00  0.00    +0.000 A 
ATOM      5  C   UNL     1       1.067   4.296  19.864  0.00  0.00    +0.000 A 
ATOM      6  C   UNL     1       0.249   3.193  19.605  0.00  0.00    +0.000 A 
ATOM      7  C   UNL     1       0.713   2.146  18.809  0.00  0.00    +0.000 A 
ATOM      8  C   UNL     1       2.000   2.197  18.279  0.00  0.00    +0.000 A 
ATOM      9  C   UNL     1       2.818   3.308  18.531  0.00  0.00    +0.000 A 
ATOM     10  C   UNL     1       4.151   3.393  17.912  0.00  0.00    +0.000 A 
ATOM     11  O   UNL     1       4.607   2.421  17.313  0.00  0.00    +0.000 OA
ENDROOT
BRANCH   1  12
ATOM     12  C   UNL     1       6.025   4.846  17.268  0.00  0.00    +0.000 C 
BRANCH  12  15
ATOM     13  N   UNL     1       7.223   6.993  17.728  0.00  0.00    +0.000 N 
ATOM     14  C   UNL     1       7.973   6.310  18.772  0.00  0.00    +0.000 C 
ATOM     15  C   UNL     1       6.249   6.340  16.955  0.00  0.00    +0.000 C 
ATOM     16  O   UNL     1       5.606   6.935  16.082  0.00  0.00    +0.000 OA
BRANCH  13  17
ATOM     17  C   UNL     1       7.442   8.433  17.555  0.00  0.00    +0.000 C 
BRANCH  17  18
ATOM     18  C   UNL     1       8.503   9.039  18.480  0.00  0.00    +0.000 C 
BRANCH  18  20
ATOM     19  C   UNL     1      10.083  10.954  18.885  0.00  0.00    +0.000 C 
ATOM     20  C   UNL     1       8.820  10.501  18.166  0.00  0.00    +0.000 C 
ENDBRANCH  18  20
ENDBRANCH  17  18
ENDBRANCH  13  17
ENDBRANCH  12  15
ENDBRANCH   1  12
BRANCH   3  21
ATOM     21  C   UNL     1       2.851   6.680  20.379  0.00  0.00    +0.000 C 
BRANCH  21  22
ATOM     22  C   UNL     1       2.144   7.787  19.630  0.00  0.00    +0.000 A 
ATOM     23  C   UNL     1       1.313   8.676  20.319  0.00  0.00    +0.000 A 
ATOM     24  C   UNL     1       0.649   9.660  19.601  0.00  0.00    +0.000 A 
ATOM     25  N   UNL     1       0.767   9.829  18.269  0.00  0.00    +0.000 NA
ATOM     26  C   UNL     1       1.606   8.989  17.626  0.00  0.00    +0.000 A 
ATOM     27  C   UNL     1       2.316   7.978  18.254  0.00  0.00    +0.000 A 
ENDBRANCH  21  22
ENDBRANCH   3  21
TORSDOF 7
ENDMDL
MODEL 7
REMARK VINA RESULT:      -7.4      1.137      1.235
REMARK  Name = 
REMARK  9 active torsions:
REMARK  status: ('A' for Active; 'I' for Inactive)
REMARK    1  A    between atoms: C_1  and  C_2
REMARK    2  A    between atoms: C_2  and  C_3
REMARK    3  A    between atoms: C_3  and  C_4
REMARK    4  A    between atoms: C_4  and  N_5
REMARK    5  A    between atoms: N_5  and  C_6
REMARK    6  A    between atoms: C_7  and  C_9
REMARK    7  A    between atoms: C_9  and  N_10
REMARK    8  A    between atoms: C_12  and  C_13
REMARK    9  A    between atoms: C_13  and  C_14
REMARK                            x       y       z     vdW  Elec       q    Type
REMARK                         _______ _______ _______ _____ _____    ______ ____
ROOT
ATOM      1  N   UNL     1       5.327   5.122  18.528  0.00  0.00    +0.000 N 
ATOM      2  N   UNL     1       4.476   6.108  18.093  0.00  0.00    +0.000 NA
ATOM      3  C   UNL     1       3.193   5.937  18.219  0.00  0.00    +0.000 A 
ATOM      4  C   UNL     1       2.591   4.709  18.787  0.00  0.00    +0.000 A 
ATOM      5  C   UNL     1       1.213   4.455  18.801  0.00  0.00    +0.000 A 
ATOM      6  C   UNL     1       0.729   3.243  19.304  0.00  0.00    +0.000 A 
ATOM      7  C   UNL     1       1.614   2.286  19.799  0.00  0.00    +0.000 A 
ATOM      8  C   UNL     1       2.983   2.544  19.804  0.00  0.00    +0.000 A 
ATOM      9  C   UNL     1       3.469   3.755  19.291  0.00  0.00    +0.000 A 
ATOM     10  C   UNL     1       4.920   3.996  19.230  0.00  0.00    +0.000 A 
ATOM     11  O   UNL     1       5.691   3.210  19.776  0.00  0.00    +0.000 OA
ENDROOT
BRANCH   1  12
ATOM     12  C   UNL     1       6.742   5.303  18.226  0.00  0.00    +0.000 C 
BRANCH  12  15
ATOM     13  N   UNL     1       6.572   4.658  15.815  0.00  0.00    +0.000 N 
ATOM     14  C   UNL     1       5.931   3.419  16.229  0.00  0.00    +0.000 C 
ATOM     15  C   UNL     1       7.000   5.625  16.739  0.00  0.00    +0.000 C 
ATOM     16  O   UNL     1       7.559   6.668  16.377  0.00  0.00    +0.000 OA
BRANCH  13  17
ATOM     17  C   UNL     1       6.853   4.844  14.387  0.00  0.00    +0.000 C 
BRANCH  17  18
ATOM     18  C   UNL     1       5.888   4.119  13.442  0.00  0.00    +0.000 C 
BRANCH  18  20
ATOM     19  C   UNL     1       5.931   2.298  11.708  0.00  0.00    +0.000 C 
ATOM     20  C   UNL     1       6.556   3.609  12.166  0.00  0.00    +0.000 C 
ENDBRANCH  18  20
ENDBRANCH  17  18
ENDBRANCH  13  17
ENDBRANCH  12  15
ENDBRANCH   1  12
BRANCH   3  21
ATOM     21  C   UNL     1       2.295   7.050  17.695  0.00  0.00    +0.000 C 
BRANCH  21  22
ATOM     22  C   UNL     1       1.844   8.016  18.766  0.00  0.00    +0.000 A 
ATOM     23  C   UNL     1       1.913   7.647  20.113  0.00  0.00    +0.000 A 
ATOM     24  C   UNL     1       1.460   8.540  21.073  0.00  0.00    +0.000 A 
ATOM     25  N   UNL     1       0.967   9.763  20.790  0.00  0.00    +0.000 NA
ATOM     26  C   UNL     1       0.948  10.121  19.489  0.00  0.00    +0.000 A 
ATOM     27  C   UNL     1       1.381   9.301  18.459  0.00  0.00    +0.000 A 
ENDBRANCH  21  22
ENDBRANCH   3  21
TORSDOF 7
ENDMDL
MODEL 8
REMARK VINA RESULT:      -7.4      2.715      6.629
REMARK  Name = 
REMARK  9 active torsions:
REMARK  status: ('A' for Active; 'I' for Inactive)
REMARK    1  A    between atoms: C_1  and  C_2
REMARK    2  A    between atoms: C_2  and  C_3
REMARK    3  A    between atoms: C_3  and  C_4
REMARK    4  A    between atoms: C_4  and  N_5
REMARK    5  A    between atoms: N_5  and  C_6
REMARK    6  A    between atoms: C_7  and  C_9
REMARK    7  A    between atoms: C_9  and  N_10
REMARK    8  A    between atoms: C_12  and  C_13
REMARK    9  A    between atoms: C_13  and  C_14
REMARK                            x       y       z     vdW  Elec       q    Type
REMARK                         _______ _______ _______ _____ _____    ______ ____
ROOT
ATOM      1  N   UNL     1       2.227   6.366  19.606  0.00  0.00    +0.000 N 
ATOM      2  N   UNL     1       3.170   6.595  18.635  0.00  0.00    +0.000 NA
ATOM      3  C   UNL     1       3.640   5.588  17.959  0.00  0.00    +0.000 A 
ATOM      4  C   UNL     1       3.231   4.186  18.206  0.00  0.00    +0.000 A 
ATOM      5  C   UNL     1       3.828   3.082  17.583  0.00  0.00    +0.000 A 
ATOM      6  C   UNL     1       3.422   1.786  17.915  0.00  0.00    +0.000 A 
ATOM      7  C   UNL     1       2.417   1.586  18.860  0.00  0.00    +0.000 A 
ATOM      8  C   UNL     1       1.808   2.682  19.466  0.00  0.00    +0.000 A 
ATOM      9  C   UNL     1       2.221   3.982  19.141  0.00  0.00    +0.000 A 
ATOM     10  C   UNL     1       1.626   5.136  19.835  0.00  0.00    +0.000 A 
ATOM     11  O   UNL     1       0.660   4.969  20.575  0.00  0.00    +0.000 OA
ENDROOT
BRANCH   1  12
ATOM     12  C   UNL     1       1.849   7.510  20.428  0.00  0.00    +0.000 C 
BRANCH  12  15
ATOM     13  N   UNL     1       0.563   9.646  20.219  0.00  0.00    +0.000 N 
ATOM     14  C   UNL     1       0.073   9.442  21.574  0.00  0.00    +0.000 C 
ATOM     15  C   UNL     1       1.432   8.737  19.592  0.00  0.00    +0.000 C 
ATOM     16  O   UNL     1       1.829   8.912  18.433  0.00  0.00    +0.000 OA
BRANCH  13  17
ATOM     17  C   UNL     1       0.050  10.796  19.467  0.00  0.00    +0.000 C 
BRANCH  17  18
ATOM     18  C   UNL     1      -1.393  10.648  18.972  0.00  0.00    +0.000 C 
BRANCH  18  20
ATOM     19  C   UNL     1      -2.943   9.789  17.187  0.00  0.00    +0.000 C 
ATOM     20  C   UNL     1      -1.494  10.069  17.561  0.00  0.00    +0.000 C 
ENDBRANCH  18  20
ENDBRANCH  17  18
ENDBRANCH  13  17
ENDBRANCH  12  15
ENDBRANCH   1  12
BRANCH   3  21
ATOM     21  C   UNL     1       4.702   5.895  16.912  0.00  0.00    +0.000 C 
BRANCH  21  22
ATOM     22  C   UNL     1       6.009   6.373  17.502  0.00  0.00    +0.000 A 
ATOM     23  C   UNL     1       6.667   5.597  18.462  0.00  0.00    +0.000 A 
ATOM     24  C   UNL     1       7.847   6.076  19.012  0.00  0.00    +0.000 A 
ATOM     25  N   UNL     1       8.417   7.249  18.666  0.00  0.00    +0.000 NA
ATOM     26  C   UNL     1       7.792   7.964  17.707  0.00  0.00    +0.000 A 
ATOM     27  C   UNL     1       6.613   7.568  17.096  0.00  0.00    +0.000 A 
ENDBRANCH  21  22
ENDBRANCH   3  21
TORSDOF 7
ENDMDL
MODEL 9
REMARK VINA RESULT:      -7.3      2.134      3.740
REMARK  Name = 
REMARK  9 active torsions:
REMARK  status: ('A' for Active; 'I' for Inactive)
REMARK    1  A    between atoms: C_1  and  C_2
REMARK    2  A    between atoms: C_2  and  C_3
REMARK    3  A    between atoms: C_3  and  C_4
REMARK    4  A    between atoms: C_4  and  N_5
REMARK    5  A    between atoms: N_5  and  C_6
REMARK    6  A    between atoms: C_7  and  C_9
REMARK    7  A    between atoms: C_9  and  N_10
REMARK    8  A    between atoms: C_12  and  C_13
REMARK    9  A    between atoms: C_13  and  C_14
REMARK                            x       y       z     vdW  Elec       q    Type
REMARK                         _______ _______ _______ _____ _____    ______ ____
ROOT
ATOM      1  N   UNL     1       4.874   4.780  18.094  0.00  0.00    +0.000 N 
ATOM      2  N   UNL     1       3.860   5.610  17.684  0.00  0.00    +0.000 NA
ATOM      3  C   UNL     1       2.695   5.515  18.254  0.00  0.00    +0.000 A 
ATOM      4  C   UNL     1       2.390   4.526  19.314  0.00  0.00    +0.000 A 
ATOM      5  C   UNL     1       1.107   4.320  19.838  0.00  0.00    +0.000 A 
ATOM      6  C   UNL     1       0.893   3.325  20.796  0.00  0.00    +0.000 A 
ATOM      7  C   UNL     1       1.956   2.539  21.241  0.00  0.00    +0.000 A 
ATOM      8  C   UNL     1       3.236   2.754  20.736  0.00  0.00    +0.000 A 
ATOM      9  C   UNL     1       3.449   3.746  19.768  0.00  0.00    +0.000 A 
ATOM     10  C   UNL     1       4.788   3.924  19.183  0.00  0.00    +0.000 A 
ATOM     11  O   UNL     1       5.746   3.319  19.659  0.00  0.00    +0.000 OA
ENDROOT
BRANCH   1  12
ATOM     12  C   UNL     1       6.109   4.830  17.319  0.00  0.00    +0.000 C 
BRANCH  12  15
ATOM     13  N   UNL     1       7.408   6.916  17.784  0.00  0.00    +0.000 N 
ATOM     14  C   UNL     1       7.927   6.283  18.988  0.00  0.00    +0.000 C 
ATOM     15  C   UNL     1       6.509   6.266  16.923  0.00  0.00    +0.000 C 
ATOM     16  O   UNL     1       6.063   6.821  15.911  0.00  0.00    +0.000 OA
BRANCH  13  17
ATOM     17  C   UNL     1       7.777   8.313  17.529  0.00  0.00    +0.000 C 
BRANCH  17  18
ATOM     18  C   UNL     1       8.647   8.957  18.614  0.00  0.00    +0.000 C 
BRANCH  18  20
ATOM     19  C   UNL     1      10.084  10.930  19.220  0.00  0.00    +0.000 C 
ATOM     20  C   UNL     1       8.917  10.442  18.374  0.00  0.00    +0.000 C 
ENDBRANCH  18  20
ENDBRANCH  17  18
ENDBRANCH  13  17
ENDBRANCH  12  15
ENDBRANCH   1  12
BRANCH   3  21
ATOM     21  C   UNL     1       1.599   6.441  17.743  0.00  0.00    +0.000 C 
BRANCH  21  22
ATOM     22  C   UNL     1       1.583   7.790  18.424  0.00  0.00    +0.000 A 
ATOM     23  C   UNL     1       1.511   7.867  19.818  0.00  0.00    +0.000 A 
ATOM     24  C   UNL     1       1.463   9.119  20.416  0.00  0.00    +0.000 A 
ATOM     25  N   UNL     1       1.498  10.281  19.731  0.00  0.00    +0.000 NA
ATOM     26  C   UNL     1       1.611  10.188  18.390  0.00  0.00    +0.000 A 
ATOM     27  C   UNL     1       1.671   8.986  17.703  0.00  0.00    +0.000 A 
ENDBRANCH  21  22
ENDBRANCH   3  21
TORSDOF 7
ENDMDL
