MODEL 1
REMARK VINA RESULT:      -8.7      0.000      0.000
REMARK  Name = 
REMARK  5 active torsions:
REMARK  status: ('A' for Active; 'I' for Inactive)
REMARK    1  A    between atoms: O_1  and  C_2
REMARK    2  A    between atoms: C_5  and  C_6
REMARK    3  A    between atoms: C_7  and  C_8
REMARK    4  A    between atoms: N_11  and  C_12
REMARK    5  A    between atoms: C_12  and  C_13
REMARK                            x       y       z     vdW  Elec       q    Type
REMARK                         _______ _______ _______ _____ _____    ______ ____
ROOT
ATOM      1  C   UNL     1       7.427   7.023  18.007  0.00  0.00    +0.000 A 
ATOM      2  C   UNL     1       6.467   7.265  17.028  0.00  0.00    +0.000 A 
ATOM      3  C   UNL     1       5.535   6.282  16.715  0.00  0.00    +0.000 A 
ATOM      4  N   UNL     1       5.566   5.079  17.332  0.00  0.00    +0.000 N 
ATOM      5  C   UNL     1       6.552   4.787  18.210  0.00  0.00    +0.000 A 
ATOM      6  C   UNL     1       7.494   5.747  18.566  0.00  0.00    +0.000 A 
ENDROOT
BRANCH   1   8
ATOM      7  C   UNL     1       8.317   9.340  18.099  0.00  0.00    +0.000 C 
ATOM      8  C   UNL     1       8.377   8.045  18.462  0.00  0.00    +0.000 C 
BRANCH   7  12
ATOM      9  C   UNL     1      11.038  12.275  19.580  0.00  0.00    +0.000 A 
ATOM     10  C   UNL     1      10.254  11.541  20.462  0.00  0.00    +0.000 A 
ATOM     11  C   UNL     1       9.361  10.588  19.955  0.00  0.00    +0.000 A 
ATOM     12  C   UNL     1       9.247  10.376  18.573  0.00  0.00    +0.000 A 
ATOM     13  C   UNL     1      10.065  11.113  17.706  0.00  0.00    +0.000 A 
ATOM     14  C   UNL     1      10.954  12.068  18.211  0.00  0.00    +0.000 A 
BRANCH   9  15
ATOM     15  O   UNL     1      11.919  13.210  20.026  0.00  0.00    +0.000 OA
ATOM     16  H   UNL     1      12.558  13.409  19.323  0.00  0.00    +0.000 HD
ENDBRANCH   9  15
ENDBRANCH   7  12
ENDBRANCH   1   8
BRANCH   4  17
ATOM     17  C   UNL     1       4.417   4.156  17.183  0.00  0.00    +0.000 C 
BRANCH  17  18
ATOM     18  C   UNL     1       3.446   4.169  18.330  0.00  0.00    +0.000 A 
ATOM     19  C   UNL     1       2.976   5.401  18.828  0.00  0.00    +0.000 A 
ATOM     20  C   UNL     1       2.270   5.463  20.031  0.00  0.00    +0.000 A 
ATOM     21  C   UNL     1       1.995   4.295  20.739  0.00  0.00    +0.000 A 
ATOM     22  C   UNL     1       2.378   3.063  20.216  0.00  0.00    +0.000 A 
ATOM     23  C   UNL     1       3.091   2.997  19.021  0.00  0.00    +0.000 A 
ATOM     24 CL   UNL     1       3.558   1.432  18.458  0.00  0.00    +0.000 Cl
ENDBRANCH  17  18
ENDBRANCH   4  17
TORSDOF 5
ENDMDL
MODEL 2
REMARK VINA RESULT:      -8.7      0.224      1.030
REMARK  Name = 
REMARK  5 active torsions:
REMARK  status: ('A' for Active; 'I' for Inactive)
REMARK    1  A    between atoms: O_1  and  C_2
REMARK    2  A    between atoms: C_5  and  C_6
REMARK    3  A    between atoms: C_7  and  C_8
REMARK    4  A    between atoms: N_11  and  C_12
REMARK    5  A    between atoms: C_12  and  C_13
REMARK                            x       y       z     vdW  Elec       q    Type
REMARK                         _______ _______ _______ _____ _____    ______ ____
ROOT
ATOM      1  C   UNL     1       7.557   7.006  18.081  0.00  0.00    +0.000 A 
ATOM      2  C   UNL     1       6.833   7.120  16.897  0.00  0.00    +0.000 A 
ATOM      3  C   UNL     1       5.899   6.147  16.560  0.00  0.00    +0.000 A 
ATOM      4  N   UNL     1       5.703   5.072  17.357  0.00  0.00    +0.000 N 
ATOM      5  C   UNL     1       6.468   4.890  18.457  0.00  0.00    +0.000 A 
ATOM      6  C   UNL     1       7.401   5.847  18.841  0.00  0.00    +0.000 A 
ENDROOT
BRANCH   1   8
ATOM      7  C   UNL     1       8.389   9.342  18.217  0.00  0.00    +0.000 C 
ATOM      8  C   UNL     1       8.484   8.042  18.553  0.00  0.00    +0.000 C 
BRANCH   7  12
ATOM      9  C   UNL     1      10.993  12.455  19.536  0.00  0.00    +0.000 A 
ATOM     10  C   UNL     1      10.835  12.205  18.178  0.00  0.00    +0.000 A 
ATOM     11  C   UNL     1       9.981  11.174  17.766  0.00  0.00    +0.000 A 
ATOM     12  C   UNL     1       9.296  10.391  18.708  0.00  0.00    +0.000 A 
ATOM     13  C   UNL     1       9.456  10.677  20.070  0.00  0.00    +0.000 A 
ATOM     14  C   UNL     1      10.311  11.705  20.482  0.00  0.00    +0.000 A 
BRANCH   9  15
ATOM     15  O   UNL     1      11.810  13.447  19.983  0.00  0.00    +0.000 OA
ATOM     16  H   UNL     1      12.700  13.316  19.617  0.00  0.00    +0.000 HD
ENDBRANCH   9  15
ENDBRANCH   7  12
ENDBRANCH   1   8
BRANCH   4  17
ATOM     17  C   UNL     1       4.531   4.198  17.123  0.00  0.00    +0.000 C 
BRANCH  17  18
ATOM     18  C   UNL     1       3.489   4.240  18.205  0.00  0.00    +0.000 A 
ATOM     19  C   UNL     1       3.030   5.485  18.679  0.00  0.00    +0.000 A 
ATOM     20  C   UNL     1       2.250   5.566  19.835  0.00  0.00    +0.000 A 
ATOM     21  C   UNL     1       1.890   4.406  20.516  0.00  0.00    +0.000 A 
ATOM     22  C   UNL     1       2.264   3.163  20.012  0.00  0.00    +0.000 A 
ATOM     23  C   UNL     1       3.050   3.078  18.864  0.00  0.00    +0.000 A 
ATOM     24 CL   UNL     1       3.499   1.500  18.323  0.00  0.00    +0.000 Cl
ENDBRANCH  17  18
ENDBRANCH   4  17
TORSDOF 5
ENDMDL
MODEL 3
REMARK VINA RESULT:      -8.7      1.157      1.493
REMARK  Name = 
REMARK  5 active torsions:
REMARK  status: ('A' for Active; 'I' for Inactive)
REMARK    1  A    between atoms: O_1  and  C_2
REMARK    2  A    between atoms: C_5  and  C_6
REMARK    3  A    between atoms: C_7  and  C_8
REMARK    4  A    between atoms: N_11  and  C_12
REMARK    5  A    between atoms: C_12  and  C_13
REMARK                            x       y       z     vdW  Elec       q    Type
REMARK                         _______ _______ _______ _____ _____    ______ ____
ROOT
ATOM      1  C   UNL     1       7.534   7.065  18.168  0.00  0.00    +0.000 A 
ATOM      2  C   UNL     1       6.525   7.277  17.232  0.00  0.00    +0.000 A 
ATOM      3  C   UNL     1       5.581   6.284  16.995  0.00  0.00    +0.000 A 
ATOM      4  N   UNL     1       5.647   5.099  17.644  0.00  0.00    +0.000 N 
ATOM      5  C   UNL     1       6.678   4.834  18.478  0.00  0.00    +0.000 A 
ATOM      6  C   UNL     1       7.633   5.806  18.759  0.00  0.00    +0.000 A 
ENDROOT
BRANCH   1   8
ATOM      7  C   UNL     1       8.376   9.401  18.217  0.00  0.00    +0.000 C 
ATOM      8  C   UNL     1       8.502   8.101  18.545  0.00  0.00    +0.000 C 
BRANCH   7  12
ATOM      9  C   UNL     1      11.163  12.377  19.477  0.00  0.00    +0.000 A 
ATOM     10  C   UNL     1      10.445  11.649  20.418  0.00  0.00    +0.000 A 
ATOM     11  C   UNL     1       9.529  10.682  19.984  0.00  0.00    +0.000 A 
ATOM     12  C   UNL     1       9.327  10.450  18.615  0.00  0.00    +0.000 A 
ATOM     13  C   UNL     1      10.080  11.181  17.686  0.00  0.00    +0.000 A 
ATOM     14  C   UNL     1      10.992  12.150  18.119  0.00  0.00    +0.000 A 
BRANCH   9  15
ATOM     15  O   UNL     1      12.064  13.325  19.852  0.00  0.00    +0.000 OA
ATOM     16  H   UNL     1      12.692  13.474  19.127  0.00  0.00    +0.000 HD
ENDBRANCH   9  15
ENDBRANCH   7  12
ENDBRANCH   1   8
BRANCH   4  17
ATOM     17  C   UNL     1       4.496   4.170  17.580  0.00  0.00    +0.000 C 
BRANCH  17  18
ATOM     18  C   UNL     1       3.669   4.104  18.833  0.00  0.00    +0.000 A 
ATOM     19  C   UNL     1       3.812   3.005  19.703  0.00  0.00    +0.000 A 
ATOM     20  C   UNL     1       2.901   2.791  20.740  0.00  0.00    +0.000 A 
ATOM     21  C   UNL     1       1.855   3.688  20.945  0.00  0.00    +0.000 A 
ATOM     22  C   UNL     1       1.752   4.825  20.148  0.00  0.00    +0.000 A 
ATOM     23  C   UNL     1       2.652   5.037  19.106  0.00  0.00    +0.000 A 
ATOM     24 CL   UNL     1       2.435   6.454  18.143  0.00  0.00    +0.000 Cl
ENDBRANCH  17  18
ENDBRANCH   4  17
TORSDOF 5
ENDMDL
MODEL 4
REMARK VINA RESULT:      -8.6      1.154      1.804
REMARK  Name = 
REMARK  5 active torsions:
REMARK  status: ('A' for Active; 'I' for Inactive)
REMARK    1  A    between atoms: O_1  and  C_2
REMARK    2  A    between atoms: C_5  and  C_6
REMARK    3  A    between atoms: C_7  and  C_8
REMARK    4  A    between atoms: N_11  and  C_12
REMARK    5  A    between atoms: C_12  and  C_13
REMARK                            x       y       z     vdW  Elec       q    Type
REMARK                         _______ _______ _______ _____ _____    ______ ____
ROOT
ATOM      1  C   UNL     1       7.480   7.045  18.169  0.00  0.00    +0.000 A 
ATOM      2  C   UNL     1       6.510   7.289  17.199  0.00  0.00    +0.000 A 
ATOM      3  C   UNL     1       5.559   6.316  16.913  0.00  0.00    +0.000 A 
ATOM      4  N   UNL     1       5.580   5.121  17.546  0.00  0.00    +0.000 N 
ATOM      5  C   UNL     1       6.574   4.826  18.414  0.00  0.00    +0.000 A 
ATOM      6  C   UNL     1       7.535   5.776  18.745  0.00  0.00    +0.000 A 
ENDROOT
BRANCH   1   8
ATOM      7  C   UNL     1       8.388   9.356  18.241  0.00  0.00    +0.000 C 
ATOM      8  C   UNL     1       8.452   8.059  18.597  0.00  0.00    +0.000 C 
BRANCH   7  12
ATOM      9  C   UNL     1      11.127  12.404  19.433  0.00  0.00    +0.000 A 
ATOM     10  C   UNL     1      10.944  12.117  18.085  0.00  0.00    +0.000 A 
ATOM     11  C   UNL     1      10.046  11.108  17.715  0.00  0.00    +0.000 A 
ATOM     12  C   UNL     1       9.342  10.383  18.689  0.00  0.00    +0.000 A 
ATOM     13  C   UNL     1       9.528  10.706  20.039  0.00  0.00    +0.000 A 
ATOM     14  C   UNL     1      10.427  11.712  20.410  0.00  0.00    +0.000 A 
BRANCH   9  15
ATOM     15  O   UNL     1      11.988  13.376  19.839  0.00  0.00    +0.000 OA
ATOM     16  H   UNL     1      11.720  13.694  20.716  0.00  0.00    +0.000 HD
ENDBRANCH   9  15
ENDBRANCH   7  12
ENDBRANCH   1   8
BRANCH   4  17
ATOM     17  C   UNL     1       4.416   4.214  17.425  0.00  0.00    +0.000 C 
BRANCH  17  18
ATOM     18  C   UNL     1       3.595   4.073  18.677  0.00  0.00    +0.000 A 
ATOM     19  C   UNL     1       3.714   2.907  19.458  0.00  0.00    +0.000 A 
ATOM     20  C   UNL     1       2.804   2.638  20.483  0.00  0.00    +0.000 A 
ATOM     21  C   UNL     1       1.783   3.543  20.764  0.00  0.00    +0.000 A 
ATOM     22  C   UNL     1       1.705   4.740  20.058  0.00  0.00    +0.000 A 
ATOM     23  C   UNL     1       2.605   5.008  19.028  0.00  0.00    +0.000 A 
ATOM     24 CL   UNL     1       2.420   6.500  18.178  0.00  0.00    +0.000 Cl
ENDBRANCH  17  18
ENDBRANCH   4  17
TORSDOF 5
ENDMDL
MODEL 5
REMARK VINA RESULT:      -8.2      1.036      1.774
REMARK  Name = 
REMARK  5 active torsions:
REMARK  status: ('A' for Active; 'I' for Inactive)
REMARK    1  A    between atoms: O_1  and  C_2
REMARK    2  A    between atoms: C_5  and  C_6
REMARK    3  A    between atoms: C_7  and  C_8
REMARK    4  A    between atoms: N_11  and  C_12
REMARK    5  A    between atoms: C_12  and  C_13
REMARK                            x       y       z     vdW  Elec       q    Type
REMARK                         _______ _______ _______ _____ _____    ______ ____
ROOT
ATOM      1  C   UNL     1       7.442   7.434  17.908  0.00  0.00    +0.000 A 
ATOM      2  C   UNL     1       7.796   6.294  18.623  0.00  0.00    +0.000 A 
ATOM      3  C   UNL     1       7.032   5.138  18.506  0.00  0.00    +0.000 A 
ATOM      4  N   UNL     1       5.928   5.116  17.725  0.00  0.00    +0.000 N 
ATOM      5  C   UNL     1       5.509   6.242  17.105  0.00  0.00    +0.000 A 
ATOM      6  C   UNL     1       6.253   7.415  17.179  0.00  0.00    +0.000 A 
ENDROOT
BRANCH   1   8
ATOM      7  C   UNL     1       8.742   9.239  19.013  0.00  0.00    +0.000 C 
ATOM      8  C   UNL     1       8.255   8.656  17.901  0.00  0.00    +0.000 C 
BRANCH   7  12
ATOM      9  C   UNL     1      11.114  12.785  18.907  0.00  0.00    +0.000 A 
ATOM     10  C   UNL     1      10.676  12.202  17.724  0.00  0.00    +0.000 A 
ATOM     11  C   UNL     1       9.905  11.035  17.780  0.00  0.00    +0.000 A 
ATOM     12  C   UNL     1       9.581  10.448  19.013  0.00  0.00    +0.000 A 
ATOM     13  C   UNL     1      10.016  11.067  20.192  0.00  0.00    +0.000 A 
ATOM     14  C   UNL     1      10.789  12.232  20.137  0.00  0.00    +0.000 A 
BRANCH   9  15
ATOM     15  O   UNL     1      11.864  13.920  18.902  0.00  0.00    +0.000 OA
ATOM     16  H   UNL     1      11.405  14.604  18.388  0.00  0.00    +0.000 HD
ENDBRANCH   9  15
ENDBRANCH   7  12
ENDBRANCH   1   8
BRANCH   4  17
ATOM     17  C   UNL     1       5.289   3.819  17.405  0.00  0.00    +0.000 C 
BRANCH  17  18
ATOM     18  C   UNL     1       3.882   3.669  17.910  0.00  0.00    +0.000 A 
ATOM     19  C   UNL     1       2.822   4.267  17.200  0.00  0.00    +0.000 A 
ATOM     20  C   UNL     1       1.546   4.353  17.760  0.00  0.00    +0.000 A 
ATOM     21  C   UNL     1       1.299   3.815  19.021  0.00  0.00    +0.000 A 
ATOM     22  C   UNL     1       2.315   3.144  19.697  0.00  0.00    +0.000 A 
ATOM     23  C   UNL     1       3.593   3.065  19.147  0.00  0.00    +0.000 A 
ATOM     24 CL   UNL     1       4.805   2.245  20.064  0.00  0.00    +0.000 Cl
ENDBRANCH  17  18
ENDBRANCH   4  17
TORSDOF 5
ENDMDL
MODEL 6
REMARK VINA RESULT:      -8.1      1.368      2.222
REMARK  Name = 
REMARK  5 active torsions:
REMARK  status: ('A' for Active; 'I' for Inactive)
REMARK    1  A    between atoms: O_1  and  C_2
REMARK    2  A    between atoms: C_5  and  C_6
REMARK    3  A    between atoms: C_7  and  C_8
REMARK    4  A    between atoms: N_11  and  C_12
REMARK    5  A    between atoms: C_12  and  C_13
REMARK                            x       y       z     vdW  Elec       q    Type
REMARK                         _______ _______ _______ _____ _____    ______ ____
ROOT
ATOM      1  C   UNL     1       7.496   7.289  17.935  0.00  0.00    +0.000 A 
ATOM      2  C   UNL     1       7.413   6.049  18.563  0.00  0.00    +0.000 A 
ATOM      3  C   UNL     1       6.438   5.139  18.171  0.00  0.00    +0.000 A 
ATOM      4  N   UNL     1       5.548   5.454  17.203  0.00  0.00    +0.000 N 
ATOM      5  C   UNL     1       5.546   6.689  16.653  0.00  0.00    +0.000 A 
ATOM      6  C   UNL     1       6.515   7.624  17.002  0.00  0.00    +0.000 A 
ENDROOT
BRANCH   1   8
ATOM      7  C   UNL     1       8.329   9.538  18.579  0.00  0.00    +0.000 C 
ATOM      8  C   UNL     1       8.558   8.260  18.223  0.00  0.00    +0.000 C 
BRANCH   7  12
ATOM      9  C   UNL     1      11.374  12.416  19.390  0.00  0.00    +0.000 A 
ATOM     10  C   UNL     1      11.114  12.024  18.083  0.00  0.00    +0.000 A 
ATOM     11  C   UNL     1      10.116  11.073  17.838  0.00  0.00    +0.000 A 
ATOM     12  C   UNL     1       9.387  10.509  18.897  0.00  0.00    +0.000 A 
ATOM     13  C   UNL     1       9.654  10.937  20.204  0.00  0.00    +0.000 A 
ATOM     14  C   UNL     1      10.653  11.886  20.450  0.00  0.00    +0.000 A 
BRANCH   9  15
ATOM     15  O   UNL     1      12.333  13.338  19.676  0.00  0.00    +0.000 OA
ATOM     16  H   UNL     1      12.079  14.193  19.292  0.00  0.00    +0.000 HD
ENDBRANCH   9  15
ENDBRANCH   7  12
ENDBRANCH   1   8
BRANCH   4  17
ATOM     17  C   UNL     1       4.701   4.388  16.619  0.00  0.00    +0.000 C 
BRANCH  17  18
ATOM     18  C   UNL     1       3.688   3.801  17.561  0.00  0.00    +0.000 A 
ATOM     19  C   UNL     1       3.722   2.422  17.847  0.00  0.00    +0.000 A 
ATOM     20  C   UNL     1       2.665   1.806  18.519  0.00  0.00    +0.000 A 
ATOM     21  C   UNL     1       1.574   2.561  18.945  0.00  0.00    +0.000 A 
ATOM     22  C   UNL     1       1.566   3.939  18.746  0.00  0.00    +0.000 A 
ATOM     23  C   UNL     1       2.614   4.557  18.066  0.00  0.00    +0.000 A 
ATOM     24 CL   UNL     1       2.513   6.264  17.831  0.00  0.00    +0.000 Cl
ENDBRANCH  17  18
ENDBRANCH   4  17
TORSDOF 5
ENDMDL
MODEL 7
REMARK VINA RESULT:      -8.1      1.081      1.655
REMARK  Name = 
REMARK  5 active torsions:
REMARK  status: ('A' for Active; 'I' for Inactive)
REMARK    1  A    between atoms: O_1  and  C_2
REMARK    2  A    between atoms: C_5  and  C_6
REMARK    3  A    between atoms: C_7  and  C_8
REMARK    4  A    between atoms: N_11  and  C_12
REMARK    5  A    between atoms: C_12  and  C_13
REMARK                            x       y       z     vdW  Elec       q    Type
REMARK                         _______ _______ _______ _____ _____    ______ ____
ROOT
ATOM      1  C   UNL     1       7.495   7.606  17.892  0.00  0.00    +0.000 A 
ATOM      2  C   UNL     1       7.857   6.584  18.766  0.00  0.00    +0.000 A 
ATOM      3  C   UNL     1       7.046   5.462  18.891  0.00  0.00    +0.000 A 
ATOM      4  N   UNL     1       5.891   5.362  18.194  0.00  0.00    +0.000 N 
ATOM      5  C   UNL     1       5.471   6.388  17.420  0.00  0.00    +0.000 A 
ATOM      6  C   UNL     1       6.259   7.521  17.251  0.00  0.00    +0.000 A 
ENDROOT
BRANCH   1   8
ATOM      7  C   UNL     1       8.554   9.764  18.516  0.00  0.00    +0.000 C 
ATOM      8  C   UNL     1       8.348   8.771  17.630  0.00  0.00    +0.000 C 
BRANCH   7  12
ATOM      9  C   UNL     1      10.996  13.198  17.838  0.00  0.00    +0.000 A 
ATOM     10  C   UNL     1       9.637  13.238  17.549  0.00  0.00    +0.000 A 
ATOM     11  C   UNL     1       8.855  12.098  17.771  0.00  0.00    +0.000 A 
ATOM     12  C   UNL     1       9.430  10.920  18.273  0.00  0.00    +0.000 A 
ATOM     13  C   UNL     1      10.797  10.912  18.577  0.00  0.00    +0.000 A 
ATOM     14  C   UNL     1      11.581  12.050  18.352  0.00  0.00    +0.000 A 
BRANCH   9  15
ATOM     15  O   UNL     1      11.795  14.281  17.640  0.00  0.00    +0.000 OA
ATOM     16  H   UNL     1      12.460  14.321  18.345  0.00  0.00    +0.000 HD
ENDBRANCH   9  15
ENDBRANCH   7  12
ENDBRANCH   1   8
BRANCH   4  17
ATOM     17  C   UNL     1       5.187   4.060  18.137  0.00  0.00    +0.000 C 
BRANCH  17  18
ATOM     18  C   UNL     1       3.926   3.990  18.951  0.00  0.00    +0.000 A 
ATOM     19  C   UNL     1       3.485   5.132  19.649  0.00  0.00    +0.000 A 
ATOM     20  C   UNL     1       2.464   5.040  20.596  0.00  0.00    +0.000 A 
ATOM     21  C   UNL     1       1.845   3.816  20.839  0.00  0.00    +0.000 A 
ATOM     22  C   UNL     1       2.211   2.697  20.095  0.00  0.00    +0.000 A 
ATOM     23  C   UNL     1       3.237   2.781  19.156  0.00  0.00    +0.000 A 
ATOM     24 CL   UNL     1       3.652   1.340  18.300  0.00  0.00    +0.000 Cl
ENDBRANCH  17  18
ENDBRANCH   4  17
TORSDOF 5
ENDMDL
MODEL 8
REMARK VINA RESULT:      -8.0      0.648      1.177
REMARK  Name = 
REMARK  5 active torsions:
REMARK  status: ('A' for Active; 'I' for Inactive)
REMARK    1  A    between atoms: O_1  and  C_2
REMARK    2  A    between atoms: C_5  and  C_6
REMARK    3  A    between atoms: C_7  and  C_8
REMARK    4  A    between atoms: N_11  and  C_12
REMARK    5  A    between atoms: C_12  and  C_13
REMARK                            x       y       z     vdW  Elec       q    Type
REMARK                         _______ _______ _______ _____ _____    ______ ____
ROOT
ATOM      1  C   UNL     1       7.404   7.401  17.882  0.00  0.00    +0.000 A 
ATOM      2  C   UNL     1       7.606   6.245  18.631  0.00  0.00    +0.000 A 
ATOM      3  C   UNL     1       6.719   5.182  18.514  0.00  0.00    +0.000 A 
ATOM      4  N   UNL     1       5.641   5.267  17.701  0.00  0.00    +0.000 N 
ATOM      5  C   UNL     1       5.371   6.418  17.045  0.00  0.00    +0.000 A 
ATOM      6  C   UNL     1       6.242   7.500  17.118  0.00  0.00    +0.000 A 
ENDROOT
BRANCH   1   8
ATOM      7  C   UNL     1       8.560   9.335  18.928  0.00  0.00    +0.000 C 
ATOM      8  C   UNL     1       8.352   8.523  17.874  0.00  0.00    +0.000 C 
BRANCH   7  12
ATOM      9  C   UNL     1      11.416  12.503  19.070  0.00  0.00    +0.000 A 
ATOM     10  C   UNL     1      10.898  11.976  20.247  0.00  0.00    +0.000 A 
ATOM     11  C   UNL     1       9.956  10.942  20.179  0.00  0.00    +0.000 A 
ATOM     12  C   UNL     1       9.528  10.443  18.939  0.00  0.00    +0.000 A 
ATOM     13  C   UNL     1      10.082  10.975  17.768  0.00  0.00    +0.000 A 
ATOM     14  C   UNL     1      11.020  12.011  17.835  0.00  0.00    +0.000 A 
BRANCH   9  15
ATOM     15  O   UNL     1      12.333  13.507  19.087  0.00  0.00    +0.000 OA
ATOM     16  H   UNL     1      12.304  13.982  18.241  0.00  0.00    +0.000 HD
ENDBRANCH   9  15
ENDBRANCH   7  12
ENDBRANCH   1   8
BRANCH   4  17
ATOM     17  C   UNL     1       4.868   4.043  17.388  0.00  0.00    +0.000 C 
BRANCH  17  18
ATOM     18  C   UNL     1       3.574   3.906  18.141  0.00  0.00    +0.000 A 
ATOM     19  C   UNL     1       2.859   5.063  18.508  0.00  0.00    +0.000 A 
ATOM     20  C   UNL     1       1.792   4.988  19.406  0.00  0.00    +0.000 A 
ATOM     21  C   UNL     1       1.402   3.755  19.924  0.00  0.00    +0.000 A 
ATOM     22  C   UNL     1       2.044   2.593  19.504  0.00  0.00    +0.000 A 
ATOM     23  C   UNL     1       3.116   2.664  18.616  0.00  0.00    +0.000 A 
ATOM     24 CL   UNL     1       3.878   1.181  18.170  0.00  0.00    +0.000 Cl
ENDBRANCH  17  18
ENDBRANCH   4  17
TORSDOF 5
ENDMDL
MODEL 9
REMARK VINA RESULT:      -8.0      1.522      1.928
REMARK  Name = 
REMARK  5 active torsions:
REMARK  status: ('A' for Active; 'I' for Inactive)
REMARK    1  A    between atoms: O_1  and  C_2
REMARK    2  A    between atoms: C_5  and  C_6
REMARK    3  A    between atoms: C_7  and  C_8
REMARK    4  A    between atoms: N_11  and  C_12
REMARK    5  A    between atoms: C_12  and  C_13
REMARK                            x       y       z     vdW  Elec       q    Type
REMARK                         _______ _______ _______ _____ _____    ______ ____
ROOT
ATOM      1  C   UNL     1       7.657   7.803  17.872  0.00  0.00    +0.000 A 
ATOM      2  C   UNL     1       6.443   7.442  17.294  0.00  0.00    +0.000 A 
ATOM      3  C   UNL     1       5.796   6.284  17.711  0.00  0.00    +0.000 A 
ATOM      4  N   UNL     1       6.347   5.485  18.653  0.00  0.00    +0.000 N 
ATOM      5  C   UNL     1       7.573   5.763  19.151  0.00  0.00    +0.000 A 
ATOM      6  C   UNL     1       8.247   6.921  18.778  0.00  0.00    +0.000 A 
ENDROOT
BRANCH   1   8
ATOM      7  C   UNL     1       8.777   9.932  18.490  0.00  0.00    +0.000 C 
ATOM      8  C   UNL     1       8.347   9.060  17.559  0.00  0.00    +0.000 C 
BRANCH   7  12
ATOM      9  C   UNL     1      10.771  13.617  17.679  0.00  0.00    +0.000 A 
ATOM     10  C   UNL     1       9.391  13.591  17.843  0.00  0.00    +0.000 A 
ATOM     11  C   UNL     1       8.755  12.370  18.101  0.00  0.00    +0.000 A 
ATOM     12  C   UNL     1       9.494  11.180  18.186  0.00  0.00    +0.000 A 
ATOM     13  C   UNL     1      10.886  11.236  18.038  0.00  0.00    +0.000 A 
ATOM     14  C   UNL     1      11.522  12.455  17.777  0.00  0.00    +0.000 A 
BRANCH   9  15
ATOM     15  O   UNL     1      11.432  14.779  17.428  0.00  0.00    +0.000 OA
ATOM     16  H   UNL     1      12.344  14.704  17.751  0.00  0.00    +0.000 HD
ENDBRANCH   9  15
ENDBRANCH   7  12
ENDBRANCH   1   8
BRANCH   4  17
ATOM     17  C   UNL     1       5.528   4.416  19.269  0.00  0.00    +0.000 C 
BRANCH  17  18
ATOM     18  C   UNL     1       4.098   4.373  18.808  0.00  0.00    +0.000 A 
ATOM     19  C   UNL     1       3.074   4.790  19.680  0.00  0.00    +0.000 A 
ATOM     20  C   UNL     1       1.733   4.541  19.379  0.00  0.00    +0.000 A 
ATOM     21  C   UNL     1       1.393   3.902  18.189  0.00  0.00    +0.000 A 
ATOM     22  C   UNL     1       2.389   3.561  17.277  0.00  0.00    +0.000 A 
ATOM     23  C   UNL     1       3.728   3.798  17.578  0.00  0.00    +0.000 A 
ATOM     24 CL   UNL     1       4.904   3.316  16.409  0.00  0.00    +0.000 Cl
ENDBRANCH  17  18
ENDBRANCH   4  17
TORSDOF 5
ENDMDL
