MODEL 1
REMARK VINA RESULT:      -8.1      0.000      0.000
REMARK  Name = 
REMARK  10 active torsions:
REMARK  status: ('A' for Active; 'I' for Inactive)
REMARK    1  A    between atoms: C_1  and  O_2
REMARK    2  A    between atoms: O_2  and  C_3
REMARK    3  A    between atoms: C_3  and  C_4
REMARK    4  A    between atoms: C_5  and  C_6
REMARK    5  A    between atoms: C_8  and  C_9
REMARK    6  A    between atoms: C_13  and  C_14
REMARK    7  A    between atoms: C_14  and  C_15
REMARK    8  A    between atoms: C_15  and  C_16
REMARK    9  A    between atoms: C_16  and  O_18
REMARK   10  A    between atoms: N_24  and  C_25
REMARK                            x       y       z     vdW  Elec       q    Type
REMARK                         _______ _______ _______ _____ _____    ______ ____
ROOT
ATOM      1  C   UNL     1       1.410   9.086  19.525  0.00  0.00    +0.000 A 
ATOM      2  N   UNL     1       1.998   7.904  19.542  0.00  0.00    +0.000 NA
ATOM      3  C   UNL     1       2.559   7.819  18.277  0.00  0.00    +0.000 A 
ATOM      4  N   UNL     1       2.371   8.919  17.533  0.00  0.00    +0.000 NA
ATOM      5  O   UNL     1       1.610   9.740  18.338  0.00  0.00    +0.000 OA
ENDROOT
BRANCH   3   6
ATOM      6  C   UNL     1       3.253   6.640  17.759  0.00  0.00    +0.000 A 
ATOM      7  C   UNL     1       4.446   6.794  17.027  0.00  0.00    +0.000 A 
ATOM      8  C   UNL     1       5.114   5.685  16.509  0.00  0.00    +0.000 A 
ATOM      9  C   UNL     1       4.603   4.410  16.708  0.00  0.00    +0.000 A 
ATOM     10  C   UNL     1       3.415   4.221  17.430  0.00  0.00    +0.000 A 
ATOM     11  C   UNL     1       2.747   5.347  17.956  0.00  0.00    +0.000 A 
BRANCH  10  12
ATOM     12  C   UNL     1       2.902   2.822  17.665  0.00  0.00    +0.000 C 
BRANCH  12  13
ATOM     13  C   UNL     1       2.502   2.558  19.116  0.00  0.00    +0.000 C 
BRANCH  13  14
ATOM     14  C   UNL     1       1.000   2.541  19.259  0.00  0.00    +0.000 C 
ATOM     15  O   UNL     1       0.215   2.134  18.422  0.00  0.00    +0.000 OA
BRANCH  14  16
ATOM     16  O   UNL     1       0.589   3.040  20.447  0.00  0.00    +0.000 OA
ATOM     17  H   UNL     1       1.314   3.217  21.074  0.00  0.00    +0.000 HD
ENDBRANCH  14  16
ENDBRANCH  13  14
ENDBRANCH  12  13
ENDBRANCH  10  12
ENDBRANCH   3   6
BRANCH   1  19
ATOM     18  C   UNL     1      -0.394  10.624  20.473  0.00  0.00    +0.000 A 
ATOM     19  C   UNL     1       0.625   9.700  20.628  0.00  0.00    +0.000 A 
ATOM     20  C   UNL     1       0.729   9.501  22.015  0.00  0.00    +0.000 A 
ATOM     21  N   UNL     1      -0.078  10.317  22.709  0.00  0.00    +0.000 NA
ATOM     22  N   UNL     1      -0.697  11.045  21.756  0.00  0.00    +0.000 N 
BRANCH  22  23
ATOM     23  C   UNL     1      -1.478  12.230  22.083  0.00  0.00    +0.000 C 
ATOM     24  C   UNL     1      -0.566  13.424  22.411  0.00  0.00    +0.000 C 
ATOM     25  C   UNL     1      -1.373  14.707  22.254  0.00  0.00    +0.000 C 
ATOM     26  C   UNL     1      -2.580  14.713  23.192  0.00  0.00    +0.000 C 
ATOM     27  C   UNL     1      -3.401  13.416  23.152  0.00  0.00    +0.000 C 
ATOM     28  C   UNL     1      -2.542  12.138  23.188  0.00  0.00    +0.000 C 
ENDBRANCH  22  23
BRANCH  18  29
ATOM     29  C   UNL     1      -1.100  11.127  19.258  0.00  0.00    +0.000 C 
BRANCH  29  31
ATOM     30  C   UNL     1      -1.712   9.992  17.284  0.00  0.00    +0.000 C 
ATOM     31  O   UNL     1      -1.804  10.029  18.699  0.00  0.00    +0.000 OA
ENDBRANCH  29  31
ENDBRANCH  18  29
ENDBRANCH   1  19
TORSDOF 9
ENDMDL
MODEL 2
REMARK VINA RESULT:      -8.0      2.222      3.046
REMARK  Name = 
REMARK  10 active torsions:
REMARK  status: ('A' for Active; 'I' for Inactive)
REMARK    1  A    between atoms: C_1  and  O_2
REMARK    2  A    between atoms: O_2  and  C_3
REMARK    3  A    between atoms: C_3  and  C_4
REMARK    4  A    between atoms: C_5  and  C_6
REMARK    5  A    between atoms: C_8  and  C_9
REMARK    6  A    between atoms: C_13  and  C_14
REMARK    7  A    between atoms: C_14  and  C_15
REMARK    8  A    between atoms: C_15  and  C_16
REMARK    9  A    between atoms: C_16  and  O_18
REMARK   10  A    between atoms: N_24  and  C_25
REMARK                            x       y       z     vdW  Elec       q    Type
REMARK                         _______ _______ _______ _____ _____    ______ ____
ROOT
ATOM      1  C   UNL     1       1.040   9.560  19.856  0.00  0.00    +0.000 A 
ATOM      2  N   UNL     1       1.537   8.336  19.858  0.00  0.00    +0.000 NA
ATOM      3  C   UNL     1       2.172   8.259  18.628  0.00  0.00    +0.000 A 
ATOM      4  N   UNL     1       2.116   9.399  17.923  0.00  0.00    +0.000 NA
ATOM      5  O   UNL     1       1.366  10.244  18.715  0.00  0.00    +0.000 OA
ENDROOT
BRANCH   3   6
ATOM      6  C   UNL     1       2.810   7.052  18.102  0.00  0.00    +0.000 A 
ATOM      7  C   UNL     1       2.168   5.806  18.236  0.00  0.00    +0.000 A 
ATOM      8  C   UNL     1       2.766   4.640  17.759  0.00  0.00    +0.000 A 
ATOM      9  C   UNL     1       4.010   4.697  17.146  0.00  0.00    +0.000 A 
ATOM     10  C   UNL     1       4.678   5.922  17.000  0.00  0.00    +0.000 A 
ATOM     11  C   UNL     1       4.065   7.098  17.480  0.00  0.00    +0.000 A 
BRANCH  10  12
ATOM     12  C   UNL     1       6.012   5.961  16.296  0.00  0.00    +0.000 C 
BRANCH  12  13
ATOM     13  C   UNL     1       7.176   6.313  17.221  0.00  0.00    +0.000 C 
BRANCH  13  14
ATOM     14  C   UNL     1       7.559   5.124  18.069  0.00  0.00    +0.000 C 
ATOM     15  O   UNL     1       7.424   5.043  19.277  0.00  0.00    +0.000 OA
BRANCH  14  16
ATOM     16  O   UNL     1       8.087   4.117  17.337  0.00  0.00    +0.000 OA
ATOM     17  H   UNL     1       7.885   4.171  16.385  0.00  0.00    +0.000 HD
ENDBRANCH  14  16
ENDBRANCH  13  14
ENDBRANCH  12  13
ENDBRANCH  10  12
ENDBRANCH   3   6
BRANCH   1  19
ATOM     18  C   UNL     1      -0.766  11.129  20.748  0.00  0.00    +0.000 A 
ATOM     19  C   UNL     1       0.231  10.188  20.934  0.00  0.00    +0.000 A 
ATOM     20  C   UNL     1       0.288   9.988  22.324  0.00  0.00    +0.000 A 
ATOM     21  N   UNL     1      -0.526  10.818  22.992  0.00  0.00    +0.000 NA
ATOM     22  N   UNL     1      -1.102  11.556  22.021  0.00  0.00    +0.000 N 
BRANCH  22  23
ATOM     23  C   UNL     1      -1.873  12.755  22.323  0.00  0.00    +0.000 C 
ATOM     24  C   UNL     1      -1.137  13.649  23.334  0.00  0.00    +0.000 C 
ATOM     25  C   UNL     1      -1.706  15.058  23.238  0.00  0.00    +0.000 C 
ATOM     26  C   UNL     1      -3.203  15.067  23.544  0.00  0.00    +0.000 C 
ATOM     27  C   UNL     1      -3.995  13.990  22.787  0.00  0.00    +0.000 C 
ATOM     28  C   UNL     1      -3.324  12.604  22.803  0.00  0.00    +0.000 C 
ENDBRANCH  22  23
BRANCH  18  29
ATOM     29  C   UNL     1      -1.425  11.644  19.511  0.00  0.00    +0.000 C 
BRANCH  29  31
ATOM     30  C   UNL     1      -1.943  10.497  17.517  0.00  0.00    +0.000 C 
ATOM     31  O   UNL     1      -2.119  10.555  18.923  0.00  0.00    +0.000 OA
ENDBRANCH  29  31
ENDBRANCH  18  29
ENDBRANCH   1  19
TORSDOF 9
ENDMDL
MODEL 3
REMARK VINA RESULT:      -7.9      2.535      3.392
REMARK  Name = 
REMARK  10 active torsions:
REMARK  status: ('A' for Active; 'I' for Inactive)
REMARK    1  A    between atoms: C_1  and  O_2
REMARK    2  A    between atoms: O_2  and  C_3
REMARK    3  A    between atoms: C_3  and  C_4
REMARK    4  A    between atoms: C_5  and  C_6
REMARK    5  A    between atoms: C_8  and  C_9
REMARK    6  A    between atoms: C_13  and  C_14
REMARK    7  A    between atoms: C_14  and  C_15
REMARK    8  A    between atoms: C_15  and  C_16
REMARK    9  A    between atoms: C_16  and  O_18
REMARK   10  A    between atoms: N_24  and  C_25
REMARK                            x       y       z     vdW  Elec       q    Type
REMARK                         _______ _______ _______ _____ _____    ______ ____
ROOT
ATOM      1  C   UNL     1       1.545   8.653  19.711  0.00  0.00    +0.000 A 
ATOM      2  N   UNL     1       1.917   7.386  19.708  0.00  0.00    +0.000 NA
ATOM      3  C   UNL     1       2.520   7.244  18.467  0.00  0.00    +0.000 A 
ATOM      4  N   UNL     1       2.565   8.383  17.760  0.00  0.00    +0.000 NA
ATOM      5  O   UNL     1       1.917   9.299  18.562  0.00  0.00    +0.000 OA
ENDROOT
BRANCH   3   6
ATOM      6  C   UNL     1       3.024   5.978  17.935  0.00  0.00    +0.000 A 
ATOM      7  C   UNL     1       2.263   4.803  18.082  0.00  0.00    +0.000 A 
ATOM      8  C   UNL     1       2.733   3.582  17.598  0.00  0.00    +0.000 A 
ATOM      9  C   UNL     1       3.966   3.514  16.966  0.00  0.00    +0.000 A 
ATOM     10  C   UNL     1       4.752   4.665  16.806  0.00  0.00    +0.000 A 
ATOM     11  C   UNL     1       4.268   5.897  17.292  0.00  0.00    +0.000 A 
BRANCH  10  12
ATOM     12  C   UNL     1       6.071   4.570  16.081  0.00  0.00    +0.000 C 
BRANCH  12  13
ATOM     13  C   UNL     1       5.951   3.978  14.677  0.00  0.00    +0.000 C 
BRANCH  13  14
ATOM     14  C   UNL     1       6.973   4.593  13.751  0.00  0.00    +0.000 C 
ATOM     15  O   UNL     1       7.097   4.340  12.567  0.00  0.00    +0.000 OA
BRANCH  14  16
ATOM     16  O   UNL     1       7.770   5.485  14.383  0.00  0.00    +0.000 OA
ATOM     17  H   UNL     1       7.823   6.352  13.939  0.00  0.00    +0.000 HD
ENDBRANCH  14  16
ENDBRANCH  13  14
ENDBRANCH  12  13
ENDBRANCH  10  12
ENDBRANCH   3   6
BRANCH   1  19
ATOM     18  C   UNL     1      -0.275  10.187  20.634  0.00  0.00    +0.000 A 
ATOM     19  C   UNL     1       0.822   9.360  20.801  0.00  0.00    +0.000 A 
ATOM     20  C   UNL     1       1.071   9.359  22.184  0.00  0.00    +0.000 A 
ATOM     21  N   UNL     1       0.273  10.208  22.847  0.00  0.00    +0.000 NA
ATOM     22  N   UNL     1      -0.487  10.759  21.877  0.00  0.00    +0.000 N 
BRANCH  22  23
ATOM     23  C   UNL     1      -1.324  11.925  22.127  0.00  0.00    +0.000 C 
ATOM     24  C   UNL     1      -0.472  13.194  22.294  0.00  0.00    +0.000 C 
ATOM     25  C   UNL     1      -1.360  14.409  22.056  0.00  0.00    +0.000 C 
ATOM     26  C   UNL     1      -2.523  14.440  23.046  0.00  0.00    +0.000 C 
ATOM     27  C   UNL     1      -3.266  13.101  23.170  0.00  0.00    +0.000 C 
ATOM     28  C   UNL     1      -2.331  11.883  23.285  0.00  0.00    +0.000 C 
ENDBRANCH  22  23
BRANCH  18  29
ATOM     29  C   UNL     1      -1.129  10.474  19.444  0.00  0.00    +0.000 C 
BRANCH  29  31
ATOM     30  C   UNL     1      -1.069  12.658  18.555  0.00  0.00    +0.000 C 
ATOM     31  O   UNL     1      -0.421  11.398  18.635  0.00  0.00    +0.000 OA
ENDBRANCH  29  31
ENDBRANCH  18  29
ENDBRANCH   1  19
TORSDOF 9
ENDMDL
MODEL 4
REMARK VINA RESULT:      -7.9      2.402      3.232
REMARK  Name = 
REMARK  10 active torsions:
REMARK  status: ('A' for Active; 'I' for Inactive)
REMARK    1  A    between atoms: C_1  and  O_2
REMARK    2  A    between atoms: O_2  and  C_3
REMARK    3  A    between atoms: C_3  and  C_4
REMARK    4  A    between atoms: C_5  and  C_6
REMARK    5  A    between atoms: C_8  and  C_9
REMARK    6  A    between atoms: C_13  and  C_14
REMARK    7  A    between atoms: C_14  and  C_15
REMARK    8  A    between atoms: C_15  and  C_16
REMARK    9  A    between atoms: C_16  and  O_18
REMARK   10  A    between atoms: N_24  and  C_25
REMARK                            x       y       z     vdW  Elec       q    Type
REMARK                         _______ _______ _______ _____ _____    ______ ____
ROOT
ATOM      1  C   UNL     1       1.452   8.476  20.226  0.00  0.00    +0.000 A 
ATOM      2  N   UNL     1       1.846   7.225  20.385  0.00  0.00    +0.000 NA
ATOM      3  C   UNL     1       2.503   6.955  19.195  0.00  0.00    +0.000 A 
ATOM      4  N   UNL     1       2.558   8.005  18.362  0.00  0.00    +0.000 NA
ATOM      5  O   UNL     1       1.861   8.993  19.026  0.00  0.00    +0.000 OA
ENDROOT
BRANCH   3   6
ATOM      6  C   UNL     1       3.052   5.648  18.833  0.00  0.00    +0.000 A 
ATOM      7  C   UNL     1       2.918   4.563  19.720  0.00  0.00    +0.000 A 
ATOM      8  C   UNL     1       3.450   3.312  19.404  0.00  0.00    +0.000 A 
ATOM      9  C   UNL     1       4.123   3.127  18.205  0.00  0.00    +0.000 A 
ATOM     10  C   UNL     1       4.277   4.188  17.300  0.00  0.00    +0.000 A 
ATOM     11  C   UNL     1       3.732   5.448  17.624  0.00  0.00    +0.000 A 
BRANCH  10  12
ATOM     12  C   UNL     1       4.980   3.949  15.987  0.00  0.00    +0.000 C 
BRANCH  12  13
ATOM     13  C   UNL     1       5.575   5.218  15.378  0.00  0.00    +0.000 C 
BRANCH  13  14
ATOM     14  C   UNL     1       7.077   5.106  15.279  0.00  0.00    +0.000 C 
ATOM     15  O   UNL     1       7.749   5.428  14.316  0.00  0.00    +0.000 OA
BRANCH  14  16
ATOM     16  O   UNL     1       7.631   4.593  16.402  0.00  0.00    +0.000 OA
ATOM     17  H   UNL     1       8.042   3.718  16.276  0.00  0.00    +0.000 HD
ENDBRANCH  14  16
ENDBRANCH  13  14
ENDBRANCH  12  13
ENDBRANCH  10  12
ENDBRANCH   3   6
BRANCH   1  19
ATOM     18  C   UNL     1      -0.295  10.223  20.870  0.00  0.00    +0.000 A 
ATOM     19  C   UNL     1       0.671   9.288  21.197  0.00  0.00    +0.000 A 
ATOM     20  C   UNL     1       0.729   9.300  22.601  0.00  0.00    +0.000 A 
ATOM     21  N   UNL     1      -0.052  10.248  23.136  0.00  0.00    +0.000 NA
ATOM     22  N   UNL     1      -0.608  10.850  22.063  0.00  0.00    +0.000 N 
BRANCH  22  23
ATOM     23  C   UNL     1      -1.337  12.106  22.180  0.00  0.00    +0.000 C 
ATOM     24  C   UNL     1      -0.380  13.309  22.131  0.00  0.00    +0.000 C 
ATOM     25  C   UNL     1      -1.183  14.550  21.760  0.00  0.00    +0.000 C 
ATOM     26  C   UNL     1      -2.286  14.816  22.784  0.00  0.00    +0.000 C 
ATOM     27  C   UNL     1      -3.124  13.575  23.126  0.00  0.00    +0.000 C 
ATOM     28  C   UNL     1      -2.281  12.309  23.374  0.00  0.00    +0.000 C 
ENDBRANCH  22  23
BRANCH  18  29
ATOM     29  C   UNL     1      -0.943  10.566  19.570  0.00  0.00    +0.000 C 
BRANCH  29  31
ATOM     30  C   UNL     1      -0.992  12.577  18.339  0.00  0.00    +0.000 C 
ATOM     31  O   UNL     1      -0.180  11.609  18.985  0.00  0.00    +0.000 OA
ENDBRANCH  29  31
ENDBRANCH  18  29
ENDBRANCH   1  19
TORSDOF 9
ENDMDL
MODEL 5
REMARK VINA RESULT:      -7.8      1.170      1.347
REMARK  Name = 
REMARK  10 active torsions:
REMARK  status: ('A' for Active; 'I' for Inactive)
REMARK    1  A    between atoms: C_1  and  O_2
REMARK    2  A    between atoms: O_2  and  C_3
REMARK    3  A    between atoms: C_3  and  C_4
REMARK    4  A    between atoms: C_5  and  C_6
REMARK    5  A    between atoms: C_8  and  C_9
REMARK    6  A    between atoms: C_13  and  C_14
REMARK    7  A    between atoms: C_14  and  C_15
REMARK    8  A    between atoms: C_15  and  C_16
REMARK    9  A    between atoms: C_16  and  O_18
REMARK   10  A    between atoms: N_24  and  C_25
REMARK                            x       y       z     vdW  Elec       q    Type
REMARK                         _______ _______ _______ _____ _____    ______ ____
ROOT
ATOM      1  C   UNL     1       1.153   9.411  19.675  0.00  0.00    +0.000 A 
ATOM      2  N   UNL     1       1.725   8.221  19.710  0.00  0.00    +0.000 NA
ATOM      3  C   UNL     1       2.289   8.112  18.449  0.00  0.00    +0.000 A 
ATOM      4  N   UNL     1       2.119   9.204  17.689  0.00  0.00    +0.000 NA
ATOM      5  O   UNL     1       1.367  10.046  18.480  0.00  0.00    +0.000 OA
ENDROOT
BRANCH   3   6
ATOM      6  C   UNL     1       2.968   6.916  17.949  0.00  0.00    +0.000 A 
ATOM      7  C   UNL     1       4.218   7.035  17.312  0.00  0.00    +0.000 A 
ATOM      8  C   UNL     1       4.875   5.910  16.812  0.00  0.00    +0.000 A 
ATOM      9  C   UNL     1       4.296   4.656  16.936  0.00  0.00    +0.000 A 
ATOM     10  C   UNL     1       3.050   4.502  17.562  0.00  0.00    +0.000 A 
ATOM     11  C   UNL     1       2.394   5.642  18.071  0.00  0.00    +0.000 A 
BRANCH  10  12
ATOM     12  C   UNL     1       2.461   3.122  17.718  0.00  0.00    +0.000 C 
BRANCH  12  13
ATOM     13  C   UNL     1       3.471   2.082  18.202  0.00  0.00    +0.000 C 
BRANCH  13  14
ATOM     14  C   UNL     1       3.820   2.314  19.652  0.00  0.00    +0.000 C 
ATOM     15  O   UNL     1       3.033   2.622  20.528  0.00  0.00    +0.000 OA
BRANCH  14  16
ATOM     16  O   UNL     1       5.139   2.143  19.899  0.00  0.00    +0.000 OA
ATOM     17  H   UNL     1       5.382   2.246  20.838  0.00  0.00    +0.000 HD
ENDBRANCH  14  16
ENDBRANCH  13  14
ENDBRANCH  12  13
ENDBRANCH  10  12
ENDBRANCH   3   6
BRANCH   1  19
ATOM     18  C   UNL     1      -0.594  11.026  20.599  0.00  0.00    +0.000 A 
ATOM     19  C   UNL     1       0.373  10.051  20.767  0.00  0.00    +0.000 A 
ATOM     20  C   UNL     1       0.433   9.832  22.154  0.00  0.00    +0.000 A 
ATOM     21  N   UNL     1      -0.348  10.678  22.838  0.00  0.00    +0.000 NA
ATOM     22  N   UNL     1      -0.907  11.447  21.880  0.00  0.00    +0.000 N 
BRANCH  22  23
ATOM     23  C   UNL     1      -1.637  12.666  22.203  0.00  0.00    +0.000 C 
ATOM     24  C   UNL     1      -0.729  13.686  22.910  0.00  0.00    +0.000 C 
ATOM     25  C   UNL     1      -1.359  15.067  22.778  0.00  0.00    +0.000 C 
ATOM     26  C   UNL     1      -2.750  15.098  23.408  0.00  0.00    +0.000 C 
ATOM     27  C   UNL     1      -3.649  13.927  22.982  0.00  0.00    +0.000 C 
ATOM     28  C   UNL     1      -2.939  12.561  23.011  0.00  0.00    +0.000 C 
ENDBRANCH  22  23
BRANCH  18  29
ATOM     29  C   UNL     1      -1.245  11.577  19.374  0.00  0.00    +0.000 C 
BRANCH  29  31
ATOM     30  C   UNL     1      -3.147  11.046  18.084  0.00  0.00    +0.000 C 
ATOM     31  O   UNL     1      -2.046  10.544  18.825  0.00  0.00    +0.000 OA
ENDBRANCH  29  31
ENDBRANCH  18  29
ENDBRANCH   1  19
TORSDOF 9
ENDMDL
MODEL 6
REMARK VINA RESULT:      -7.8      1.385      1.816
REMARK  Name = 
REMARK  10 active torsions:
REMARK  status: ('A' for Active; 'I' for Inactive)
REMARK    1  A    between atoms: C_1  and  O_2
REMARK    2  A    between atoms: O_2  and  C_3
REMARK    3  A    between atoms: C_3  and  C_4
REMARK    4  A    between atoms: C_5  and  C_6
REMARK    5  A    between atoms: C_8  and  C_9
REMARK    6  A    between atoms: C_13  and  C_14
REMARK    7  A    between atoms: C_14  and  C_15
REMARK    8  A    between atoms: C_15  and  C_16
REMARK    9  A    between atoms: C_16  and  O_18
REMARK   10  A    between atoms: N_24  and  C_25
REMARK                            x       y       z     vdW  Elec       q    Type
REMARK                         _______ _______ _______ _____ _____    ______ ____
ROOT
ATOM      1  C   UNL     1       1.245   9.057  19.949  0.00  0.00    +0.000 A 
ATOM      2  N   UNL     1       1.888   7.903  19.935  0.00  0.00    +0.000 NA
ATOM      3  C   UNL     1       2.316   7.804  18.620  0.00  0.00    +0.000 A 
ATOM      4  N   UNL     1       1.998   8.870  17.871  0.00  0.00    +0.000 NA
ATOM      5  O   UNL     1       1.288   9.681  18.730  0.00  0.00    +0.000 OA
ENDROOT
BRANCH   3   6
ATOM      6  C   UNL     1       3.007   6.641  18.062  0.00  0.00    +0.000 A 
ATOM      7  C   UNL     1       4.278   6.796  17.476  0.00  0.00    +0.000 A 
ATOM      8  C   UNL     1       4.947   5.705  16.922  0.00  0.00    +0.000 A 
ATOM      9  C   UNL     1       4.360   4.448  16.941  0.00  0.00    +0.000 A 
ATOM     10  C   UNL     1       3.094   4.259  17.514  0.00  0.00    +0.000 A 
ATOM     11  C   UNL     1       2.425   5.366  18.077  0.00  0.00    +0.000 A 
BRANCH  10  12
ATOM     12  C   UNL     1       2.495   2.875  17.555  0.00  0.00    +0.000 C 
BRANCH  12  13
ATOM     13  C   UNL     1       2.574   2.220  18.934  0.00  0.00    +0.000 C 
BRANCH  13  14
ATOM     14  C   UNL     1       3.992   1.809  19.247  0.00  0.00    +0.000 C 
ATOM     15  O   UNL     1       4.734   2.370  20.033  0.00  0.00    +0.000 OA
BRANCH  14  16
ATOM     16  O   UNL     1       4.380   0.719  18.546  0.00  0.00    +0.000 OA
ATOM     17  H   UNL     1       3.804   0.512  17.787  0.00  0.00    +0.000 HD
ENDBRANCH  14  16
ENDBRANCH  13  14
ENDBRANCH  12  13
ENDBRANCH  10  12
ENDBRANCH   3   6
BRANCH   1  19
ATOM     18  C   UNL     1      -0.195  10.834  21.082  0.00  0.00    +0.000 A 
ATOM     19  C   UNL     1       0.552   9.669  21.113  0.00  0.00    +0.000 A 
ATOM     20  C   UNL     1       0.498   9.236  22.448  0.00  0.00    +0.000 A 
ATOM     21  N   UNL     1      -0.136  10.111  23.243  0.00  0.00    +0.000 NA
ATOM     22  N   UNL     1      -0.483  11.112  22.407  0.00  0.00    +0.000 N 
BRANCH  22  23
ATOM     23  C   UNL     1      -0.973  12.391  22.904  0.00  0.00    +0.000 C 
ATOM     24  C   UNL     1      -2.508  12.460  22.838  0.00  0.00    +0.000 C 
ATOM     25  C   UNL     1      -2.985  13.549  23.790  0.00  0.00    +0.000 C 
ATOM     26  C   UNL     1      -2.395  14.906  23.410  0.00  0.00    +0.000 C 
ATOM     27  C   UNL     1      -0.879  14.875  23.162  0.00  0.00    +0.000 C 
ATOM     28  C   UNL     1      -0.420  13.687  22.295  0.00  0.00    +0.000 C 
ENDBRANCH  22  23
BRANCH  18  29
ATOM     29  C   UNL     1      -0.661  11.684  19.948  0.00  0.00    +0.000 C 
BRANCH  29  31
ATOM     30  C   UNL     1      -2.839  11.899  19.067  0.00  0.00    +0.000 C 
ATOM     31  O   UNL     1      -1.764  11.019  19.353  0.00  0.00    +0.000 OA
ENDBRANCH  29  31
ENDBRANCH  18  29
ENDBRANCH   1  19
TORSDOF 9
ENDMDL
MODEL 7
REMARK VINA RESULT:      -7.7      2.427      3.366
REMARK  Name = 
REMARK  10 active torsions:
REMARK  status: ('A' for Active; 'I' for Inactive)
REMARK    1  A    between atoms: C_1  and  O_2
REMARK    2  A    between atoms: O_2  and  C_3
REMARK    3  A    between atoms: C_3  and  C_4
REMARK    4  A    between atoms: C_5  and  C_6
REMARK    5  A    between atoms: C_8  and  C_9
REMARK    6  A    between atoms: C_13  and  C_14
REMARK    7  A    between atoms: C_14  and  C_15
REMARK    8  A    between atoms: C_15  and  C_16
REMARK    9  A    between atoms: C_16  and  O_18
REMARK   10  A    between atoms: N_24  and  C_25
REMARK                            x       y       z     vdW  Elec       q    Type
REMARK                         _______ _______ _______ _____ _____    ______ ____
ROOT
ATOM      1  C   UNL     1       1.089   9.270  19.997  0.00  0.00    +0.000 A 
ATOM      2  N   UNL     1       1.616   8.060  19.965  0.00  0.00    +0.000 NA
ATOM      3  C   UNL     1       2.207   8.012  18.712  0.00  0.00    +0.000 A 
ATOM      4  N   UNL     1       2.096   9.158  18.023  0.00  0.00    +0.000 NA
ATOM      5  O   UNL     1       1.356   9.975  18.852  0.00  0.00    +0.000 OA
ENDROOT
BRANCH   3   6
ATOM      6  C   UNL     1       2.854   6.827  18.149  0.00  0.00    +0.000 A 
ATOM      7  C   UNL     1       2.216   5.575  18.233  0.00  0.00    +0.000 A 
ATOM      8  C   UNL     1       2.824   4.428  17.719  0.00  0.00    +0.000 A 
ATOM      9  C   UNL     1       4.072   4.513  17.119  0.00  0.00    +0.000 A 
ATOM     10  C   UNL     1       4.735   5.745  17.022  0.00  0.00    +0.000 A 
ATOM     11  C   UNL     1       4.114   6.901  17.538  0.00  0.00    +0.000 A 
BRANCH  10  12
ATOM     12  C   UNL     1       6.074   5.816  16.330  0.00  0.00    +0.000 C 
BRANCH  12  13
ATOM     13  C   UNL     1       6.585   4.456  15.855  0.00  0.00    +0.000 C 
BRANCH  13  14
ATOM     14  C   UNL     1       6.975   4.513  14.398  0.00  0.00    +0.000 C 
ATOM     15  O   UNL     1       7.711   5.343  13.896  0.00  0.00    +0.000 OA
BRANCH  14  16
ATOM     16  O   UNL     1       6.409   3.522  13.673  0.00  0.00    +0.000 OA
ATOM     17  H   UNL     1       5.435   3.508  13.714  0.00  0.00    +0.000 HD
ENDBRANCH  14  16
ENDBRANCH  13  14
ENDBRANCH  12  13
ENDBRANCH  10  12
ENDBRANCH   3   6
BRANCH   1  19
ATOM     18  C   UNL     1      -0.690  10.818  20.976  0.00  0.00    +0.000 A 
ATOM     19  C   UNL     1       0.306   9.866  21.111  0.00  0.00    +0.000 A 
ATOM     20  C   UNL     1       0.390   9.620  22.492  0.00  0.00    +0.000 A 
ATOM     21  N   UNL     1      -0.406  10.431  23.204  0.00  0.00    +0.000 NA
ATOM     22  N   UNL     1      -0.997  11.204  22.269  0.00  0.00    +0.000 N 
BRANCH  22  23
ATOM     23  C   UNL     1      -1.756  12.396  22.627  0.00  0.00    +0.000 C 
ATOM     24  C   UNL     1      -0.826  13.521  23.111  0.00  0.00    +0.000 C 
ATOM     25  C   UNL     1      -1.568  14.845  22.994  0.00  0.00    +0.000 C 
ATOM     26  C   UNL     1      -2.842  14.837  23.837  0.00  0.00    +0.000 C 
ATOM     27  C   UNL     1      -3.708  13.584  23.637  0.00  0.00    +0.000 C 
ATOM     28  C   UNL     1      -2.904  12.270  23.639  0.00  0.00    +0.000 C 
ENDBRANCH  22  23
BRANCH  18  29
ATOM     29  C   UNL     1      -1.371  11.377  19.771  0.00  0.00    +0.000 C 
BRANCH  29  31
ATOM     30  C   UNL     1      -1.023  13.666  19.326  0.00  0.00    +0.000 C 
ATOM     31  O   UNL     1      -0.503  12.351  19.215  0.00  0.00    +0.000 OA
ENDBRANCH  29  31
ENDBRANCH  18  29
ENDBRANCH   1  19
TORSDOF 9
ENDMDL
MODEL 8
REMARK VINA RESULT:      -7.7      2.225      3.124
REMARK  Name = 
REMARK  10 active torsions:
REMARK  status: ('A' for Active; 'I' for Inactive)
REMARK    1  A    between atoms: C_1  and  O_2
REMARK    2  A    between atoms: O_2  and  C_3
REMARK    3  A    between atoms: C_3  and  C_4
REMARK    4  A    between atoms: C_5  and  C_6
REMARK    5  A    between atoms: C_8  and  C_9
REMARK    6  A    between atoms: C_13  and  C_14
REMARK    7  A    between atoms: C_14  and  C_15
REMARK    8  A    between atoms: C_15  and  C_16
REMARK    9  A    between atoms: C_16  and  O_18
REMARK   10  A    between atoms: N_24  and  C_25
REMARK                            x       y       z     vdW  Elec       q    Type
REMARK                         _______ _______ _______ _____ _____    ______ ____
ROOT
ATOM      1  C   UNL     1       1.465   9.117  19.306  0.00  0.00    +0.000 A 
ATOM      2  N   UNL     1       2.020   7.928  19.457  0.00  0.00    +0.000 NA
ATOM      3  C   UNL     1       2.589   7.692  18.215  0.00  0.00    +0.000 A 
ATOM      4  N   UNL     1       2.439   8.711  17.355  0.00  0.00    +0.000 NA
ATOM      5  O   UNL     1       1.694   9.634  18.058  0.00  0.00    +0.000 OA
ENDROOT
BRANCH   3   6
ATOM      6  C   UNL     1       3.254   6.446  17.835  0.00  0.00    +0.000 A 
ATOM      7  C   UNL     1       2.540   5.233  17.867  0.00  0.00    +0.000 A 
ATOM      8  C   UNL     1       3.160   4.030  17.526  0.00  0.00    +0.000 A 
ATOM      9  C   UNL     1       4.496   4.019  17.154  0.00  0.00    +0.000 A 
ATOM     10  C   UNL     1       5.238   5.209  17.114  0.00  0.00    +0.000 A 
ATOM     11  C   UNL     1       4.604   6.422  17.455  0.00  0.00    +0.000 A 
BRANCH  10  12
ATOM     12  C   UNL     1       6.678   5.173  16.668  0.00  0.00    +0.000 C 
BRANCH  12  13
ATOM     13  C   UNL     1       7.635   4.664  17.746  0.00  0.00    +0.000 C 
BRANCH  13  14
ATOM     14  C   UNL     1       7.712   5.642  18.893  0.00  0.00    +0.000 C 
ATOM     15  O   UNL     1       7.471   5.385  20.059  0.00  0.00    +0.000 OA
BRANCH  14  16
ATOM     16  O   UNL     1       8.086   6.879  18.493  0.00  0.00    +0.000 OA
ATOM     17  H   UNL     1       7.779   7.115  17.599  0.00  0.00    +0.000 HD
ENDBRANCH  14  16
ENDBRANCH  13  14
ENDBRANCH  12  13
ENDBRANCH  10  12
ENDBRANCH   3   6
BRANCH   1  19
ATOM     18  C   UNL     1      -0.588  10.373  20.156  0.00  0.00    +0.000 A 
ATOM     19  C   UNL     1       0.688   9.867  20.328  0.00  0.00    +0.000 A 
ATOM     20  C   UNL     1       1.048  10.224  21.638  0.00  0.00    +0.000 A 
ATOM     21  N   UNL     1       0.126  10.999  22.227  0.00  0.00    +0.000 NA
ATOM     22  N   UNL     1      -0.827  11.141  21.282  0.00  0.00    +0.000 N 
BRANCH  22  23
ATOM     23  C   UNL     1      -1.899  12.119  21.415  0.00  0.00    +0.000 C 
ATOM     24  C   UNL     1      -1.415  13.528  21.037  0.00  0.00    +0.000 C 
ATOM     25  C   UNL     1      -2.631  14.386  20.713  0.00  0.00    +0.000 C 
ATOM     26  C   UNL     1      -3.576  14.474  21.911  0.00  0.00    +0.000 C 
ATOM     27  C   UNL     1      -3.889  13.114  22.553  0.00  0.00    +0.000 C 
ATOM     28  C   UNL     1      -2.647  12.224  22.752  0.00  0.00    +0.000 C 
ENDBRANCH  22  23
BRANCH  18  29
ATOM     29  C   UNL     1      -1.586  10.195  19.060  0.00  0.00    +0.000 C 
BRANCH  29  31
ATOM     30  C   UNL     1      -2.401  11.712  17.448  0.00  0.00    +0.000 C 
ATOM     31  O   UNL     1      -1.254  11.120  18.038  0.00  0.00    +0.000 OA
ENDBRANCH  29  31
ENDBRANCH  18  29
ENDBRANCH   1  19
TORSDOF 9
ENDMDL
MODEL 9
REMARK VINA RESULT:      -7.6      2.507      3.707
REMARK  Name = 
REMARK  10 active torsions:
REMARK  status: ('A' for Active; 'I' for Inactive)
REMARK    1  A    between atoms: C_1  and  O_2
REMARK    2  A    between atoms: O_2  and  C_3
REMARK    3  A    between atoms: C_3  and  C_4
REMARK    4  A    between atoms: C_5  and  C_6
REMARK    5  A    between atoms: C_8  and  C_9
REMARK    6  A    between atoms: C_13  and  C_14
REMARK    7  A    between atoms: C_14  and  C_15
REMARK    8  A    between atoms: C_15  and  C_16
REMARK    9  A    between atoms: C_16  and  O_18
REMARK   10  A    between atoms: N_24  and  C_25
REMARK                            x       y       z     vdW  Elec       q    Type
REMARK                         _______ _______ _______ _____ _____    ______ ____
ROOT
ATOM      1  C   UNL     1       1.508   9.585  18.694  0.00  0.00    +0.000 A 
ATOM      2  N   UNL     1       1.718   8.397  19.231  0.00  0.00    +0.000 NA
ATOM      3  C   UNL     1       2.469   7.748  18.263  0.00  0.00    +0.000 A 
ATOM      4  N   UNL     1       2.754   8.517  17.201  0.00  0.00    +0.000 NA
ATOM      5  O   UNL     1       2.117   9.709  17.473  0.00  0.00    +0.000 OA
ENDROOT
BRANCH   3   6
ATOM      6  C   UNL     1       2.884   6.347  18.341  0.00  0.00    +0.000 A 
ATOM      7  C   UNL     1       2.405   5.532  19.384  0.00  0.00    +0.000 A 
ATOM      8  C   UNL     1       2.802   4.199  19.489  0.00  0.00    +0.000 A 
ATOM      9  C   UNL     1       3.682   3.662  18.561  0.00  0.00    +0.000 A 
ATOM     10  C   UNL     1       4.182   4.447  17.512  0.00  0.00    +0.000 A 
ATOM     11  C   UNL     1       3.772   5.793  17.408  0.00  0.00    +0.000 A 
BRANCH  10  12
ATOM     12  C   UNL     1       5.108   3.827  16.495  0.00  0.00    +0.000 C 
BRANCH  12  13
ATOM     13  C   UNL     1       5.894   4.856  15.683  0.00  0.00    +0.000 C 
BRANCH  13  14
ATOM     14  C   UNL     1       7.209   5.170  16.354  0.00  0.00    +0.000 C 
ATOM     15  O   UNL     1       7.922   4.364  16.924  0.00  0.00    +0.000 OA
BRANCH  14  16
ATOM     16  O   UNL     1       7.536   6.480  16.263  0.00  0.00    +0.000 OA
ATOM     17  H   UNL     1       8.063   6.809  17.014  0.00  0.00    +0.000 HD
ENDBRANCH  14  16
ENDBRANCH  13  14
ENDBRANCH  12  13
ENDBRANCH  10  12
ENDBRANCH   3   6
BRANCH   1  19
ATOM     18  C   UNL     1      -0.063  10.614  20.422  0.00  0.00    +0.000 A 
ATOM     19  C   UNL     1       0.731  10.702  19.292  0.00  0.00    +0.000 A 
ATOM     20  C   UNL     1       0.620  12.038  18.872  0.00  0.00    +0.000 A 
ATOM     21  N   UNL     1      -0.265  12.731  19.602  0.00  0.00    +0.000 NA
ATOM     22  N   UNL     1      -0.726  11.827  20.492  0.00  0.00    +0.000 N 
BRANCH  22  23
ATOM     23  C   UNL     1      -1.894  12.094  21.321  0.00  0.00    +0.000 C 
ATOM     24  C   UNL     1      -2.881  13.031  20.605  0.00  0.00    +0.000 C 
ATOM     25  C   UNL     1      -4.249  12.883  21.257  0.00  0.00    +0.000 C 
ATOM     26  C   UNL     1      -4.191  13.240  22.741  0.00  0.00    +0.000 C 
ATOM     27  C   UNL     1      -3.033  12.567  23.494  0.00  0.00    +0.000 C 
ATOM     28  C   UNL     1      -1.689  12.631  22.745  0.00  0.00    +0.000 C 
ENDBRANCH  22  23
BRANCH  18  29
ATOM     29  C   UNL     1      -0.243   9.524  21.426  0.00  0.00    +0.000 C 
BRANCH  29  31
ATOM     30  C   UNL     1       0.069   9.485  23.764  0.00  0.00    +0.000 C 
ATOM     31  O   UNL     1       0.639   9.798  22.503  0.00  0.00    +0.000 OA
ENDBRANCH  29  31
ENDBRANCH  18  29
ENDBRANCH   1  19
TORSDOF 9
ENDMDL
