MODEL 1
REMARK VINA RESULT:      -8.0      0.000      0.000
REMARK  Name = 
REMARK  12 active torsions:
REMARK  status: ('A' for Active; 'I' for Inactive)
REMARK    1  A    between atoms: C_1  and  N_2
REMARK    2  A    between atoms: C_7  and  C_8
REMARK    3  A    between atoms: C_8  and  C_9
REMARK    4  A    between atoms: C_8  and  C_10
REMARK    5  A    between atoms: C_13  and  O_15
REMARK    6  A    between atoms: O_15  and  C_16
REMARK    7  A    between atoms: C_16  and  C_17
REMARK    8  A    between atoms: C_17  and  C_18
REMARK    9  A    between atoms: C_17  and  C_19
REMARK   10  A    between atoms: C_17  and  N_20
REMARK   11  A    between atoms: N_20  and  C_21
REMARK   12  A    between atoms: N_20  and  C_22
REMARK                            x       y       z     vdW  Elec       q    Type
REMARK                         _______ _______ _______ _____ _____    ______ ____
ROOT
ATOM      1  C   UNL     1       4.164   5.252  19.132  0.00  0.00    +0.000 A 
ATOM      2  C   UNL     1       3.587   6.477  19.456  0.00  0.00    +0.000 A 
ATOM      3  N   UNL     1       2.386   6.295  20.061  0.00  0.00    +0.000 N 
ATOM      4  C   UNL     1       1.553   7.312  20.470  0.00  0.00    +0.000 C 
ATOM      5  O   UNL     1       0.474   7.066  20.992  0.00  0.00    +0.000 OA
ATOM      6  C   UNL     1       2.191   4.953  20.120  0.00  0.00    +0.000 A 
ATOM      7  C   UNL     1       1.081   4.245  20.612  0.00  0.00    +0.000 A 
ATOM      8  C   UNL     1       1.103   2.844  20.542  0.00  0.00    +0.000 A 
ATOM      9  C   UNL     1       2.214   2.172  20.000  0.00  0.00    +0.000 A 
ATOM     10  C   UNL     1       3.310   2.894  19.504  0.00  0.00    +0.000 A 
ATOM     11  C   UNL     1       3.265   4.290  19.571  0.00  0.00    +0.000 A 
ENDROOT
BRANCH   1  12
ATOM     12  C   UNL     1       5.483   5.071  18.402  0.00  0.00    +0.000 C 
ATOM     13  C   UNL     1       6.640   5.340  19.378  0.00  0.00    +0.000 C 
BRANCH  12  20
ATOM     14  C   UNL     1       6.137   3.615  13.016  0.00  0.00    +0.000 C 
ATOM     15  N   UNL     1       7.060   4.434  13.764  0.00  0.00    +0.000 N 
ATOM     16  C   UNL     1       6.670   5.087  14.962  0.00  0.00    +0.000 C 
ATOM     17  N   UNL     1       7.489   5.829  15.601  0.00  0.00    +0.000 NA
ATOM     18  C   UNL     1       6.951   6.368  16.777  0.00  0.00    +0.000 C 
ATOM     19  O   UNL     1       7.593   7.148  17.463  0.00  0.00    +0.000 OA
ATOM     20  C   UNL     1       5.550   5.936  17.114  0.00  0.00    +0.000 C 
ATOM     21  S   UNL     1       5.021   4.935  15.670  0.00  0.00    +0.000 S 
ATOM     22  H   UNL     1       8.025   4.547  13.418  0.00  0.00    +0.000 HD
ENDBRANCH  12  20
ENDBRANCH   1  12
BRANCH   4  23
ATOM     23  O   UNL     1       1.890   8.598  20.190  0.00  0.00    +0.000 OA
BRANCH  23  24
ATOM     24  C   UNL     1       1.023   9.679  20.258  0.00  0.00    +0.000 C 
BRANCH  24  25
ATOM     25  C   UNL     1       0.865  10.350  18.850  0.00  0.00    +0.000 C 
ATOM     26  C   UNL     1       1.827   9.643  17.859  0.00  0.00    +0.000 C 
ATOM     27  C   UNL     1      -0.592  10.105  18.360  0.00  0.00    +0.000 C 
BRANCH  25  28
ATOM     28  N   UNL     1       1.123  11.834  18.946  0.00  0.00    +0.000 NA
ATOM     29  C   UNL     1       1.080  12.390  20.315  0.00  0.00    +0.000 C 
ATOM     30  C   UNL     1       2.367  12.295  18.289  0.00  0.00    +0.000 C 
ENDBRANCH  25  28
ENDBRANCH  24  25
ENDBRANCH  23  24
ENDBRANCH   4  23
TORSDOF 6
ENDMDL
MODEL 2
REMARK VINA RESULT:      -7.8      0.718      1.247
REMARK  Name = 
REMARK  12 active torsions:
REMARK  status: ('A' for Active; 'I' for Inactive)
REMARK    1  A    between atoms: C_1  and  N_2
REMARK    2  A    between atoms: C_7  and  C_8
REMARK    3  A    between atoms: C_8  and  C_9
REMARK    4  A    between atoms: C_8  and  C_10
REMARK    5  A    between atoms: C_13  and  O_15
REMARK    6  A    between atoms: O_15  and  C_16
REMARK    7  A    between atoms: C_16  and  C_17
REMARK    8  A    between atoms: C_17  and  C_18
REMARK    9  A    between atoms: C_17  and  C_19
REMARK   10  A    between atoms: C_17  and  N_20
REMARK   11  A    between atoms: N_20  and  C_21
REMARK   12  A    between atoms: N_20  and  C_22
REMARK                            x       y       z     vdW  Elec       q    Type
REMARK                         _______ _______ _______ _____ _____    ______ ____
ROOT
ATOM      1  C   UNL     1       4.283   5.203  19.114  0.00  0.00    +0.000 A 
ATOM      2  C   UNL     1       3.635   6.402  19.393  0.00  0.00    +0.000 A 
ATOM      3  N   UNL     1       2.467   6.174  20.046  0.00  0.00    +0.000 N 
ATOM      4  C   UNL     1       1.579   7.155  20.428  0.00  0.00    +0.000 C 
ATOM      5  O   UNL     1       0.535   6.867  20.998  0.00  0.00    +0.000 OA
ATOM      6  C   UNL     1       2.365   4.828  20.181  0.00  0.00    +0.000 A 
ATOM      7  C   UNL     1       1.320   4.075  20.745  0.00  0.00    +0.000 A 
ATOM      8  C   UNL     1       1.434   2.677  20.747  0.00  0.00    +0.000 A 
ATOM      9  C   UNL     1       2.572   2.052  20.204  0.00  0.00    +0.000 A 
ATOM     10  C   UNL     1       3.602   2.816  19.637  0.00  0.00    +0.000 A 
ATOM     11  C   UNL     1       3.465   4.208  19.632  0.00  0.00    +0.000 A 
ENDROOT
BRANCH   1  12
ATOM     12  C   UNL     1       5.589   5.070  18.352  0.00  0.00    +0.000 C 
ATOM     13  C   UNL     1       6.758   5.421  19.289  0.00  0.00    +0.000 C 
BRANCH  12  20
ATOM     14  C   UNL     1       6.025   3.496  12.978  0.00  0.00    +0.000 C 
ATOM     15  N   UNL     1       6.964   4.352  13.662  0.00  0.00    +0.000 N 
ATOM     16  C   UNL     1       6.615   5.026  14.862  0.00  0.00    +0.000 C 
ATOM     17  N   UNL     1       7.446   5.800  15.444  0.00  0.00    +0.000 NA
ATOM     18  C   UNL     1       6.952   6.357  16.631  0.00  0.00    +0.000 C 
ATOM     19  O   UNL     1       7.608   7.166  17.267  0.00  0.00    +0.000 OA
ATOM     20  C   UNL     1       5.578   5.904  17.043  0.00  0.00    +0.000 C 
ATOM     21  S   UNL     1       5.004   4.857  15.650  0.00  0.00    +0.000 S 
ATOM     22  H   UNL     1       7.909   4.477  13.269  0.00  0.00    +0.000 HD
ENDBRANCH  12  20
ENDBRANCH   1  12
BRANCH   4  23
ATOM     23  O   UNL     1       1.820   8.444  20.071  0.00  0.00    +0.000 OA
BRANCH  23  24
ATOM     24  C   UNL     1       1.005   9.521  20.386  0.00  0.00    +0.000 C 
BRANCH  24  25
ATOM     25  C   UNL     1       0.622  10.320  19.093  0.00  0.00    +0.000 C 
ATOM     26  C   UNL     1       1.258  11.731  19.181  0.00  0.00    +0.000 C 
ATOM     27  C   UNL     1       1.248   9.587  17.871  0.00  0.00    +0.000 C 
BRANCH  25  28
ATOM     28  N   UNL     1      -0.879  10.371  18.937  0.00  0.00    +0.000 NA
ATOM     29  C   UNL     1      -1.519  11.605  19.442  0.00  0.00    +0.000 C 
ATOM     30  C   UNL     1      -1.373  10.111  17.566  0.00  0.00    +0.000 C 
ENDBRANCH  25  28
ENDBRANCH  24  25
ENDBRANCH  23  24
ENDBRANCH   4  23
TORSDOF 6
ENDMDL
MODEL 3
REMARK VINA RESULT:      -7.8      1.673      2.516
REMARK  Name = 
REMARK  12 active torsions:
REMARK  status: ('A' for Active; 'I' for Inactive)
REMARK    1  A    between atoms: C_1  and  N_2
REMARK    2  A    between atoms: C_7  and  C_8
REMARK    3  A    between atoms: C_8  and  C_9
REMARK    4  A    between atoms: C_8  and  C_10
REMARK    5  A    between atoms: C_13  and  O_15
REMARK    6  A    between atoms: O_15  and  C_16
REMARK    7  A    between atoms: C_16  and  C_17
REMARK    8  A    between atoms: C_17  and  C_18
REMARK    9  A    between atoms: C_17  and  C_19
REMARK   10  A    between atoms: C_17  and  N_20
REMARK   11  A    between atoms: N_20  and  C_21
REMARK   12  A    between atoms: N_20  and  C_22
REMARK                            x       y       z     vdW  Elec       q    Type
REMARK                         _______ _______ _______ _____ _____    ______ ____
ROOT
ATOM      1  C   UNL     1       3.484   4.985  18.119  0.00  0.00    +0.000 A 
ATOM      2  C   UNL     1       3.074   6.305  18.279  0.00  0.00    +0.000 A 
ATOM      3  N   UNL     1       2.474   6.478  19.484  0.00  0.00    +0.000 N 
ATOM      4  C   UNL     1       1.929   7.664  19.924  0.00  0.00    +0.000 C 
ATOM      5  O   UNL     1       1.387   7.734  21.020  0.00  0.00    +0.000 OA
ATOM      6  C   UNL     1       2.496   5.267  20.095  0.00  0.00    +0.000 A 
ATOM      7  C   UNL     1       1.961   4.899  21.342  0.00  0.00    +0.000 A 
ATOM      8  C   UNL     1       2.089   3.564  21.751  0.00  0.00    +0.000 A 
ATOM      9  C   UNL     1       2.744   2.624  20.934  0.00  0.00    +0.000 A 
ATOM     10  C   UNL     1       3.264   3.005  19.688  0.00  0.00    +0.000 A 
ATOM     11  C   UNL     1       3.116   4.337  19.291  0.00  0.00    +0.000 A 
ENDROOT
BRANCH   1  12
ATOM     12  C   UNL     1       4.145   4.417  16.876  0.00  0.00    +0.000 C 
ATOM     13  C   UNL     1       3.471   3.084  16.511  0.00  0.00    +0.000 C 
BRANCH  12  20
ATOM     14  C   UNL     1       8.021   8.305  18.064  0.00  0.00    +0.000 C 
ATOM     15  N   UNL     1       7.973   7.538  16.842  0.00  0.00    +0.000 N 
ATOM     16  C   UNL     1       7.240   6.327  16.755  0.00  0.00    +0.000 C 
ATOM     17  N   UNL     1       7.226   5.645  15.676  0.00  0.00    +0.000 NA
ATOM     18  C   UNL     1       6.427   4.497  15.753  0.00  0.00    +0.000 C 
ATOM     19  O   UNL     1       6.365   3.711  14.821  0.00  0.00    +0.000 OA
ATOM     20  C   UNL     1       5.684   4.302  17.046  0.00  0.00    +0.000 C 
ATOM     21  S   UNL     1       6.288   5.655  18.129  0.00  0.00    +0.000 S 
ATOM     22  H   UNL     1       8.486   7.879  16.015  0.00  0.00    +0.000 HD
ENDBRANCH  12  20
ENDBRANCH   1  12
BRANCH   4  23
ATOM     23  O   UNL     1       1.900   8.733  19.086  0.00  0.00    +0.000 OA
BRANCH  23  24
ATOM     24  C   UNL     1       0.747   9.364  18.644  0.00  0.00    +0.000 C 
BRANCH  24  25
ATOM     25  C   UNL     1       0.796  10.896  18.974  0.00  0.00    +0.000 C 
ATOM     26  C   UNL     1       1.999  11.523  18.223  0.00  0.00    +0.000 C 
ATOM     27  C   UNL     1      -0.506  11.549  18.423  0.00  0.00    +0.000 C 
BRANCH  25  28
ATOM     28  N   UNL     1       0.873  11.106  20.466  0.00  0.00    +0.000 NA
ATOM     29  C   UNL     1       1.369  12.434  20.887  0.00  0.00    +0.000 C 
ATOM     30  C   UNL     1      -0.377  10.814  21.204  0.00  0.00    +0.000 C 
ENDBRANCH  25  28
ENDBRANCH  24  25
ENDBRANCH  23  24
ENDBRANCH   4  23
TORSDOF 6
ENDMDL
MODEL 4
REMARK VINA RESULT:      -7.7      1.725      2.590
REMARK  Name = 
REMARK  12 active torsions:
REMARK  status: ('A' for Active; 'I' for Inactive)
REMARK    1  A    between atoms: C_1  and  N_2
REMARK    2  A    between atoms: C_7  and  C_8
REMARK    3  A    between atoms: C_8  and  C_9
REMARK    4  A    between atoms: C_8  and  C_10
REMARK    5  A    between atoms: C_13  and  O_15
REMARK    6  A    between atoms: O_15  and  C_16
REMARK    7  A    between atoms: C_16  and  C_17
REMARK    8  A    between atoms: C_17  and  C_18
REMARK    9  A    between atoms: C_17  and  C_19
REMARK   10  A    between atoms: C_17  and  N_20
REMARK   11  A    between atoms: N_20  and  C_21
REMARK   12  A    between atoms: N_20  and  C_22
REMARK                            x       y       z     vdW  Elec       q    Type
REMARK                         _______ _______ _______ _____ _____    ______ ____
ROOT
ATOM      1  C   UNL     1       3.476   5.102  18.124  0.00  0.00    +0.000 A 
ATOM      2  C   UNL     1       3.036   6.408  18.312  0.00  0.00    +0.000 A 
ATOM      3  N   UNL     1       2.416   6.537  19.513  0.00  0.00    +0.000 N 
ATOM      4  C   UNL     1       1.839   7.699  19.976  0.00  0.00    +0.000 C 
ATOM      5  O   UNL     1       1.280   7.729  21.065  0.00  0.00    +0.000 OA
ATOM      6  C   UNL     1       2.455   5.311  20.092  0.00  0.00    +0.000 A 
ATOM      7  C   UNL     1       1.911   4.899  21.321  0.00  0.00    +0.000 A 
ATOM      8  C   UNL     1       2.062   3.556  21.698  0.00  0.00    +0.000 A 
ATOM      9  C   UNL     1       2.749   2.653  20.866  0.00  0.00    +0.000 A 
ATOM     10  C   UNL     1       3.278   3.077  19.638  0.00  0.00    +0.000 A 
ATOM     11  C   UNL     1       3.106   4.416  19.273  0.00  0.00    +0.000 A 
ENDROOT
BRANCH   1  12
ATOM     12  C   UNL     1       4.167   4.581  16.877  0.00  0.00    +0.000 C 
ATOM     13  C   UNL     1       3.490   3.273  16.435  0.00  0.00    +0.000 C 
BRANCH  12  20
ATOM     14  C   UNL     1       8.085   8.421  18.082  0.00  0.00    +0.000 C 
ATOM     15  N   UNL     1       8.051   7.632  16.874  0.00  0.00    +0.000 N 
ATOM     16  C   UNL     1       7.298   6.432  16.792  0.00  0.00    +0.000 C 
ATOM     17  N   UNL     1       7.297   5.731  15.726  0.00  0.00    +0.000 NA
ATOM     18  C   UNL     1       6.475   4.599  15.805  0.00  0.00    +0.000 C 
ATOM     19  O   UNL     1       6.419   3.797  14.886  0.00  0.00    +0.000 OA
ATOM     20  C   UNL     1       5.699   4.442  17.084  0.00  0.00    +0.000 C 
ATOM     21  S   UNL     1       6.303   5.804  18.155  0.00  0.00    +0.000 S 
ATOM     22  H   UNL     1       8.589   7.948  16.052  0.00  0.00    +0.000 HD
ENDBRANCH  12  20
ENDBRANCH   1  12
BRANCH   4  23
ATOM     23  O   UNL     1       1.799   8.788  19.165  0.00  0.00    +0.000 OA
BRANCH  23  24
ATOM     24  C   UNL     1       0.642   9.452  18.783  0.00  0.00    +0.000 C 
BRANCH  24  25
ATOM     25  C   UNL     1       0.745  10.979  19.119  0.00  0.00    +0.000 C 
ATOM     26  C   UNL     1       0.933  11.133  20.651  0.00  0.00    +0.000 C 
ATOM     27  C   UNL     1       2.018  11.542  18.421  0.00  0.00    +0.000 C 
BRANCH  25  28
ATOM     28  N   UNL     1      -0.474  11.709  18.610  0.00  0.00    +0.000 NA
ATOM     29  C   UNL     1      -1.678  11.586  19.460  0.00  0.00    +0.000 C 
ATOM     30  C   UNL     1      -0.260  13.141  18.301  0.00  0.00    +0.000 C 
ENDBRANCH  25  28
ENDBRANCH  24  25
ENDBRANCH  23  24
ENDBRANCH   4  23
TORSDOF 6
ENDMDL
MODEL 5
REMARK VINA RESULT:      -7.7      1.269      1.904
REMARK  Name = 
REMARK  12 active torsions:
REMARK  status: ('A' for Active; 'I' for Inactive)
REMARK    1  A    between atoms: C_1  and  N_2
REMARK    2  A    between atoms: C_7  and  C_8
REMARK    3  A    between atoms: C_8  and  C_9
REMARK    4  A    between atoms: C_8  and  C_10
REMARK    5  A    between atoms: C_13  and  O_15
REMARK    6  A    between atoms: O_15  and  C_16
REMARK    7  A    between atoms: C_16  and  C_17
REMARK    8  A    between atoms: C_17  and  C_18
REMARK    9  A    between atoms: C_17  and  C_19
REMARK   10  A    between atoms: C_17  and  N_20
REMARK   11  A    between atoms: N_20  and  C_21
REMARK   12  A    between atoms: N_20  and  C_22
REMARK                            x       y       z     vdW  Elec       q    Type
REMARK                         _______ _______ _______ _____ _____    ______ ____
ROOT
ATOM      1  C   UNL     1       4.516   4.786  18.619  0.00  0.00    +0.000 A 
ATOM      2  C   UNL     1       3.886   5.812  19.315  0.00  0.00    +0.000 A 
ATOM      3  N   UNL     1       2.666   5.412  19.757  0.00  0.00    +0.000 N 
ATOM      4  C   UNL     1       1.782   6.211  20.448  0.00  0.00    +0.000 C 
ATOM      5  O   UNL     1       0.690   5.781  20.796  0.00  0.00    +0.000 OA
ATOM      6  C   UNL     1       2.514   4.130  19.339  0.00  0.00    +0.000 A 
ATOM      7  C   UNL     1       1.408   3.277  19.498  0.00  0.00    +0.000 A 
ATOM      8  C   UNL     1       1.480   1.987  18.949  0.00  0.00    +0.000 A 
ATOM      9  C   UNL     1       2.635   1.564  18.267  0.00  0.00    +0.000 A 
ATOM     10  C   UNL     1       3.727   2.430  18.110  0.00  0.00    +0.000 A 
ATOM     11  C   UNL     1       3.632   3.716  18.651  0.00  0.00    +0.000 A 
ENDROOT
BRANCH   1  12
ATOM     12  C   UNL     1       5.871   4.891  17.941  0.00  0.00    +0.000 C 
ATOM     13  C   UNL     1       6.899   5.428  18.951  0.00  0.00    +0.000 C 
BRANCH  12  20
ATOM     14  C   UNL     1       5.960   3.316  12.551  0.00  0.00    +0.000 C 
ATOM     15  N   UNL     1       6.953   4.155  13.179  0.00  0.00    +0.000 N 
ATOM     16  C   UNL     1       6.688   4.834  14.396  0.00  0.00    +0.000 C 
ATOM     17  N   UNL     1       7.565   5.592  14.928  0.00  0.00    +0.000 NA
ATOM     18  C   UNL     1       7.152   6.156  16.143  0.00  0.00    +0.000 C 
ATOM     19  O   UNL     1       7.858   6.953  16.739  0.00  0.00    +0.000 OA
ATOM     20  C   UNL     1       5.797   5.726  16.636  0.00  0.00    +0.000 C 
ATOM     21  S   UNL     1       5.123   4.691  15.278  0.00  0.00    +0.000 S 
ATOM     22  H   UNL     1       7.875   4.264  12.730  0.00  0.00    +0.000 HD
ENDBRANCH  12  20
ENDBRANCH   1  12
BRANCH   4  23
ATOM     23  O   UNL     1       2.088   7.520  20.647  0.00  0.00    +0.000 OA
BRANCH  23  24
ATOM     24  C   UNL     1       1.362   8.590  20.145  0.00  0.00    +0.000 C 
BRANCH  24  25
ATOM     25  C   UNL     1       0.723   9.419  21.312  0.00  0.00    +0.000 C 
ATOM     26  C   UNL     1      -0.658   8.801  21.655  0.00  0.00    +0.000 C 
ATOM     27  C   UNL     1       1.638   9.275  22.563  0.00  0.00    +0.000 C 
BRANCH  25  28
ATOM     28  N   UNL     1       0.624  10.875  20.925  0.00  0.00    +0.000 NA
ATOM     29  C   UNL     1       0.286  11.125  19.507  0.00  0.00    +0.000 C 
ATOM     30  C   UNL     1      -0.277  11.687  21.774  0.00  0.00    +0.000 C 
ENDBRANCH  25  28
ENDBRANCH  24  25
ENDBRANCH  23  24
ENDBRANCH   4  23
TORSDOF 6
ENDMDL
MODEL 6
REMARK VINA RESULT:      -7.6      1.619      2.512
REMARK  Name = 
REMARK  12 active torsions:
REMARK  status: ('A' for Active; 'I' for Inactive)
REMARK    1  A    between atoms: C_1  and  N_2
REMARK    2  A    between atoms: C_7  and  C_8
REMARK    3  A    between atoms: C_8  and  C_9
REMARK    4  A    between atoms: C_8  and  C_10
REMARK    5  A    between atoms: C_13  and  O_15
REMARK    6  A    between atoms: O_15  and  C_16
REMARK    7  A    between atoms: C_16  and  C_17
REMARK    8  A    between atoms: C_17  and  C_18
REMARK    9  A    between atoms: C_17  and  C_19
REMARK   10  A    between atoms: C_17  and  N_20
REMARK   11  A    between atoms: N_20  and  C_21
REMARK   12  A    between atoms: N_20  and  C_22
REMARK                            x       y       z     vdW  Elec       q    Type
REMARK                         _______ _______ _______ _____ _____    ______ ____
ROOT
ATOM      1  C   UNL     1       3.465   5.098  18.144  0.00  0.00    +0.000 A 
ATOM      2  C   UNL     1       3.030   6.404  18.342  0.00  0.00    +0.000 A 
ATOM      3  N   UNL     1       2.417   6.527  19.547  0.00  0.00    +0.000 N 
ATOM      4  C   UNL     1       1.846   7.687  20.021  0.00  0.00    +0.000 C 
ATOM      5  O   UNL     1       1.294   7.712  21.113  0.00  0.00    +0.000 OA
ATOM      6  C   UNL     1       2.456   5.297  20.118  0.00  0.00    +0.000 A 
ATOM      7  C   UNL     1       1.918   4.879  21.348  0.00  0.00    +0.000 A 
ATOM      8  C   UNL     1       2.067   3.533  21.715  0.00  0.00    +0.000 A 
ATOM      9  C   UNL     1       2.746   2.633  20.873  0.00  0.00    +0.000 A 
ATOM     10  C   UNL     1       3.269   3.064  19.645  0.00  0.00    +0.000 A 
ATOM     11  C   UNL     1       3.100   4.406  19.290  0.00  0.00    +0.000 A 
ENDROOT
BRANCH   1  12
ATOM     12  C   UNL     1       4.148   4.583  16.889  0.00  0.00    +0.000 C 
ATOM     13  C   UNL     1       3.461   3.282  16.439  0.00  0.00    +0.000 C 
BRANCH  12  20
ATOM     14  C   UNL     1       8.096   8.392  18.092  0.00  0.00    +0.000 C 
ATOM     15  N   UNL     1       8.052   7.609  16.881  0.00  0.00    +0.000 N 
ATOM     16  C   UNL     1       7.290   6.414  16.797  0.00  0.00    +0.000 C 
ATOM     17  N   UNL     1       7.279   5.718  15.728  0.00  0.00    +0.000 NA
ATOM     18  C   UNL     1       6.451   4.590  15.806  0.00  0.00    +0.000 C 
ATOM     19  O   UNL     1       6.385   3.793  14.884  0.00  0.00    +0.000 OA
ATOM     20  C   UNL     1       5.679   4.433  17.088  0.00  0.00    +0.000 C 
ATOM     21  S   UNL     1       6.297   5.786  18.162  0.00  0.00    +0.000 S 
ATOM     22  H   UNL     1       8.587   7.925  16.058  0.00  0.00    +0.000 HD
ENDBRANCH  12  20
ENDBRANCH   1  12
BRANCH   4  23
ATOM     23  O   UNL     1       1.805   8.782  19.218  0.00  0.00    +0.000 OA
BRANCH  23  24
ATOM     24  C   UNL     1       0.656   9.298  18.637  0.00  0.00    +0.000 C 
BRANCH  24  25
ATOM     25  C   UNL     1       0.290  10.684  19.272  0.00  0.00    +0.000 C 
ATOM     26  C   UNL     1      -0.705  11.409  18.329  0.00  0.00    +0.000 C 
ATOM     27  C   UNL     1      -0.437  10.418  20.623  0.00  0.00    +0.000 C 
BRANCH  25  28
ATOM     28  N   UNL     1       1.541  11.490  19.522  0.00  0.00    +0.000 NA
ATOM     29  C   UNL     1       2.108  12.152  18.328  0.00  0.00    +0.000 C 
ATOM     30  C   UNL     1       1.432  12.490  20.609  0.00  0.00    +0.000 C 
ENDBRANCH  25  28
ENDBRANCH  24  25
ENDBRANCH  23  24
ENDBRANCH   4  23
TORSDOF 6
ENDMDL
MODEL 7
REMARK VINA RESULT:      -7.6      0.796      1.353
REMARK  Name = 
REMARK  12 active torsions:
REMARK  status: ('A' for Active; 'I' for Inactive)
REMARK    1  A    between atoms: C_1  and  N_2
REMARK    2  A    between atoms: C_7  and  C_8
REMARK    3  A    between atoms: C_8  and  C_9
REMARK    4  A    between atoms: C_8  and  C_10
REMARK    5  A    between atoms: C_13  and  O_15
REMARK    6  A    between atoms: O_15  and  C_16
REMARK    7  A    between atoms: C_16  and  C_17
REMARK    8  A    between atoms: C_17  and  C_18
REMARK    9  A    between atoms: C_17  and  C_19
REMARK   10  A    between atoms: C_17  and  N_20
REMARK   11  A    between atoms: N_20  and  C_21
REMARK   12  A    between atoms: N_20  and  C_22
REMARK                            x       y       z     vdW  Elec       q    Type
REMARK                         _______ _______ _______ _____ _____    ______ ____
ROOT
ATOM      1  C   UNL     1       4.389   5.053  18.810  0.00  0.00    +0.000 A 
ATOM      2  C   UNL     1       3.765   6.165  19.365  0.00  0.00    +0.000 A 
ATOM      3  N   UNL     1       2.543   5.833  19.855  0.00  0.00    +0.000 N 
ATOM      4  C   UNL     1       1.664   6.721  20.434  0.00  0.00    +0.000 C 
ATOM      5  O   UNL     1       0.569   6.346  20.836  0.00  0.00    +0.000 OA
ATOM      6  C   UNL     1       2.384   4.508  19.609  0.00  0.00    +0.000 A 
ATOM      7  C   UNL     1       1.273   3.689  19.878  0.00  0.00    +0.000 A 
ATOM      8  C   UNL     1       1.338   2.338  19.505  0.00  0.00    +0.000 A 
ATOM      9  C   UNL     1       2.491   1.822  18.885  0.00  0.00    +0.000 A 
ATOM     10  C   UNL     1       3.587   2.655  18.615  0.00  0.00    +0.000 A 
ATOM     11  C   UNL     1       3.500   4.001  18.982  0.00  0.00    +0.000 A 
ENDROOT
BRANCH   1  12
ATOM     12  C   UNL     1       5.745   5.060  18.126  0.00  0.00    +0.000 C 
ATOM     13  C   UNL     1       6.810   5.549  19.121  0.00  0.00    +0.000 C 
BRANCH  12  20
ATOM     14  C   UNL     1       5.866   3.392  12.764  0.00  0.00    +0.000 C 
ATOM     15  N   UNL     1       6.874   4.210  13.393  0.00  0.00    +0.000 N 
ATOM     16  C   UNL     1       6.612   4.917  14.595  0.00  0.00    +0.000 C 
ATOM     17  N   UNL     1       7.505   5.657  15.128  0.00  0.00    +0.000 NA
ATOM     18  C   UNL     1       7.091   6.254  16.326  0.00  0.00    +0.000 C 
ATOM     19  O   UNL     1       7.813   7.039  16.920  0.00  0.00    +0.000 OA
ATOM     20  C   UNL     1       5.716   5.875  16.805  0.00  0.00    +0.000 C 
ATOM     21  S   UNL     1       5.031   4.838  15.455  0.00  0.00    +0.000 S 
ATOM     22  H   UNL     1       7.806   4.283  12.957  0.00  0.00    +0.000 HD
ENDBRANCH  12  20
ENDBRANCH   1  12
BRANCH   4  23
ATOM     23  O   UNL     1       1.976   8.043  20.460  0.00  0.00    +0.000 OA
BRANCH  23  24
ATOM     24  C   UNL     1       1.199   9.031  21.045  0.00  0.00    +0.000 C 
BRANCH  24  25
ATOM     25  C   UNL     1       0.821  10.131  19.994  0.00  0.00    +0.000 C 
ATOM     26  C   UNL     1      -0.682   9.980  19.644  0.00  0.00    +0.000 C 
ATOM     27  C   UNL     1       1.021  11.524  20.661  0.00  0.00    +0.000 C 
BRANCH  25  28
ATOM     28  N   UNL     1       1.711  10.021  18.780  0.00  0.00    +0.000 NA
ATOM     29  C   UNL     1       1.160   9.213  17.671  0.00  0.00    +0.000 C 
ATOM     30  C   UNL     1       2.184  11.313  18.233  0.00  0.00    +0.000 C 
ENDBRANCH  25  28
ENDBRANCH  24  25
ENDBRANCH  23  24
ENDBRANCH   4  23
TORSDOF 6
ENDMDL
MODEL 8
REMARK VINA RESULT:      -7.6      0.692      1.102
REMARK  Name = 
REMARK  12 active torsions:
REMARK  status: ('A' for Active; 'I' for Inactive)
REMARK    1  A    between atoms: C_1  and  N_2
REMARK    2  A    between atoms: C_7  and  C_8
REMARK    3  A    between atoms: C_8  and  C_9
REMARK    4  A    between atoms: C_8  and  C_10
REMARK    5  A    between atoms: C_13  and  O_15
REMARK    6  A    between atoms: O_15  and  C_16
REMARK    7  A    between atoms: C_16  and  C_17
REMARK    8  A    between atoms: C_17  and  C_18
REMARK    9  A    between atoms: C_17  and  C_19
REMARK   10  A    between atoms: C_17  and  N_20
REMARK   11  A    between atoms: N_20  and  C_21
REMARK   12  A    between atoms: N_20  and  C_22
REMARK                            x       y       z     vdW  Elec       q    Type
REMARK                         _______ _______ _______ _____ _____    ______ ____
ROOT
ATOM      1  C   UNL     1       4.361   5.185  18.892  0.00  0.00    +0.000 A 
ATOM      2  C   UNL     1       3.781   6.433  19.092  0.00  0.00    +0.000 A 
ATOM      3  N   UNL     1       2.654   6.323  19.842  0.00  0.00    +0.000 N 
ATOM      4  C   UNL     1       1.834   7.376  20.182  0.00  0.00    +0.000 C 
ATOM      5  O   UNL     1       0.823   7.192  20.847  0.00  0.00    +0.000 OA
ATOM      6  C   UNL     1       2.510   5.003  20.118  0.00  0.00    +0.000 A 
ATOM      7  C   UNL     1       1.481   4.356  20.823  0.00  0.00    +0.000 A 
ATOM      8  C   UNL     1       1.541   2.961  20.958  0.00  0.00    +0.000 A 
ATOM      9  C   UNL     1       2.612   2.236  20.405  0.00  0.00    +0.000 A 
ATOM     10  C   UNL     1       3.628   2.894  19.696  0.00  0.00    +0.000 A 
ATOM     11  C   UNL     1       3.544   4.283  19.561  0.00  0.00    +0.000 A 
ENDROOT
BRANCH   1  12
ATOM     12  C   UNL     1       5.604   4.919  18.061  0.00  0.00    +0.000 C 
ATOM     13  C   UNL     1       6.850   5.135  18.935  0.00  0.00    +0.000 C 
BRANCH  12  20
ATOM     14  C   UNL     1       5.913   3.363  12.673  0.00  0.00    +0.000 C 
ATOM     15  N   UNL     1       6.894   4.174  13.352  0.00  0.00    +0.000 N 
ATOM     16  C   UNL     1       6.588   4.855  14.559  0.00  0.00    +0.000 C 
ATOM     17  N   UNL     1       7.458   5.589  15.136  0.00  0.00    +0.000 NA
ATOM     18  C   UNL     1       7.001   6.158  16.332  0.00  0.00    +0.000 C 
ATOM     19  O   UNL     1       7.697   6.935  16.965  0.00  0.00    +0.000 OA
ATOM     20  C   UNL     1       5.613   5.761  16.757  0.00  0.00    +0.000 C 
ATOM     21  S   UNL     1       4.980   4.749  15.364  0.00  0.00    +0.000 S 
ATOM     22  H   UNL     1       7.839   4.261  12.949  0.00  0.00    +0.000 HD
ENDBRANCH  12  20
ENDBRANCH   1  12
BRANCH   4  23
ATOM     23  O   UNL     1       2.099   8.611  19.682  0.00  0.00    +0.000 OA
BRANCH  23  24
ATOM     24  C   UNL     1       1.490   9.163  18.565  0.00  0.00    +0.000 C 
BRANCH  24  25
ATOM     25  C   UNL     1       0.878  10.565  18.904  0.00  0.00    +0.000 C 
ATOM     26  C   UNL     1       1.731  11.655  18.203  0.00  0.00    +0.000 C 
ATOM     27  C   UNL     1      -0.558  10.622  18.308  0.00  0.00    +0.000 C 
BRANCH  25  28
ATOM     28  N   UNL     1       0.812  10.758  20.400  0.00  0.00    +0.000 NA
ATOM     29  C   UNL     1       1.278  12.075  20.884  0.00  0.00    +0.000 C 
ATOM     30  C   UNL     1      -0.507  10.471  21.008  0.00  0.00    +0.000 C 
ENDBRANCH  25  28
ENDBRANCH  24  25
ENDBRANCH  23  24
ENDBRANCH   4  23
TORSDOF 6
ENDMDL
MODEL 9
REMARK VINA RESULT:      -7.4      0.486      1.023
REMARK  Name = 
REMARK  12 active torsions:
REMARK  status: ('A' for Active; 'I' for Inactive)
REMARK    1  A    between atoms: C_1  and  N_2
REMARK    2  A    between atoms: C_7  and  C_8
REMARK    3  A    between atoms: C_8  and  C_9
REMARK    4  A    between atoms: C_8  and  C_10
REMARK    5  A    between atoms: C_13  and  O_15
REMARK    6  A    between atoms: O_15  and  C_16
REMARK    7  A    between atoms: C_16  and  C_17
REMARK    8  A    between atoms: C_17  and  C_18
REMARK    9  A    between atoms: C_17  and  C_19
REMARK   10  A    between atoms: C_17  and  N_20
REMARK   11  A    between atoms: N_20  and  C_21
REMARK   12  A    between atoms: N_20  and  C_22
REMARK                            x       y       z     vdW  Elec       q    Type
REMARK                         _______ _______ _______ _____ _____    ______ ____
ROOT
ATOM      1  C   UNL     1       4.212   5.314  19.158  0.00  0.00    +0.000 A 
ATOM      2  C   UNL     1       3.595   6.536  19.407  0.00  0.00    +0.000 A 
ATOM      3  N   UNL     1       2.405   6.352  20.035  0.00  0.00    +0.000 N 
ATOM      4  C   UNL     1       1.540   7.365  20.385  0.00  0.00    +0.000 C 
ATOM      5  O   UNL     1       0.475   7.116  20.933  0.00  0.00    +0.000 OA
ATOM      6  C   UNL     1       2.259   5.012  20.184  0.00  0.00    +0.000 A 
ATOM      7  C   UNL     1       1.179   4.299  20.733  0.00  0.00    +0.000 A 
ATOM      8  C   UNL     1       1.250   2.898  20.755  0.00  0.00    +0.000 A 
ATOM      9  C   UNL     1       2.380   2.231  20.246  0.00  0.00    +0.000 A 
ATOM     10  C   UNL     1       3.445   2.956  19.693  0.00  0.00    +0.000 A 
ATOM     11  C   UNL     1       3.351   4.351  19.668  0.00  0.00    +0.000 A 
ENDROOT
BRANCH   1  12
ATOM     12  C   UNL     1       5.531   5.131  18.428  0.00  0.00    +0.000 C 
ATOM     13  C   UNL     1       6.688   5.416  19.399  0.00  0.00    +0.000 C 
BRANCH  12  20
ATOM     14  C   UNL     1       6.069   3.613  13.047  0.00  0.00    +0.000 C 
ATOM     15  N   UNL     1       7.019   4.422  13.772  0.00  0.00    +0.000 N 
ATOM     16  C   UNL     1       6.661   5.094  14.970  0.00  0.00    +0.000 C 
ATOM     17  N   UNL     1       7.503   5.826  15.588  0.00  0.00    +0.000 NA
ATOM     18  C   UNL     1       6.995   6.386  16.767  0.00  0.00    +0.000 C 
ATOM     19  O   UNL     1       7.662   7.160  17.434  0.00  0.00    +0.000 OA
ATOM     20  C   UNL     1       5.592   5.982  17.131  0.00  0.00    +0.000 C 
ATOM     21  S   UNL     1       5.021   4.978  15.706  0.00  0.00    +0.000 S 
ATOM     22  H   UNL     1       7.980   4.515  13.409  0.00  0.00    +0.000 HD
ENDBRANCH  12  20
ENDBRANCH   1  12
BRANCH   4  23
ATOM     23  O   UNL     1       1.829   8.641  20.018  0.00  0.00    +0.000 OA
BRANCH  23  24
ATOM     24  C   UNL     1       1.201   9.334  18.993  0.00  0.00    +0.000 C 
BRANCH  24  25
ATOM     25  C   UNL     1       0.585  10.672  19.529  0.00  0.00    +0.000 C 
ATOM     26  C   UNL     1      -0.548  11.112  18.566  0.00  0.00    +0.000 C 
ATOM     27  C   UNL     1      -0.052  10.387  20.921  0.00  0.00    +0.000 C 
BRANCH  25  28
ATOM     28  N   UNL     1       1.661  11.722  19.672  0.00  0.00    +0.000 NA
ATOM     29  C   UNL     1       2.102  12.343  18.406  0.00  0.00    +0.000 C 
ATOM     30  C   UNL     1       1.359  12.796  20.645  0.00  0.00    +0.000 C 
ENDBRANCH  25  28
ENDBRANCH  24  25
ENDBRANCH  23  24
ENDBRANCH   4  23
TORSDOF 6
ENDMDL
