MODEL 1
REMARK VINA RESULT:      -7.4      0.000      0.000
REMARK  Name = 
REMARK  7 active torsions:
REMARK  status: ('A' for Active; 'I' for Inactive)
REMARK    1  A    between atoms: C_1  and  C_2
REMARK    2  A    between atoms: C_6  and  C_7
REMARK    3  A    between atoms: C_7  and  C_8
REMARK    4  A    between atoms: N_10  and  C_11
REMARK    5  A    between atoms: C_11  and  C_12
REMARK    6  A    between atoms: C_12  and  N_13
REMARK    7  A    between atoms: C_14  and  C_15
REMARK                            x       y       z     vdW  Elec       q    Type
REMARK                         _______ _______ _______ _____ _____    ______ ____
ROOT
ATOM      1  C   UNL     1       1.743   5.028  20.711  0.00  0.00    +0.000 C 
ATOM      2  O   UNL     1       0.860   4.380  20.147  0.00  0.00    +0.000 OA
ATOM      3  N   UNL     1       2.961   4.459  21.058  0.00  0.00    +0.000 N 
ATOM      4  H   UNL     1       3.592   4.967  21.661  0.00  0.00    +0.000 HD
ENDROOT
BRANCH   1   5
ATOM      5  C   UNL     1       1.549   6.495  21.051  0.00  0.00    +0.000 C 
BRANCH   5  11
ATOM      6  C   UNL     1       0.770  10.962  18.801  0.00  0.00    +0.000 C 
ATOM      7  C   UNL     1       1.416   9.608  18.798  0.00  0.00    +0.000 A 
ATOM      8  C   UNL     1       2.231   9.195  17.741  0.00  0.00    +0.000 A 
ATOM      9  C   UNL     1       2.806   7.927  17.753  0.00  0.00    +0.000 A 
ATOM     10  C   UNL     1       2.587   7.068  18.833  0.00  0.00    +0.000 A 
ATOM     11  C   UNL     1       1.798   7.470  19.921  0.00  0.00    +0.000 A 
ATOM     12  C   UNL     1       1.192   8.733  19.873  0.00  0.00    +0.000 A 
ENDBRANCH   5  11
ENDBRANCH   1   5
BRANCH   3  13
ATOM     13  C   UNL     1       3.164   3.046  20.755  0.00  0.00    +0.000 C 
BRANCH  13  14
ATOM     14  C   UNL     1       4.398   2.696  19.921  0.00  0.00    +0.000 C 
BRANCH  14  15
ATOM     15  N   UNL     1       4.448   3.486  18.688  0.00  0.00    +0.000 N 
ATOM     16  C   UNL     1       3.605   3.321  17.602  0.00  0.00    +0.000 A 
ATOM     17  C   UNL     1       2.506   2.321  17.501  0.00  0.00    +0.000 C 
ATOM     18  C   UNL     1       3.982   4.238  16.643  0.00  0.00    +0.000 A 
ATOM     19  C   UNL     1       5.081   4.981  17.137  0.00  0.00    +0.000 A 
ATOM     20  C   UNL     1       5.859   6.022  16.592  0.00  0.00    +0.000 A 
ATOM     21  C   UNL     1       6.908   6.559  17.340  0.00  0.00    +0.000 A 
ATOM     22  C   UNL     1       7.188   6.066  18.611  0.00  0.00    +0.000 A 
ATOM     23  C   UNL     1       6.428   5.030  19.172  0.00  0.00    +0.000 A 
ATOM     24  C   UNL     1       5.367   4.494  18.419  0.00  0.00    +0.000 A 
ENDBRANCH  14  15
ENDBRANCH  13  14
ENDBRANCH   3  13
TORSDOF 5
ENDMDL
MODEL 2
REMARK VINA RESULT:      -7.1      2.588      4.576
REMARK  Name = 
REMARK  7 active torsions:
REMARK  status: ('A' for Active; 'I' for Inactive)
REMARK    1  A    between atoms: C_1  and  C_2
REMARK    2  A    between atoms: C_6  and  C_7
REMARK    3  A    between atoms: C_7  and  C_8
REMARK    4  A    between atoms: N_10  and  C_11
REMARK    5  A    between atoms: C_11  and  C_12
REMARK    6  A    between atoms: C_12  and  N_13
REMARK    7  A    between atoms: C_14  and  C_15
REMARK                            x       y       z     vdW  Elec       q    Type
REMARK                         _______ _______ _______ _____ _____    ______ ____
ROOT
ATOM      1  C   UNL     1       1.755   9.428  17.992  0.00  0.00    +0.000 C 
ATOM      2  O   UNL     1       2.555  10.277  17.597  0.00  0.00    +0.000 OA
ATOM      3  N   UNL     1       2.052   8.072  17.963  0.00  0.00    +0.000 N 
ATOM      4  H   UNL     1       1.318   7.400  18.136  0.00  0.00    +0.000 HD
ENDROOT
BRANCH   1   5
ATOM      5  C   UNL     1       0.396   9.822  18.543  0.00  0.00    +0.000 C 
BRANCH   5  11
ATOM      6  C   UNL     1      -1.481  11.636  22.880  0.00  0.00    +0.000 C 
ATOM      7  C   UNL     1      -0.610  10.649  22.161  0.00  0.00    +0.000 A 
ATOM      8  C   UNL     1       0.126   9.687  22.859  0.00  0.00    +0.000 A 
ATOM      9  C   UNL     1       0.941   8.793  22.170  0.00  0.00    +0.000 A 
ATOM     10  C   UNL     1       1.012   8.839  20.775  0.00  0.00    +0.000 A 
ATOM     11  C   UNL     1       0.259   9.774  20.049  0.00  0.00    +0.000 A 
ATOM     12  C   UNL     1      -0.523  10.695  20.761  0.00  0.00    +0.000 A 
ENDBRANCH   5  11
ENDBRANCH   1   5
BRANCH   3  13
ATOM     13  C   UNL     1       3.346   7.669  17.422  0.00  0.00    +0.000 C 
BRANCH  13  14
ATOM     14  C   UNL     1       4.145   6.656  18.244  0.00  0.00    +0.000 C 
BRANCH  14  15
ATOM     15  N   UNL     1       3.658   5.292  18.026  0.00  0.00    +0.000 N 
ATOM     16  C   UNL     1       4.082   4.447  17.014  0.00  0.00    +0.000 A 
ATOM     17  C   UNL     1       5.105   4.775  15.982  0.00  0.00    +0.000 C 
ATOM     18  C   UNL     1       3.377   3.268  17.137  0.00  0.00    +0.000 A 
ATOM     19  C   UNL     1       2.496   3.383  18.238  0.00  0.00    +0.000 A 
ATOM     20  C   UNL     1       1.552   2.504  18.809  0.00  0.00    +0.000 A 
ATOM     21  C   UNL     1       0.810   2.919  19.915  0.00  0.00    +0.000 A 
ATOM     22  C   UNL     1       0.993   4.192  20.446  0.00  0.00    +0.000 A 
ATOM     23  C   UNL     1       1.924   5.083  19.894  0.00  0.00    +0.000 A 
ATOM     24  C   UNL     1       2.677   4.660  18.783  0.00  0.00    +0.000 A 
ENDBRANCH  14  15
ENDBRANCH  13  14
ENDBRANCH   3  13
TORSDOF 5
ENDMDL
MODEL 3
REMARK VINA RESULT:      -7.1      2.814      4.965
REMARK  Name = 
REMARK  7 active torsions:
REMARK  status: ('A' for Active; 'I' for Inactive)
REMARK    1  A    between atoms: C_1  and  C_2
REMARK    2  A    between atoms: C_6  and  C_7
REMARK    3  A    between atoms: C_7  and  C_8
REMARK    4  A    between atoms: N_10  and  C_11
REMARK    5  A    between atoms: C_11  and  C_12
REMARK    6  A    between atoms: C_12  and  N_13
REMARK    7  A    between atoms: C_14  and  C_15
REMARK                            x       y       z     vdW  Elec       q    Type
REMARK                         _______ _______ _______ _____ _____    ______ ____
ROOT
ATOM      1  C   UNL     1       1.572   9.774  18.429  0.00  0.00    +0.000 C 
ATOM      2  O   UNL     1       2.156  10.470  17.598  0.00  0.00    +0.000 OA
ATOM      3  N   UNL     1       1.842   8.420  18.571  0.00  0.00    +0.000 N 
ATOM      4  H   UNL     1       1.234   7.850  19.140  0.00  0.00    +0.000 HD
ENDROOT
BRANCH   1   5
ATOM      5  C   UNL     1       0.524  10.366  19.355  0.00  0.00    +0.000 C 
BRANCH   5  11
ATOM      6  C   UNL     1      -2.835   9.709  15.626  0.00  0.00    +0.000 C 
ATOM      7  C   UNL     1      -2.462  10.342  16.934  0.00  0.00    +0.000 A 
ATOM      8  C   UNL     1      -3.337  11.209  17.595  0.00  0.00    +0.000 A 
ATOM      9  C   UNL     1      -2.961  11.799  18.800  0.00  0.00    +0.000 A 
ATOM     10  C   UNL     1      -1.716  11.509  19.364  0.00  0.00    +0.000 A 
ATOM     11  C   UNL     1      -0.833  10.619  18.736  0.00  0.00    +0.000 A 
ATOM     12  C   UNL     1      -1.209  10.068  17.502  0.00  0.00    +0.000 A 
ENDBRANCH   5  11
ENDBRANCH   1   5
BRANCH   3  13
ATOM     13  C   UNL     1       2.834   7.826  17.680  0.00  0.00    +0.000 C 
BRANCH  13  14
ATOM     14  C   UNL     1       3.861   6.894  18.325  0.00  0.00    +0.000 C 
BRANCH  14  15
ATOM     15  N   UNL     1       3.538   5.488  18.066  0.00  0.00    +0.000 N 
ATOM     16  C   UNL     1       4.068   4.724  17.040  0.00  0.00    +0.000 A 
ATOM     17  C   UNL     1       5.058   5.194  16.031  0.00  0.00    +0.000 C 
ATOM     18  C   UNL     1       3.503   3.468  17.125  0.00  0.00    +0.000 A 
ATOM     19  C   UNL     1       2.602   3.453  18.216  0.00  0.00    +0.000 A 
ATOM     20  C   UNL     1       1.761   2.456  18.752  0.00  0.00    +0.000 A 
ATOM     21  C   UNL     1       0.963   2.754  19.857  0.00  0.00    +0.000 A 
ATOM     22  C   UNL     1       0.991   4.026  20.421  0.00  0.00    +0.000 A 
ATOM     23  C   UNL     1       1.819   5.032  19.904  0.00  0.00    +0.000 A 
ATOM     24  C   UNL     1       2.628   4.728  18.793  0.00  0.00    +0.000 A 
ENDBRANCH  14  15
ENDBRANCH  13  14
ENDBRANCH   3  13
TORSDOF 5
ENDMDL
MODEL 4
REMARK VINA RESULT:      -7.1      3.050      6.806
REMARK  Name = 
REMARK  7 active torsions:
REMARK  status: ('A' for Active; 'I' for Inactive)
REMARK    1  A    between atoms: C_1  and  C_2
REMARK    2  A    between atoms: C_6  and  C_7
REMARK    3  A    between atoms: C_7  and  C_8
REMARK    4  A    between atoms: N_10  and  C_11
REMARK    5  A    between atoms: C_11  and  C_12
REMARK    6  A    between atoms: C_12  and  N_13
REMARK    7  A    between atoms: C_14  and  C_15
REMARK                            x       y       z     vdW  Elec       q    Type
REMARK                         _______ _______ _______ _____ _____    ______ ____
ROOT
ATOM      1  C   UNL     1       6.153   5.813  16.832  0.00  0.00    +0.000 C 
ATOM      2  O   UNL     1       6.816   6.767  17.242  0.00  0.00    +0.000 OA
ATOM      3  N   UNL     1       4.766   5.804  16.897  0.00  0.00    +0.000 N 
ATOM      4  H   UNL     1       4.267   4.947  16.708  0.00  0.00    +0.000 HD
ENDROOT
BRANCH   1   5
ATOM      5  C   UNL     1       6.821   4.593  16.224  0.00  0.00    +0.000 C 
BRANCH   5  11
ATOM      6  C   UNL     1       5.216   2.722  11.803  0.00  0.00    +0.000 C 
ATOM      7  C   UNL     1       6.123   3.643  12.564  0.00  0.00    +0.000 A 
ATOM      8  C   UNL     1       7.050   4.456  11.906  0.00  0.00    +0.000 A 
ATOM      9  C   UNL     1       7.893   5.290  12.636  0.00  0.00    +0.000 A 
ATOM     10  C   UNL     1       7.802   5.334  14.030  0.00  0.00    +0.000 A 
ATOM     11  C   UNL     1       6.859   4.551  14.712  0.00  0.00    +0.000 A 
ATOM     12  C   UNL     1       6.047   3.685  13.965  0.00  0.00    +0.000 A 
ENDBRANCH   5  11
ENDBRANCH   1   5
BRANCH   3  13
ATOM     13  C   UNL     1       4.104   6.960  17.493  0.00  0.00    +0.000 C 
BRANCH  13  14
ATOM     14  C   UNL     1       2.582   6.881  17.628  0.00  0.00    +0.000 C 
BRANCH  14  15
ATOM     15  N   UNL     1       2.192   6.025  18.751  0.00  0.00    +0.000 N 
ATOM     16  C   UNL     1       1.891   6.472  20.027  0.00  0.00    +0.000 A 
ATOM     17  C   UNL     1       1.906   7.892  20.474  0.00  0.00    +0.000 C 
ATOM     18  C   UNL     1       1.592   5.364  20.793  0.00  0.00    +0.000 A 
ATOM     19  C   UNL     1       1.715   4.210  19.983  0.00  0.00    +0.000 A 
ATOM     20  C   UNL     1       1.538   2.835  20.239  0.00  0.00    +0.000 A 
ATOM     21  C   UNL     1       1.747   1.913  19.212  0.00  0.00    +0.000 A 
ATOM     22  C   UNL     1       2.133   2.348  17.947  0.00  0.00    +0.000 A 
ATOM     23  C   UNL     1       2.316   3.710  17.671  0.00  0.00    +0.000 A 
ATOM     24  C   UNL     1       2.099   4.638  18.707  0.00  0.00    +0.000 A 
ENDBRANCH  14  15
ENDBRANCH  13  14
ENDBRANCH   3  13
TORSDOF 5
ENDMDL
MODEL 5
REMARK VINA RESULT:      -6.9      4.478      6.742
REMARK  Name = 
REMARK  7 active torsions:
REMARK  status: ('A' for Active; 'I' for Inactive)
REMARK    1  A    between atoms: C_1  and  C_2
REMARK    2  A    between atoms: C_6  and  C_7
REMARK    3  A    between atoms: C_7  and  C_8
REMARK    4  A    between atoms: N_10  and  C_11
REMARK    5  A    between atoms: C_11  and  C_12
REMARK    6  A    between atoms: C_12  and  N_13
REMARK    7  A    between atoms: C_14  and  C_15
REMARK                            x       y       z     vdW  Elec       q    Type
REMARK                         _______ _______ _______ _____ _____    ______ ____
ROOT
ATOM      1  C   UNL     1       8.077   8.857  17.891  0.00  0.00    +0.000 C 
ATOM      2  O   UNL     1       8.611   8.141  18.739  0.00  0.00    +0.000 OA
ATOM      3  N   UNL     1       7.002   8.415  17.131  0.00  0.00    +0.000 N 
ATOM      4  H   UNL     1       6.698   8.961  16.338  0.00  0.00    +0.000 HD
ENDROOT
BRANCH   1   5
ATOM      5  C   UNL     1       8.564  10.271  17.634  0.00  0.00    +0.000 C 
BRANCH   5  11
ATOM      6  C   UNL     1       9.284  12.275  22.227  0.00  0.00    +0.000 C 
ATOM      7  C   UNL     1       9.839  11.855  20.898  0.00  0.00    +0.000 A 
ATOM      8  C   UNL     1      11.192  12.027  20.590  0.00  0.00    +0.000 A 
ATOM      9  C   UNL     1      11.680  11.645  19.342  0.00  0.00    +0.000 A 
ATOM     10  C   UNL     1      10.823  11.068  18.400  0.00  0.00    +0.000 A 
ATOM     11  C   UNL     1       9.469  10.857  18.696  0.00  0.00    +0.000 A 
ATOM     12  C   UNL     1       8.985  11.287  19.940  0.00  0.00    +0.000 A 
ENDBRANCH   5  11
ENDBRANCH   1   5
BRANCH   3  13
ATOM     13  C   UNL     1       6.527   7.053  17.350  0.00  0.00    +0.000 C 
BRANCH  13  14
ATOM     14  C   UNL     1       5.282   6.629  16.568  0.00  0.00    +0.000 C 
BRANCH  14  15
ATOM     15  N   UNL     1       4.691   5.411  17.130  0.00  0.00    +0.000 N 
ATOM     16  C   UNL     1       4.956   4.123  16.695  0.00  0.00    +0.000 A 
ATOM     17  C   UNL     1       5.885   3.755  15.591  0.00  0.00    +0.000 C 
ATOM     18  C   UNL     1       4.196   3.264  17.461  0.00  0.00    +0.000 A 
ATOM     19  C   UNL     1       3.442   4.029  18.382  0.00  0.00    +0.000 A 
ATOM     20  C   UNL     1       2.510   3.683  19.382  0.00  0.00    +0.000 A 
ATOM     21  C   UNL     1       1.912   4.689  20.142  0.00  0.00    +0.000 A 
ATOM     22  C   UNL     1       2.228   6.025  19.909  0.00  0.00    +0.000 A 
ATOM     23  C   UNL     1       3.150   6.392  18.920  0.00  0.00    +0.000 A 
ATOM     24  C   UNL     1       3.757   5.375  18.159  0.00  0.00    +0.000 A 
ENDBRANCH  14  15
ENDBRANCH  13  14
ENDBRANCH   3  13
TORSDOF 5
ENDMDL
MODEL 6
REMARK VINA RESULT:      -6.9      2.790      4.168
REMARK  Name = 
REMARK  7 active torsions:
REMARK  status: ('A' for Active; 'I' for Inactive)
REMARK    1  A    between atoms: C_1  and  C_2
REMARK    2  A    between atoms: C_6  and  C_7
REMARK    3  A    between atoms: C_7  and  C_8
REMARK    4  A    between atoms: N_10  and  C_11
REMARK    5  A    between atoms: C_11  and  C_12
REMARK    6  A    between atoms: C_12  and  N_13
REMARK    7  A    between atoms: C_14  and  C_15
REMARK                            x       y       z     vdW  Elec       q    Type
REMARK                         _______ _______ _______ _____ _____    ______ ____
ROOT
ATOM      1  C   UNL     1       1.423   9.810  18.710  0.00  0.00    +0.000 C 
ATOM      2  O   UNL     1       2.123  10.347  17.850  0.00  0.00    +0.000 OA
ATOM      3  N   UNL     1       1.539   8.459  19.010  0.00  0.00    +0.000 N 
ATOM      4  H   UNL     1       0.843   8.020  19.595  0.00  0.00    +0.000 HD
ENDROOT
BRANCH   1   5
ATOM      5  C   UNL     1       0.398  10.603  19.499  0.00  0.00    +0.000 C 
BRANCH   5  11
ATOM      6  C   UNL     1      -2.811   9.712  15.686  0.00  0.00    +0.000 C 
ATOM      7  C   UNL     1      -2.507  10.393  16.988  0.00  0.00    +0.000 A 
ATOM      8  C   UNL     1      -3.437  11.238  17.599  0.00  0.00    +0.000 A 
ATOM      9  C   UNL     1      -3.125  11.873  18.799  0.00  0.00    +0.000 A 
ATOM     10  C   UNL     1      -1.887  11.651  19.409  0.00  0.00    +0.000 A 
ATOM     11  C   UNL     1      -0.948  10.783  18.831  0.00  0.00    +0.000 A 
ATOM     12  C   UNL     1      -1.262  10.187  17.602  0.00  0.00    +0.000 A 
ENDBRANCH   5  11
ENDBRANCH   1   5
BRANCH   3  13
ATOM     13  C   UNL     1       2.507   7.673  18.253  0.00  0.00    +0.000 C 
BRANCH  13  14
ATOM     14  C   UNL     1       3.181   6.518  18.996  0.00  0.00    +0.000 C 
BRANCH  14  15
ATOM     15  N   UNL     1       3.565   5.445  18.074  0.00  0.00    +0.000 N 
ATOM     16  C   UNL     1       2.803   4.323  17.796  0.00  0.00    +0.000 A 
ATOM     17  C   UNL     1       1.467   4.016  18.378  0.00  0.00    +0.000 C 
ATOM     18  C   UNL     1       3.514   3.552  16.900  0.00  0.00    +0.000 A 
ATOM     19  C   UNL     1       4.741   4.201  16.622  0.00  0.00    +0.000 A 
ATOM     20  C   UNL     1       5.836   3.870  15.799  0.00  0.00    +0.000 A 
ATOM     21  C   UNL     1       6.933   4.731  15.738  0.00  0.00    +0.000 A 
ATOM     22  C   UNL     1       6.949   5.903  16.489  0.00  0.00    +0.000 A 
ATOM     23  C   UNL     1       5.871   6.250  17.315  0.00  0.00    +0.000 A 
ATOM     24  C   UNL     1       4.763   5.384  17.370  0.00  0.00    +0.000 A 
ENDBRANCH  14  15
ENDBRANCH  13  14
ENDBRANCH   3  13
TORSDOF 5
ENDMDL
MODEL 7
REMARK VINA RESULT:      -6.8      1.262      2.078
REMARK  Name = 
REMARK  7 active torsions:
REMARK  status: ('A' for Active; 'I' for Inactive)
REMARK    1  A    between atoms: C_1  and  C_2
REMARK    2  A    between atoms: C_6  and  C_7
REMARK    3  A    between atoms: C_7  and  C_8
REMARK    4  A    between atoms: N_10  and  C_11
REMARK    5  A    between atoms: C_11  and  C_12
REMARK    6  A    between atoms: C_12  and  N_13
REMARK    7  A    between atoms: C_14  and  C_15
REMARK                            x       y       z     vdW  Elec       q    Type
REMARK                         _______ _______ _______ _____ _____    ______ ____
ROOT
ATOM      1  C   UNL     1       2.392   6.357  18.881  0.00  0.00    +0.000 C 
ATOM      2  O   UNL     1       1.797   5.633  18.081  0.00  0.00    +0.000 OA
ATOM      3  N   UNL     1       2.927   5.860  20.061  0.00  0.00    +0.000 N 
ATOM      4  H   UNL     1       3.260   6.504  20.765  0.00  0.00    +0.000 HD
ENDROOT
BRANCH   1   5
ATOM      5  C   UNL     1       2.582   7.839  18.611  0.00  0.00    +0.000 C 
BRANCH   5  11
ATOM      6  C   UNL     1      -0.267   9.421  22.485  0.00  0.00    +0.000 C 
ATOM      7  C   UNL     1       0.114   9.515  21.037  0.00  0.00    +0.000 A 
ATOM      8  C   UNL     1      -0.520  10.417  20.178  0.00  0.00    +0.000 A 
ATOM      9  C   UNL     1      -0.160  10.474  18.833  0.00  0.00    +0.000 A 
ATOM     10  C   UNL     1       0.851   9.644  18.342  0.00  0.00    +0.000 A 
ATOM     11  C   UNL     1       1.523   8.752  19.190  0.00  0.00    +0.000 A 
ATOM     12  C   UNL     1       1.120   8.677  20.531  0.00  0.00    +0.000 A 
ENDBRANCH   5  11
ENDBRANCH   1   5
BRANCH   3  13
ATOM     13  C   UNL     1       2.743   4.441  20.349  0.00  0.00    +0.000 C 
BRANCH  13  14
ATOM     14  C   UNL     1       3.931   3.524  20.051  0.00  0.00    +0.000 C 
BRANCH  14  15
ATOM     15  N   UNL     1       4.455   3.754  18.702  0.00  0.00    +0.000 N 
ATOM     16  C   UNL     1       3.977   3.153  17.549  0.00  0.00    +0.000 A 
ATOM     17  C   UNL     1       2.852   2.180  17.481  0.00  0.00    +0.000 C 
ATOM     18  C   UNL     1       4.741   3.614  16.497  0.00  0.00    +0.000 A 
ATOM     19  C   UNL     1       5.712   4.510  17.003  0.00  0.00    +0.000 A 
ATOM     20  C   UNL     1       6.740   5.257  16.392  0.00  0.00    +0.000 A 
ATOM     21  C   UNL     1       7.562   6.065  17.179  0.00  0.00    +0.000 A 
ATOM     22  C   UNL     1       7.373   6.127  18.557  0.00  0.00    +0.000 A 
ATOM     23  C   UNL     1       6.358   5.392  19.185  0.00  0.00    +0.000 A 
ATOM     24  C   UNL     1       5.526   4.583  18.389  0.00  0.00    +0.000 A 
ENDBRANCH  14  15
ENDBRANCH  13  14
ENDBRANCH   3  13
TORSDOF 5
ENDMDL
MODEL 8
REMARK VINA RESULT:      -6.8      2.448      6.248
REMARK  Name = 
REMARK  7 active torsions:
REMARK  status: ('A' for Active; 'I' for Inactive)
REMARK    1  A    between atoms: C_1  and  C_2
REMARK    2  A    between atoms: C_6  and  C_7
REMARK    3  A    between atoms: C_7  and  C_8
REMARK    4  A    between atoms: N_10  and  C_11
REMARK    5  A    between atoms: C_11  and  C_12
REMARK    6  A    between atoms: C_12  and  N_13
REMARK    7  A    between atoms: C_14  and  C_15
REMARK                            x       y       z     vdW  Elec       q    Type
REMARK                         _______ _______ _______ _____ _____    ______ ____
ROOT
ATOM      1  C   UNL     1       5.837   5.588  18.113  0.00  0.00    +0.000 C 
ATOM      2  O   UNL     1       5.677   5.619  19.334  0.00  0.00    +0.000 OA
ATOM      3  N   UNL     1       5.131   6.426  17.260  0.00  0.00    +0.000 N 
ATOM      4  H   UNL     1       5.164   6.261  16.265  0.00  0.00    +0.000 HD
ENDROOT
BRANCH   1   5
ATOM      5  C   UNL     1       6.827   4.632  17.473  0.00  0.00    +0.000 C 
BRANCH   5  11
ATOM      6  C   UNL     1       8.271   5.670  12.733  0.00  0.00    +0.000 C 
ATOM      7  C   UNL     1       7.349   4.956  13.677  0.00  0.00    +0.000 A 
ATOM      8  C   UNL     1       6.319   4.138  13.205  0.00  0.00    +0.000 A 
ATOM      9  C   UNL     1       5.464   3.500  14.101  0.00  0.00    +0.000 A 
ATOM     10  C   UNL     1       5.646   3.658  15.478  0.00  0.00    +0.000 A 
ATOM     11  C   UNL     1       6.691   4.450  15.977  0.00  0.00    +0.000 A 
ATOM     12  C   UNL     1       7.515   5.119  15.061  0.00  0.00    +0.000 A 
ENDBRANCH   5  11
ENDBRANCH   1   5
BRANCH   3  13
ATOM     13  C   UNL     1       4.162   7.342  17.853  0.00  0.00    +0.000 C 
BRANCH  13  14
ATOM     14  C   UNL     1       2.687   6.958  17.716  0.00  0.00    +0.000 C 
BRANCH  14  15
ATOM     15  N   UNL     1       2.286   6.009  18.758  0.00  0.00    +0.000 N 
ATOM     16  C   UNL     1       1.902   6.351  20.043  0.00  0.00    +0.000 A 
ATOM     17  C   UNL     1       1.826   7.736  20.585  0.00  0.00    +0.000 C 
ATOM     18  C   UNL     1       1.622   5.181  20.717  0.00  0.00    +0.000 A 
ATOM     19  C   UNL     1       1.841   4.092  19.839  0.00  0.00    +0.000 A 
ATOM     20  C   UNL     1       1.720   2.696  19.993  0.00  0.00    +0.000 A 
ATOM     21  C   UNL     1       2.023   1.859  18.918  0.00  0.00    +0.000 A 
ATOM     22  C   UNL     1       2.448   2.398  17.707  0.00  0.00    +0.000 A 
ATOM     23  C   UNL     1       2.577   3.783  17.533  0.00  0.00    +0.000 A 
ATOM     24  C   UNL     1       2.264   4.625  18.616  0.00  0.00    +0.000 A 
ENDBRANCH  14  15
ENDBRANCH  13  14
ENDBRANCH   3  13
TORSDOF 5
ENDMDL
MODEL 9
REMARK VINA RESULT:      -6.7      6.206      8.673
REMARK  Name = 
REMARK  7 active torsions:
REMARK  status: ('A' for Active; 'I' for Inactive)
REMARK    1  A    between atoms: C_1  and  C_2
REMARK    2  A    between atoms: C_6  and  C_7
REMARK    3  A    between atoms: C_7  and  C_8
REMARK    4  A    between atoms: N_10  and  C_11
REMARK    5  A    between atoms: C_11  and  C_12
REMARK    6  A    between atoms: C_12  and  N_13
REMARK    7  A    between atoms: C_14  and  C_15
REMARK                            x       y       z     vdW  Elec       q    Type
REMARK                         _______ _______ _______ _____ _____    ______ ____
ROOT
ATOM      1  C   UNL     1       8.016   7.769  18.209  0.00  0.00    +0.000 C 
ATOM      2  O   UNL     1       7.536   8.277  17.195  0.00  0.00    +0.000 OA
ATOM      3  N   UNL     1       8.760   8.511  19.117  0.00  0.00    +0.000 N 
ATOM      4  H   UNL     1       9.274   8.034  19.844  0.00  0.00    +0.000 HD
ENDROOT
BRANCH   1   5
ATOM      5  C   UNL     1       7.812   6.299  18.527  0.00  0.00    +0.000 C 
BRANCH   5  11
ATOM      6  C   UNL     1       2.984   4.985  17.759  0.00  0.00    +0.000 C 
ATOM      7  C   UNL     1       4.423   4.921  17.342  0.00  0.00    +0.000 A 
ATOM      8  C   UNL     1       4.822   4.184  16.223  0.00  0.00    +0.000 A 
ATOM      9  C   UNL     1       6.167   4.126  15.866  0.00  0.00    +0.000 A 
ATOM     10  C   UNL     1       7.122   4.823  16.611  0.00  0.00    +0.000 A 
ATOM     11  C   UNL     1       6.743   5.595  17.719  0.00  0.00    +0.000 A 
ATOM     12  C   UNL     1       5.391   5.608  18.091  0.00  0.00    +0.000 A 
ENDBRANCH   5  11
ENDBRANCH   1   5
BRANCH   3  13
ATOM     13  C   UNL     1       8.983   9.923  18.823  0.00  0.00    +0.000 C 
BRANCH  13  14
ATOM     14  C   UNL     1      10.048  10.636  19.660  0.00  0.00    +0.000 C 
BRANCH  14  15
ATOM     15  N   UNL     1       9.894  12.091  19.588  0.00  0.00    +0.000 N 
ATOM     16  C   UNL     1       9.210  12.867  20.509  0.00  0.00    +0.000 A 
ATOM     17  C   UNL     1       8.522  12.359  21.729  0.00  0.00    +0.000 C 
ATOM     18  C   UNL     1       9.278  14.175  20.080  0.00  0.00    +0.000 A 
ATOM     19  C   UNL     1      10.010  14.214  18.869  0.00  0.00    +0.000 A 
ATOM     20  C   UNL     1      10.376  15.264  18.002  0.00  0.00    +0.000 A 
ATOM     21  C   UNL     1      11.111  14.978  16.850  0.00  0.00    +0.000 A 
ATOM     22  C   UNL     1      11.474  13.667  16.557  0.00  0.00    +0.000 A 
ATOM     23  C   UNL     1      11.120  12.608  17.404  0.00  0.00    +0.000 A 
ATOM     24  C   UNL     1      10.384  12.899  18.568  0.00  0.00    +0.000 A 
ENDBRANCH  14  15
ENDBRANCH  13  14
ENDBRANCH   3  13
TORSDOF 5
ENDMDL
