MODEL 1
REMARK VINA RESULT:      -7.8      0.000      0.000
REMARK  Name = 
REMARK  6 active torsions:
REMARK  status: ('A' for Active; 'I' for Inactive)
REMARK    1  A    between atoms: C_1  and  C_2
REMARK    2  A    between atoms: C_4  and  C_5
REMARK    3  A    between atoms: C_6  and  C_7
REMARK    4  A    between atoms: C_10  and  O_11
REMARK    5  A    between atoms: O_11  and  C_12
REMARK    6  A    between atoms: C_15  and  C_16
REMARK                            x       y       z     vdW  Elec       q    Type
REMARK                         _______ _______ _______ _____ _____    ______ ____
ROOT
ATOM      1  C   UNL     1       0.358  10.596  19.556  0.00  0.00    +0.000 A 
ATOM      2  C   UNL     1       1.053  10.674  18.344  0.00  0.00    +0.000 A 
ATOM      3  C   UNL     1       1.934   9.655  17.975  0.00  0.00    +0.000 A 
ATOM      4  C   UNL     1       2.127   8.555  18.813  0.00  0.00    +0.000 A 
ATOM      5  C   UNL     1       1.393   8.449  19.998  0.00  0.00    +0.000 A 
ATOM      6  C   UNL     1       0.534   9.480  20.382  0.00  0.00    +0.000 A 
ENDROOT
BRANCH   1  12
ATOM      7  C   UNL     1      -3.444  14.730  21.068  0.00  0.00    +0.000 C 
ATOM      8  C   UNL     1      -2.374  13.712  20.766  0.00  0.00    +0.000 A 
ATOM      9  N   UNL     1      -2.664  12.790  19.778  0.00  0.00    +0.000 N 
ATOM     10  C   UNL     1      -1.803  11.786  19.384  0.00  0.00    +0.000 A 
ATOM     11  C   UNL     1      -2.303  10.847  18.312  0.00  0.00    +0.000 C 
ATOM     12  C   UNL     1      -0.581  11.656  19.949  0.00  0.00    +0.000 A 
ATOM     13  C   UNL     1      -0.197  12.630  21.033  0.00  0.00    +0.000 A 
ATOM     14  O   UNL     1       0.902  12.549  21.581  0.00  0.00    +0.000 OA
ATOM     15  C   UNL     1      -1.192  13.690  21.418  0.00  0.00    +0.000 A 
ATOM     16 BR   UNL     1      -0.707  14.879  22.777  0.00  0.00    +0.000 Br
ATOM     17  H   UNL     1      -3.574  12.843  19.325  0.00  0.00    +0.000 HD
ENDBRANCH   1  12
BRANCH   4  18
ATOM     18  O   UNL     1       3.006   7.600  18.358  0.00  0.00    +0.000 OA
BRANCH  18  19
ATOM     19  C   UNL     1       2.779   6.269  18.627  0.00  0.00    +0.000 A 
ATOM     20  C   UNL     1       1.859   5.629  17.795  0.00  0.00    +0.000 A 
ATOM     21  C   UNL     1       1.561   4.276  17.981  0.00  0.00    +0.000 A 
ATOM     22  C   UNL     1       2.185   3.546  19.004  0.00  0.00    +0.000 A 
ATOM     23  C   UNL     1       3.131   4.190  19.815  0.00  0.00    +0.000 A 
ATOM     24  C   UNL     1       3.447   5.535  19.610  0.00  0.00    +0.000 A 
BRANCH  22  25
ATOM     25  C   UNL     1       1.864   2.090  19.238  0.00  0.00    +0.000 C 
ATOM     26  F   UNL     1       2.849   1.241  18.833  0.00  0.00    +0.000 F 
ATOM     27  F   UNL     1       1.647   1.810  20.552  0.00  0.00    +0.000 F 
ATOM     28  F   UNL     1       0.738   1.694  18.581  0.00  0.00    +0.000 F 
ENDBRANCH  22  25
ENDBRANCH  18  19
ENDBRANCH   4  18
TORSDOF 4
ENDMDL
MODEL 2
REMARK VINA RESULT:      -7.7      0.898      1.380
REMARK  Name = 
REMARK  6 active torsions:
REMARK  status: ('A' for Active; 'I' for Inactive)
REMARK    1  A    between atoms: C_1  and  C_2
REMARK    2  A    between atoms: C_4  and  C_5
REMARK    3  A    between atoms: C_6  and  C_7
REMARK    4  A    between atoms: C_10  and  O_11
REMARK    5  A    between atoms: O_11  and  C_12
REMARK    6  A    between atoms: C_15  and  C_16
REMARK                            x       y       z     vdW  Elec       q    Type
REMARK                         _______ _______ _______ _____ _____    ______ ____
ROOT
ATOM      1  C   UNL     1       0.513  10.188  19.366  0.00  0.00    +0.000 A 
ATOM      2  C   UNL     1       1.157  10.402  18.142  0.00  0.00    +0.000 A 
ATOM      3  C   UNL     1       2.126   9.501  17.696  0.00  0.00    +0.000 A 
ATOM      4  C   UNL     1       2.459   8.386  18.467  0.00  0.00    +0.000 A 
ATOM      5  C   UNL     1       1.779   8.143  19.664  0.00  0.00    +0.000 A 
ATOM      6  C   UNL     1       0.831   9.056  20.126  0.00  0.00    +0.000 A 
ENDROOT
BRANCH   1  12
ATOM      7  C   UNL     1      -3.647  13.819  21.196  0.00  0.00    +0.000 C 
ATOM      8  C   UNL     1      -2.489  12.931  20.816  0.00  0.00    +0.000 A 
ATOM      9  N   UNL     1      -2.694  12.076  19.750  0.00  0.00    +0.000 N 
ATOM     10  C   UNL     1      -1.746  11.191  19.279  0.00  0.00    +0.000 A 
ATOM     11  C   UNL     1      -2.158  10.308  18.125  0.00  0.00    +0.000 C 
ATOM     12  C   UNL     1      -0.517  11.123  19.841  0.00  0.00    +0.000 A 
ATOM     13  C   UNL     1      -0.224  12.029  21.008  0.00  0.00    +0.000 A 
ATOM     14  O   UNL     1       0.877  12.000  21.557  0.00  0.00    +0.000 OA
ATOM     15  C   UNL     1      -1.311  12.959  21.474  0.00  0.00    +0.000 A 
ATOM     16 BR   UNL     1      -0.935  14.064  22.935  0.00  0.00    +0.000 Br
ATOM     17  H   UNL     1      -3.605  12.087  19.295  0.00  0.00    +0.000 HD
ENDBRANCH   1  12
BRANCH   4  18
ATOM     18  O   UNL     1       3.418   7.553  17.937  0.00  0.00    +0.000 OA
BRANCH  18  19
ATOM     19  C   UNL     1       3.337   6.194  18.136  0.00  0.00    +0.000 A 
ATOM     20  C   UNL     1       4.442   5.602  18.749  0.00  0.00    +0.000 A 
ATOM     21  C   UNL     1       4.458   4.227  19.002  0.00  0.00    +0.000 A 
ATOM     22  C   UNL     1       3.361   3.427  18.643  0.00  0.00    +0.000 A 
ATOM     23  C   UNL     1       2.243   4.036  18.056  0.00  0.00    +0.000 A 
ATOM     24  C   UNL     1       2.219   5.415  17.830  0.00  0.00    +0.000 A 
BRANCH  22  25
ATOM     25  C   UNL     1       3.363   1.937  18.885  0.00  0.00    +0.000 C 
ATOM     26  F   UNL     1       4.250   1.540  19.840  0.00  0.00    +0.000 F 
ATOM     27  F   UNL     1       2.149   1.474  19.288  0.00  0.00    +0.000 F 
ATOM     28  F   UNL     1       3.681   1.230  17.765  0.00  0.00    +0.000 F 
ENDBRANCH  22  25
ENDBRANCH  18  19
ENDBRANCH   4  18
TORSDOF 4
ENDMDL
MODEL 3
REMARK VINA RESULT:      -7.7      0.270      1.213
REMARK  Name = 
REMARK  6 active torsions:
REMARK  status: ('A' for Active; 'I' for Inactive)
REMARK    1  A    between atoms: C_1  and  C_2
REMARK    2  A    between atoms: C_4  and  C_5
REMARK    3  A    between atoms: C_6  and  C_7
REMARK    4  A    between atoms: C_10  and  O_11
REMARK    5  A    between atoms: O_11  and  C_12
REMARK    6  A    between atoms: C_15  and  C_16
REMARK                            x       y       z     vdW  Elec       q    Type
REMARK                         _______ _______ _______ _____ _____    ______ ____
ROOT
ATOM      1  C   UNL     1       0.286  10.416  19.455  0.00  0.00    +0.000 A 
ATOM      2  C   UNL     1       0.591   9.340  20.296  0.00  0.00    +0.000 A 
ATOM      3  C   UNL     1       1.550   8.401  19.910  0.00  0.00    +0.000 A 
ATOM      4  C   UNL     1       2.207   8.529  18.685  0.00  0.00    +0.000 A 
ATOM      5  C   UNL     1       1.942   9.632  17.868  0.00  0.00    +0.000 A 
ATOM      6  C   UNL     1       0.964  10.556  18.238  0.00  0.00    +0.000 A 
ENDROOT
BRANCH   1  12
ATOM      7  C   UNL     1      -3.751  14.312  20.990  0.00  0.00    +0.000 C 
ATOM      8  C   UNL     1      -2.627  13.354  20.689  0.00  0.00    +0.000 A 
ATOM      9  N   UNL     1      -2.829  12.479  19.639  0.00  0.00    +0.000 N 
ATOM     10  C   UNL     1      -1.910  11.532  19.237  0.00  0.00    +0.000 A 
ATOM     11  C   UNL     1      -2.317  10.637  18.090  0.00  0.00    +0.000 C 
ATOM     12  C   UNL     1      -0.713  11.417  19.856  0.00  0.00    +0.000 A 
ATOM     13  C   UNL     1      -0.424  12.342  21.010  0.00  0.00    +0.000 A 
ATOM     14  O   UNL     1       0.648  12.272  21.610  0.00  0.00    +0.000 OA
ATOM     15  C   UNL     1      -1.479  13.340  21.400  0.00  0.00    +0.000 A 
ATOM     16 BR   UNL     1      -1.111  14.468  22.845  0.00  0.00    +0.000 Br
ATOM     17  H   UNL     1      -3.718  12.523  19.142  0.00  0.00    +0.000 HD
ENDBRANCH   1  12
BRANCH   4  18
ATOM     18  O   UNL     1       3.141   7.560  18.399  0.00  0.00    +0.000 OA
BRANCH  18  19
ATOM     19  C   UNL     1       2.866   6.237  18.665  0.00  0.00    +0.000 A 
ATOM     20  C   UNL     1       1.928   5.632  17.828  0.00  0.00    +0.000 A 
ATOM     21  C   UNL     1       1.582   4.289  18.010  0.00  0.00    +0.000 A 
ATOM     22  C   UNL     1       2.176   3.536  19.035  0.00  0.00    +0.000 A 
ATOM     23  C   UNL     1       3.140   4.146  19.851  0.00  0.00    +0.000 A 
ATOM     24  C   UNL     1       3.503   5.480  19.649  0.00  0.00    +0.000 A 
BRANCH  22  25
ATOM     25  C   UNL     1       1.803   2.092  19.265  0.00  0.00    +0.000 C 
ATOM     26  F   UNL     1       1.537   1.797  20.568  0.00  0.00    +0.000 F 
ATOM     27  F   UNL     1       0.696   1.722  18.565  0.00  0.00    +0.000 F 
ATOM     28  F   UNL     1       2.791   1.234  18.884  0.00  0.00    +0.000 F 
ENDBRANCH  22  25
ENDBRANCH  18  19
ENDBRANCH   4  18
TORSDOF 4
ENDMDL
MODEL 4
REMARK VINA RESULT:      -7.6      0.338      1.347
REMARK  Name = 
REMARK  6 active torsions:
REMARK  status: ('A' for Active; 'I' for Inactive)
REMARK    1  A    between atoms: C_1  and  C_2
REMARK    2  A    between atoms: C_4  and  C_5
REMARK    3  A    between atoms: C_6  and  C_7
REMARK    4  A    between atoms: C_10  and  O_11
REMARK    5  A    between atoms: O_11  and  C_12
REMARK    6  A    between atoms: C_15  and  C_16
REMARK                            x       y       z     vdW  Elec       q    Type
REMARK                         _______ _______ _______ _____ _____    ______ ____
ROOT
ATOM      1  C   UNL     1       0.124  10.580  19.575  0.00  0.00    +0.000 A 
ATOM      2  C   UNL     1       0.363   9.475  20.399  0.00  0.00    +0.000 A 
ATOM      3  C   UNL     1       1.319   8.524  20.035  0.00  0.00    +0.000 A 
ATOM      4  C   UNL     1       2.041   8.670  18.849  0.00  0.00    +0.000 A 
ATOM      5  C   UNL     1       1.842   9.801  18.051  0.00  0.00    +0.000 A 
ATOM      6  C   UNL     1       0.866  10.737  18.398  0.00  0.00    +0.000 A 
ENDROOT
BRANCH   1  12
ATOM      7  C   UNL     1      -3.901  14.522  21.020  0.00  0.00    +0.000 C 
ATOM      8  C   UNL     1      -2.780  13.552  20.742  0.00  0.00    +0.000 A 
ATOM      9  N   UNL     1      -2.978  12.666  19.701  0.00  0.00    +0.000 N 
ATOM     10  C   UNL     1      -2.062  11.708  19.320  0.00  0.00    +0.000 A 
ATOM     11  C   UNL     1      -2.463  10.802  18.180  0.00  0.00    +0.000 C 
ATOM     12  C   UNL     1      -0.872  11.592  19.953  0.00  0.00    +0.000 A 
ATOM     13  C   UNL     1      -0.588  12.529  21.098  0.00  0.00    +0.000 A 
ATOM     14  O   UNL     1       0.478  12.459  21.710  0.00  0.00    +0.000 OA
ATOM     15  C   UNL     1      -1.640  13.540  21.465  0.00  0.00    +0.000 A 
ATOM     16 BR   UNL     1      -1.279  14.683  22.900  0.00  0.00    +0.000 Br
ATOM     17  H   UNL     1      -3.861  12.710  19.195  0.00  0.00    +0.000 HD
ENDBRANCH   1  12
BRANCH   4  18
ATOM     18  O   UNL     1       2.966   7.687  18.583  0.00  0.00    +0.000 OA
BRANCH  18  19
ATOM     19  C   UNL     1       2.614   6.361  18.690  0.00  0.00    +0.000 A 
ATOM     20  C   UNL     1       2.968   5.733  19.884  0.00  0.00    +0.000 A 
ATOM     21  C   UNL     1       2.652   4.387  20.096  0.00  0.00    +0.000 A 
ATOM     22  C   UNL     1       1.973   3.655  19.109  0.00  0.00    +0.000 A 
ATOM     23  C   UNL     1       1.595   4.303  17.925  0.00  0.00    +0.000 A 
ATOM     24  C   UNL     1       1.888   5.655  17.728  0.00  0.00    +0.000 A 
BRANCH  22  25
ATOM     25  C   UNL     1       1.640   2.196  19.304  0.00  0.00    +0.000 C 
ATOM     26  F   UNL     1       2.617   1.350  18.875  0.00  0.00    +0.000 F 
ATOM     27  F   UNL     1       1.422   1.882  20.610  0.00  0.00    +0.000 F 
ATOM     28  F   UNL     1       0.509   1.828  18.638  0.00  0.00    +0.000 F 
ENDBRANCH  22  25
ENDBRANCH  18  19
ENDBRANCH   4  18
TORSDOF 4
ENDMDL
MODEL 5
REMARK VINA RESULT:      -7.6      3.176      3.663
REMARK  Name = 
REMARK  6 active torsions:
REMARK  status: ('A' for Active; 'I' for Inactive)
REMARK    1  A    between atoms: C_1  and  C_2
REMARK    2  A    between atoms: C_4  and  C_5
REMARK    3  A    between atoms: C_6  and  C_7
REMARK    4  A    between atoms: C_10  and  O_11
REMARK    5  A    between atoms: O_11  and  C_12
REMARK    6  A    between atoms: C_15  and  C_16
REMARK                            x       y       z     vdW  Elec       q    Type
REMARK                         _______ _______ _______ _____ _____    ______ ____
ROOT
ATOM      1  C   UNL     1       1.131  10.534  18.950  0.00  0.00    +0.000 A 
ATOM      2  C   UNL     1       1.465   9.841  17.782  0.00  0.00    +0.000 A 
ATOM      3  C   UNL     1       1.850   8.500  17.850  0.00  0.00    +0.000 A 
ATOM      4  C   UNL     1       1.907   7.846  19.082  0.00  0.00    +0.000 A 
ATOM      5  C   UNL     1       1.522   8.522  20.244  0.00  0.00    +0.000 A 
ATOM      6  C   UNL     1       1.165   9.870  20.182  0.00  0.00    +0.000 A 
ENDROOT
BRANCH   1  12
ATOM      7  C   UNL     1      -0.627  16.076  18.759  0.00  0.00    +0.000 C 
ATOM      8  C   UNL     1      -0.045  14.685  18.798  0.00  0.00    +0.000 A 
ATOM      9  N   UNL     1      -0.949  13.643  18.879  0.00  0.00    +0.000 N 
ATOM     10  C   UNL     1      -0.588  12.313  18.933  0.00  0.00    +0.000 A 
ATOM     11  C   UNL     1      -1.711  11.310  19.055  0.00  0.00    +0.000 C 
ATOM     12  C   UNL     1       0.713  11.942  18.890  0.00  0.00    +0.000 A 
ATOM     13  C   UNL     1       1.753  13.028  18.799  0.00  0.00    +0.000 A 
ATOM     14  O   UNL     1       2.949  12.742  18.763  0.00  0.00    +0.000 OA
ATOM     15  C   UNL     1       1.284  14.457  18.757  0.00  0.00    +0.000 A 
ATOM     16 BR   UNL     1       2.590  15.793  18.662  0.00  0.00    +0.000 Br
ATOM     17  H   UNL     1      -1.941  13.870  18.918  0.00  0.00    +0.000 HD
ENDBRANCH   1  12
BRANCH   4  18
ATOM     18  O   UNL     1       2.288   6.525  19.045  0.00  0.00    +0.000 OA
BRANCH  18  19
ATOM     19  C   UNL     1       3.279   6.117  18.182  0.00  0.00    +0.000 A 
ATOM     20  C   UNL     1       3.216   4.786  17.768  0.00  0.00    +0.000 A 
ATOM     21  C   UNL     1       4.172   4.273  16.887  0.00  0.00    +0.000 A 
ATOM     22  C   UNL     1       5.206   5.093  16.407  0.00  0.00    +0.000 A 
ATOM     23  C   UNL     1       5.244   6.437  16.804  0.00  0.00    +0.000 A 
ATOM     24  C   UNL     1       4.271   6.954  17.664  0.00  0.00    +0.000 A 
BRANCH  22  25
ATOM     25  C   UNL     1       6.263   4.558  15.472  0.00  0.00    +0.000 C 
ATOM     26  F   UNL     1       6.053   3.267  15.091  0.00  0.00    +0.000 F 
ATOM     27  F   UNL     1       6.352   5.278  14.321  0.00  0.00    +0.000 F 
ATOM     28  F   UNL     1       7.508   4.583  16.026  0.00  0.00    +0.000 F 
ENDBRANCH  22  25
ENDBRANCH  18  19
ENDBRANCH   4  18
TORSDOF 4
ENDMDL
MODEL 6
REMARK VINA RESULT:      -7.5      1.163      1.731
REMARK  Name = 
REMARK  6 active torsions:
REMARK  status: ('A' for Active; 'I' for Inactive)
REMARK    1  A    between atoms: C_1  and  C_2
REMARK    2  A    between atoms: C_4  and  C_5
REMARK    3  A    between atoms: C_6  and  C_7
REMARK    4  A    between atoms: C_10  and  O_11
REMARK    5  A    between atoms: O_11  and  C_12
REMARK    6  A    between atoms: C_15  and  C_16
REMARK                            x       y       z     vdW  Elec       q    Type
REMARK                         _______ _______ _______ _____ _____    ______ ____
ROOT
ATOM      1  C   UNL     1      -0.589  10.647  19.860  0.00  0.00    +0.000 A 
ATOM      2  C   UNL     1      -0.307   9.741  20.888  0.00  0.00    +0.000 A 
ATOM      3  C   UNL     1       0.744   8.832  20.751  0.00  0.00    +0.000 A 
ATOM      4  C   UNL     1       1.517   8.820  19.589  0.00  0.00    +0.000 A 
ATOM      5  C   UNL     1       1.271   9.759  18.583  0.00  0.00    +0.000 A 
ATOM      6  C   UNL     1       0.203  10.650  18.705  0.00  0.00    +0.000 A 
ENDROOT
BRANCH   1  12
ATOM      7  C   UNL     1      -4.996  14.412  20.341  0.00  0.00    +0.000 C 
ATOM      8  C   UNL     1      -3.799  13.495  20.324  0.00  0.00    +0.000 A 
ATOM      9  N   UNL     1      -3.748  12.571  19.299  0.00  0.00    +0.000 N 
ATOM     10  C   UNL     1      -2.731  11.651  19.141  0.00  0.00    +0.000 A 
ATOM     11  C   UNL     1      -2.859  10.693  17.980  0.00  0.00    +0.000 C 
ATOM     12  C   UNL     1      -1.685  11.616  19.997  0.00  0.00    +0.000 A 
ATOM     13  C   UNL     1      -1.675  12.599  21.140  0.00  0.00    +0.000 A 
ATOM     14  O   UNL     1      -0.748  12.602  21.949  0.00  0.00    +0.000 OA
ATOM     15  C   UNL     1      -2.824  13.563  21.255  0.00  0.00    +0.000 A 
ATOM     16 BR   UNL     1      -2.805  14.764  22.689  0.00  0.00    +0.000 Br
ATOM     17  H   UNL     1      -4.515  12.554  18.629  0.00  0.00    +0.000 HD
ENDBRANCH   1  12
BRANCH   4  18
ATOM     18  O   UNL     1       2.535   7.894  19.553  0.00  0.00    +0.000 OA
BRANCH  18  19
ATOM     19  C   UNL     1       2.244   6.555  19.424  0.00  0.00    +0.000 A 
ATOM     20  C   UNL     1       2.383   6.024  18.141  0.00  0.00    +0.000 A 
ATOM     21  C   UNL     1       2.118   4.672  17.904  0.00  0.00    +0.000 A 
ATOM     22  C   UNL     1       1.711   3.834  18.954  0.00  0.00    +0.000 A 
ATOM     23  C   UNL     1       1.604   4.370  20.245  0.00  0.00    +0.000 A 
ATOM     24  C   UNL     1       1.896   5.715  20.484  0.00  0.00    +0.000 A 
BRANCH  22  25
ATOM     25  C   UNL     1       1.398   2.376  18.719  0.00  0.00    +0.000 C 
ATOM     26  F   UNL     1       0.069   2.121  18.561  0.00  0.00    +0.000 F 
ATOM     27  F   UNL     1       2.007   1.886  17.606  0.00  0.00    +0.000 F 
ATOM     28  F   UNL     1       1.809   1.584  19.750  0.00  0.00    +0.000 F 
ENDBRANCH  22  25
ENDBRANCH  18  19
ENDBRANCH   4  18
TORSDOF 4
ENDMDL
MODEL 7
REMARK VINA RESULT:      -7.5      2.909      3.485
REMARK  Name = 
REMARK  6 active torsions:
REMARK  status: ('A' for Active; 'I' for Inactive)
REMARK    1  A    between atoms: C_1  and  C_2
REMARK    2  A    between atoms: C_4  and  C_5
REMARK    3  A    between atoms: C_6  and  C_7
REMARK    4  A    between atoms: C_10  and  O_11
REMARK    5  A    between atoms: O_11  and  C_12
REMARK    6  A    between atoms: C_15  and  C_16
REMARK                            x       y       z     vdW  Elec       q    Type
REMARK                         _______ _______ _______ _____ _____    ______ ____
ROOT
ATOM      1  C   UNL     1       0.723   9.359  19.770  0.00  0.00    +0.000 A 
ATOM      2  C   UNL     1       0.916   8.447  20.813  0.00  0.00    +0.000 A 
ATOM      3  C   UNL     1       1.802   7.379  20.653  0.00  0.00    +0.000 A 
ATOM      4  C   UNL     1       2.496   7.214  19.453  0.00  0.00    +0.000 A 
ATOM      5  C   UNL     1       2.344   8.155  18.429  0.00  0.00    +0.000 A 
ATOM      6  C   UNL     1       1.438   9.207  18.577  0.00  0.00    +0.000 A 
ENDROOT
BRANCH   1  12
ATOM      7  C   UNL     1      -2.999  13.793  20.341  0.00  0.00    +0.000 C 
ATOM      8  C   UNL     1      -1.973  12.689  20.305  0.00  0.00    +0.000 A 
ATOM      9  N   UNL     1      -2.056  11.808  19.243  0.00  0.00    +0.000 N 
ATOM     10  C   UNL     1      -1.205  10.737  19.062  0.00  0.00    +0.000 A 
ATOM     11  C   UNL     1      -1.468   9.859  17.862  0.00  0.00    +0.000 C 
ATOM     12  C   UNL     1      -0.198  10.494  19.932  0.00  0.00    +0.000 A 
ATOM     13  C   UNL     1      -0.047  11.417  21.113  0.00  0.00    +0.000 A 
ATOM     14  O   UNL     1       0.850  11.233  21.935  0.00  0.00    +0.000 OA
ATOM     15  C   UNL     1      -1.020  12.556  21.251  0.00  0.00    +0.000 A 
ATOM     16 BR   UNL     1      -0.829  13.681  22.733  0.00  0.00    +0.000 Br
ATOM     17  H   UNL     1      -2.801  11.946  18.563  0.00  0.00    +0.000 HD
ENDBRANCH   1  12
BRANCH   4  18
ATOM     18  O   UNL     1       3.351   6.138  19.395  0.00  0.00    +0.000 OA
BRANCH  18  19
ATOM     19  C   UNL     1       3.959   5.803  18.206  0.00  0.00    +0.000 A 
ATOM     20  C   UNL     1       3.798   4.480  17.794  0.00  0.00    +0.000 A 
ATOM     21  C   UNL     1       4.371   4.038  16.597  0.00  0.00    +0.000 A 
ATOM     22  C   UNL     1       5.113   4.922  15.797  0.00  0.00    +0.000 A 
ATOM     23  C   UNL     1       5.243   6.257  16.205  0.00  0.00    +0.000 A 
ATOM     24  C   UNL     1       4.646   6.702  17.388  0.00  0.00    +0.000 A 
BRANCH  22  25
ATOM     25  C   UNL     1       5.759   4.464  14.512  0.00  0.00    +0.000 C 
ATOM     26  F   UNL     1       6.666   5.349  14.012  0.00  0.00    +0.000 F 
ATOM     27  F   UNL     1       6.425   3.287  14.656  0.00  0.00    +0.000 F 
ATOM     28  F   UNL     1       4.850   4.260  13.518  0.00  0.00    +0.000 F 
ENDBRANCH  22  25
ENDBRANCH  18  19
ENDBRANCH   4  18
TORSDOF 4
ENDMDL
MODEL 8
REMARK VINA RESULT:      -7.5      2.735      3.435
REMARK  Name = 
REMARK  6 active torsions:
REMARK  status: ('A' for Active; 'I' for Inactive)
REMARK    1  A    between atoms: C_1  and  C_2
REMARK    2  A    between atoms: C_4  and  C_5
REMARK    3  A    between atoms: C_6  and  C_7
REMARK    4  A    between atoms: C_10  and  O_11
REMARK    5  A    between atoms: O_11  and  C_12
REMARK    6  A    between atoms: C_15  and  C_16
REMARK                            x       y       z     vdW  Elec       q    Type
REMARK                         _______ _______ _______ _____ _____    ______ ____
ROOT
ATOM      1  C   UNL     1       0.938  10.029  19.712  0.00  0.00    +0.000 A 
ATOM      2  C   UNL     1       0.811   9.189  20.824  0.00  0.00    +0.000 A 
ATOM      3  C   UNL     1       1.334   7.894  20.786  0.00  0.00    +0.000 A 
ATOM      4  C   UNL     1       1.982   7.430  19.641  0.00  0.00    +0.000 A 
ATOM      5  C   UNL     1       2.157   8.285  18.549  0.00  0.00    +0.000 A 
ATOM      6  C   UNL     1       1.611   9.570  18.573  0.00  0.00    +0.000 A 
ENDROOT
BRANCH   1  12
ATOM      7  C   UNL     1      -1.287  15.402  19.809  0.00  0.00    +0.000 C 
ATOM      8  C   UNL     1      -0.610  14.056  19.861  0.00  0.00    +0.000 A 
ATOM      9  N   UNL     1      -1.209  13.039  19.143  0.00  0.00    +0.000 N 
ATOM     10  C   UNL     1      -0.729  11.746  19.090  0.00  0.00    +0.000 A 
ATOM     11  C   UNL     1      -1.534  10.757  18.281  0.00  0.00    +0.000 C 
ATOM     12  C   UNL     1       0.403  11.397  19.744  0.00  0.00    +0.000 A 
ATOM     13  C   UNL     1       1.110  12.458  20.547  0.00  0.00    +0.000 A 
ATOM     14  O   UNL     1       2.140  12.188  21.164  0.00  0.00    +0.000 OA
ATOM     15  C   UNL     1       0.520  13.842  20.567  0.00  0.00    +0.000 A 
ATOM     16 BR   UNL     1       1.401  15.142  21.583  0.00  0.00    +0.000 Br
ATOM     17  H   UNL     1      -2.067  13.250  18.636  0.00  0.00    +0.000 HD
ENDBRANCH   1  12
BRANCH   4  18
ATOM     18  O   UNL     1       2.471   6.146  19.705  0.00  0.00    +0.000 OA
BRANCH  18  19
ATOM     19  C   UNL     1       3.473   5.745  18.850  0.00  0.00    +0.000 A 
ATOM     20  C   UNL     1       4.776   5.951  19.303  0.00  0.00    +0.000 A 
ATOM     21  C   UNL     1       5.866   5.574  18.513  0.00  0.00    +0.000 A 
ATOM     22  C   UNL     1       5.661   4.984  17.256  0.00  0.00    +0.000 A 
ATOM     23  C   UNL     1       4.347   4.753  16.823  0.00  0.00    +0.000 A 
ATOM     24  C   UNL     1       3.260   5.106  17.626  0.00  0.00    +0.000 A 
BRANCH  22  25
ATOM     25  C   UNL     1       6.821   4.588  16.375  0.00  0.00    +0.000 C 
ATOM     26  F   UNL     1       7.278   5.600  15.586  0.00  0.00    +0.000 F 
ATOM     27  F   UNL     1       7.895   4.158  17.091  0.00  0.00    +0.000 F 
ATOM     28  F   UNL     1       6.505   3.569  15.527  0.00  0.00    +0.000 F 
ENDBRANCH  22  25
ENDBRANCH  18  19
ENDBRANCH   4  18
TORSDOF 4
ENDMDL
MODEL 9
REMARK VINA RESULT:      -7.5      0.760      1.131
REMARK  Name = 
REMARK  6 active torsions:
REMARK  status: ('A' for Active; 'I' for Inactive)
REMARK    1  A    between atoms: C_1  and  C_2
REMARK    2  A    between atoms: C_4  and  C_5
REMARK    3  A    between atoms: C_6  and  C_7
REMARK    4  A    between atoms: C_10  and  O_11
REMARK    5  A    between atoms: O_11  and  C_12
REMARK    6  A    between atoms: C_15  and  C_16
REMARK                            x       y       z     vdW  Elec       q    Type
REMARK                         _______ _______ _______ _____ _____    ______ ____
ROOT
ATOM      1  C   UNL     1       0.339  10.277  19.511  0.00  0.00    +0.000 A 
ATOM      2  C   UNL     1       0.959  10.486  18.274  0.00  0.00    +0.000 A 
ATOM      3  C   UNL     1       1.939   9.598  17.825  0.00  0.00    +0.000 A 
ATOM      4  C   UNL     1       2.307   8.501  18.607  0.00  0.00    +0.000 A 
ATOM      5  C   UNL     1       1.651   8.262  19.818  0.00  0.00    +0.000 A 
ATOM      6  C   UNL     1       0.691   9.163  20.282  0.00  0.00    +0.000 A 
ENDROOT
BRANCH   1  12
ATOM      7  C   UNL     1      -3.862  13.859  21.344  0.00  0.00    +0.000 C 
ATOM      8  C   UNL     1      -2.698  12.976  20.971  0.00  0.00    +0.000 A 
ATOM      9  N   UNL     1      -2.858  12.191  19.846  0.00  0.00    +0.000 N 
ATOM     10  C   UNL     1      -1.899  11.321  19.370  0.00  0.00    +0.000 A 
ATOM     11  C   UNL     1      -2.262  10.516  18.144  0.00  0.00    +0.000 C 
ATOM     12  C   UNL     1      -0.702  11.198  19.989  0.00  0.00    +0.000 A 
ATOM     13  C   UNL     1      -0.458  12.027  21.223  0.00  0.00    +0.000 A 
ATOM     14  O   UNL     1       0.613  11.946  21.825  0.00  0.00    +0.000 OA
ATOM     15  C   UNL     1      -1.555  12.945  21.689  0.00  0.00    +0.000 A 
ATOM     16 BR   UNL     1      -1.242  13.953  23.233  0.00  0.00    +0.000 Br
ATOM     17  H   UNL     1      -3.744  12.244  19.346  0.00  0.00    +0.000 HD
ENDBRANCH   1  12
BRANCH   4  18
ATOM     18  O   UNL     1       3.274   7.679  18.074  0.00  0.00    +0.000 OA
BRANCH  18  19
ATOM     19  C   UNL     1       3.259   6.330  18.346  0.00  0.00    +0.000 A 
ATOM     20  C   UNL     1       2.208   5.608  17.780  0.00  0.00    +0.000 A 
ATOM     21  C   UNL     1       2.104   4.229  17.990  0.00  0.00    +0.000 A 
ATOM     22  C   UNL     1       3.056   3.558  18.772  0.00  0.00    +0.000 A 
ATOM     23  C   UNL     1       4.125   4.287  19.312  0.00  0.00    +0.000 A 
ATOM     24  C   UNL     1       4.242   5.660  19.077  0.00  0.00    +0.000 A 
BRANCH  22  25
ATOM     25  C   UNL     1       2.954   2.074  19.032  0.00  0.00    +0.000 C 
ATOM     26  F   UNL     1       1.789   1.704  19.632  0.00  0.00    +0.000 F 
ATOM     27  F   UNL     1       3.036   1.339  17.890  0.00  0.00    +0.000 F 
ATOM     28  F   UNL     1       3.951   1.619  19.842  0.00  0.00    +0.000 F 
ENDBRANCH  22  25
ENDBRANCH  18  19
ENDBRANCH   4  18
TORSDOF 4
ENDMDL
