MODEL 1
REMARK VINA RESULT:      -8.1      0.000      0.000
REMARK  Name = 
REMARK  6 active torsions:
REMARK  status: ('A' for Active; 'I' for Inactive)
REMARK    1  A    between atoms: C_1  and  C_2
REMARK    2  A    between atoms: C_5  and  C_6
REMARK    3  A    between atoms: C_6  and  C_7
REMARK    4  A    between atoms: C_6  and  N_8
REMARK    5  A    between atoms: C_9  and  C_11
REMARK    6  A    between atoms: C_11  and  N_12
REMARK                            x       y       z     vdW  Elec       q    Type
REMARK                         _______ _______ _______ _____ _____    ______ ____
ROOT
ATOM      1  N   UNL     1       4.012   5.418  18.969  0.00  0.00    +0.000 N 
ATOM      2  C   UNL     1       4.461   4.337  18.244  0.00  0.00    +0.000 C 
ATOM      3  O   UNL     1       3.702   3.478  17.794  0.00  0.00    +0.000 OA
ATOM      4  H   UNL     1       4.670   6.174  19.135  0.00  0.00    +0.000 HD
ENDROOT
BRANCH   1   5
ATOM      5  C   UNL     1       2.616   5.590  19.338  0.00  0.00    +0.000 C 
ATOM      6  C   UNL     1       2.372   4.972  20.716  0.00  0.00    +0.000 C 
BRANCH   5  11
ATOM      7  C   UNL     1       0.832  11.155  18.908  0.00  0.00    +0.000 C 
ATOM      8  C   UNL     1       1.343   9.748  19.045  0.00  0.00    +0.000 A 
ATOM      9  C   UNL     1       1.888   9.098  17.930  0.00  0.00    +0.000 A 
ATOM     10  C   UNL     1       2.317   7.768  18.009  0.00  0.00    +0.000 A 
ATOM     11  C   UNL     1       2.225   7.052  19.209  0.00  0.00    +0.000 A 
ATOM     12  C   UNL     1       1.697   7.714  20.333  0.00  0.00    +0.000 A 
ATOM     13  C   UNL     1       1.264   9.043  20.254  0.00  0.00    +0.000 A 
ATOM     14 CL   UNL     1       0.616   9.769  21.681  0.00  0.00    +0.000 Cl
ENDBRANCH   5  11
ENDBRANCH   1   5
BRANCH   2  15
ATOM     15  C   UNL     1       5.945   4.354  17.885  0.00  0.00    +0.000 C 
BRANCH  15  16
ATOM     16  N   UNL     1       6.181   4.446  16.462  0.00  0.00    +0.000 N 
ATOM     17  N   UNL     1       5.682   3.537  15.546  0.00  0.00    +0.000 NA
ATOM     18  C   UNL     1       6.234   3.901  14.428  0.00  0.00    +0.000 A 
ATOM     19  C   UNL     1       6.081   3.272  13.100  0.00  0.00    +0.000 A 
ATOM     20  C   UNL     1       6.747   3.817  12.068  0.00  0.00    +0.000 A 
ATOM     21  C   UNL     1       7.591   4.986  12.245  0.00  0.00    +0.000 A 
ATOM     22  C   UNL     1       7.724   5.537  13.461  0.00  0.00    +0.000 A 
ATOM     23  N   UNL     1       7.046   4.986  14.515  0.00  0.00    +0.000 N 
ATOM     24  C   UNL     1       7.043   5.361  15.837  0.00  0.00    +0.000 A 
ATOM     25  O   UNL     1       7.661   6.273  16.364  0.00  0.00    +0.000 OA
ENDBRANCH  15  16
ENDBRANCH   2  15
TORSDOF 4
ENDMDL
MODEL 2
REMARK VINA RESULT:      -8.0      2.365      3.150
REMARK  Name = 
REMARK  6 active torsions:
REMARK  status: ('A' for Active; 'I' for Inactive)
REMARK    1  A    between atoms: C_1  and  C_2
REMARK    2  A    between atoms: C_5  and  C_6
REMARK    3  A    between atoms: C_6  and  C_7
REMARK    4  A    between atoms: C_6  and  N_8
REMARK    5  A    between atoms: C_9  and  C_11
REMARK    6  A    between atoms: C_11  and  N_12
REMARK                            x       y       z     vdW  Elec       q    Type
REMARK                         _______ _______ _______ _____ _____    ______ ____
ROOT
ATOM      1  N   UNL     1       3.214   4.382  19.090  0.00  0.00    +0.000 N 
ATOM      2  C   UNL     1       3.070   3.691  17.908  0.00  0.00    +0.000 C 
ATOM      3  O   UNL     1       1.970   3.430  17.420  0.00  0.00    +0.000 OA
ATOM      4  H   UNL     1       4.143   4.722  19.321  0.00  0.00    +0.000 HD
ENDROOT
BRANCH   1   5
ATOM      5  C   UNL     1       2.080   4.787  19.905  0.00  0.00    +0.000 C 
ATOM      6  C   UNL     1       2.248   4.238  21.322  0.00  0.00    +0.000 C 
BRANCH   5  11
ATOM      7  C   UNL     1       1.064  10.549  19.578  0.00  0.00    +0.000 C 
ATOM      8  C   UNL     1       1.376   9.083  19.697  0.00  0.00    +0.000 A 
ATOM      9  C   UNL     1       2.009   8.421  18.637  0.00  0.00    +0.000 A 
ATOM     10  C   UNL     1       2.258   7.044  18.692  0.00  0.00    +0.000 A 
ATOM     11  C   UNL     1       1.891   6.292  19.815  0.00  0.00    +0.000 A 
ATOM     12  C   UNL     1       1.274   6.963  20.887  0.00  0.00    +0.000 A 
ATOM     13  C   UNL     1       1.022   8.338  20.831  0.00  0.00    +0.000 A 
ATOM     14 CL   UNL     1       0.247   9.075  22.188  0.00  0.00    +0.000 Cl
ENDBRANCH   5  11
ENDBRANCH   1   5
BRANCH   2  15
ATOM     15  C   UNL     1       4.363   3.409  17.147  0.00  0.00    +0.000 C 
BRANCH  15  16
ATOM     16  N   UNL     1       5.376   4.417  17.364  0.00  0.00    +0.000 N 
ATOM     17  N   UNL     1       6.248   4.404  18.439  0.00  0.00    +0.000 NA
ATOM     18  C   UNL     1       6.879   5.534  18.330  0.00  0.00    +0.000 A 
ATOM     19  C   UNL     1       7.923   6.074  19.225  0.00  0.00    +0.000 A 
ATOM     20  C   UNL     1       8.449   7.273  18.923  0.00  0.00    +0.000 A 
ATOM     21  C   UNL     1       8.010   8.020  17.757  0.00  0.00    +0.000 A 
ATOM     22  C   UNL     1       7.053   7.517  16.962  0.00  0.00    +0.000 A 
ATOM     23  N   UNL     1       6.516   6.294  17.265  0.00  0.00    +0.000 N 
ATOM     24  C   UNL     1       5.525   5.597  16.617  0.00  0.00    +0.000 A 
ATOM     25  O   UNL     1       4.895   5.927  15.624  0.00  0.00    +0.000 OA
ENDBRANCH  15  16
ENDBRANCH   2  15
TORSDOF 4
ENDMDL
MODEL 3
REMARK VINA RESULT:      -7.9      3.565      7.543
REMARK  Name = 
REMARK  6 active torsions:
REMARK  status: ('A' for Active; 'I' for Inactive)
REMARK    1  A    between atoms: C_1  and  C_2
REMARK    2  A    between atoms: C_5  and  C_6
REMARK    3  A    between atoms: C_6  and  C_7
REMARK    4  A    between atoms: C_6  and  N_8
REMARK    5  A    between atoms: C_9  and  C_11
REMARK    6  A    between atoms: C_11  and  N_12
REMARK                            x       y       z     vdW  Elec       q    Type
REMARK                         _______ _______ _______ _____ _____    ______ ____
ROOT
ATOM      1  N   UNL     1       5.817   6.068  17.569  0.00  0.00    +0.000 N 
ATOM      2  C   UNL     1       4.972   6.952  16.935  0.00  0.00    +0.000 C 
ATOM      3  O   UNL     1       5.167   7.349  15.786  0.00  0.00    +0.000 OA
ATOM      4  H   UNL     1       5.486   5.645  18.431  0.00  0.00    +0.000 HD
ENDROOT
BRANCH   1   5
ATOM      5  C   UNL     1       7.053   5.595  16.966  0.00  0.00    +0.000 C 
ATOM      6  C   UNL     1       7.848   4.793  17.997  0.00  0.00    +0.000 C 
BRANCH   5  11
ATOM      7  C   UNL     1       5.763   3.002  11.872  0.00  0.00    +0.000 C 
ATOM      8  C   UNL     1       6.148   3.634  13.181  0.00  0.00    +0.000 A 
ATOM      9  C   UNL     1       5.555   3.182  14.367  0.00  0.00    +0.000 A 
ATOM     10  C   UNL     1       5.845   3.789  15.595  0.00  0.00    +0.000 A 
ATOM     11  C   UNL     1       6.747   4.858  15.673  0.00  0.00    +0.000 A 
ATOM     12  C   UNL     1       7.356   5.295  14.483  0.00  0.00    +0.000 A 
ATOM     13  C   UNL     1       7.064   4.692  13.255  0.00  0.00    +0.000 A 
ATOM     14 CL   UNL     1       7.849   5.305  11.844  0.00  0.00    +0.000 Cl
ENDBRANCH   5  11
ENDBRANCH   1   5
BRANCH   2  15
ATOM     15  C   UNL     1       3.685   7.286  17.685  0.00  0.00    +0.000 C 
BRANCH  15  16
ATOM     16  N   UNL     1       3.054   6.124  18.269  0.00  0.00    +0.000 N 
ATOM     17  N   UNL     1       2.959   4.902  17.625  0.00  0.00    +0.000 NA
ATOM     18  C   UNL     1       2.216   4.197  18.423  0.00  0.00    +0.000 A 
ATOM     19  C   UNL     1       1.759   2.805  18.235  0.00  0.00    +0.000 A 
ATOM     20  C   UNL     1       0.992   2.262  19.196  0.00  0.00    +0.000 A 
ATOM     21  C   UNL     1       0.618   3.014  20.381  0.00  0.00    +0.000 A 
ATOM     22  C   UNL     1       1.036   4.281  20.529  0.00  0.00    +0.000 A 
ATOM     23  N   UNL     1       1.819   4.837  19.554  0.00  0.00    +0.000 N 
ATOM     24  C   UNL     1       2.342   6.106  19.479  0.00  0.00    +0.000 A 
ATOM     25  O   UNL     1       2.208   7.025  20.272  0.00  0.00    +0.000 OA
ENDBRANCH  15  16
ENDBRANCH   2  15
TORSDOF 4
ENDMDL
MODEL 4
REMARK VINA RESULT:      -7.9      2.403      3.543
REMARK  Name = 
REMARK  6 active torsions:
REMARK  status: ('A' for Active; 'I' for Inactive)
REMARK    1  A    between atoms: C_1  and  C_2
REMARK    2  A    between atoms: C_5  and  C_6
REMARK    3  A    between atoms: C_6  and  C_7
REMARK    4  A    between atoms: C_6  and  N_8
REMARK    5  A    between atoms: C_9  and  C_11
REMARK    6  A    between atoms: C_11  and  N_12
REMARK                            x       y       z     vdW  Elec       q    Type
REMARK                         _______ _______ _______ _____ _____    ______ ____
ROOT
ATOM      1  N   UNL     1       3.622   3.890  18.592  0.00  0.00    +0.000 N 
ATOM      2  C   UNL     1       3.472   3.473  17.288  0.00  0.00    +0.000 C 
ATOM      3  O   UNL     1       2.375   3.203  16.800  0.00  0.00    +0.000 OA
ATOM      4  H   UNL     1       4.524   4.275  18.857  0.00  0.00    +0.000 HD
ENDROOT
BRANCH   1   5
ATOM      5  C   UNL     1       2.509   3.964  19.525  0.00  0.00    +0.000 C 
ATOM      6  C   UNL     1       2.856   3.186  20.796  0.00  0.00    +0.000 C 
BRANCH   5  11
ATOM      7  C   UNL     1       1.277   9.632  20.352  0.00  0.00    +0.000 C 
ATOM      8  C   UNL     1       1.540   8.173  20.105  0.00  0.00    +0.000 A 
ATOM      9  C   UNL     1       1.233   7.236  21.101  0.00  0.00    +0.000 A 
ATOM     10  C   UNL     1       1.522   5.877  20.926  0.00  0.00    +0.000 A 
ATOM     11  C   UNL     1       2.116   5.415  19.745  0.00  0.00    +0.000 A 
ATOM     12  C   UNL     1       2.405   6.355  18.739  0.00  0.00    +0.000 A 
ATOM     13  C   UNL     1       2.120   7.714  18.914  0.00  0.00    +0.000 A 
ATOM     14 CL   UNL     1       2.522   8.797  17.631  0.00  0.00    +0.000 Cl
ENDBRANCH   5  11
ENDBRANCH   1   5
BRANCH   2  15
ATOM     15  C   UNL     1       4.734   3.525  16.430  0.00  0.00    +0.000 C 
BRANCH  15  16
ATOM     16  N   UNL     1       5.672   4.533  16.867  0.00  0.00    +0.000 N 
ATOM     17  N   UNL     1       6.457   4.406  18.001  0.00  0.00    +0.000 NA
ATOM     18  C   UNL     1       7.034   5.566  18.101  0.00  0.00    +0.000 A 
ATOM     19  C   UNL     1       7.975   6.017  19.146  0.00  0.00    +0.000 A 
ATOM     20  C   UNL     1       8.460   7.267  19.055  0.00  0.00    +0.000 A 
ATOM     21  C   UNL     1       8.074   8.152  17.969  0.00  0.00    +0.000 A 
ATOM     22  C   UNL     1       7.211   7.725  17.034  0.00  0.00    +0.000 A 
ATOM     23  N   UNL     1       6.716   6.451  17.122  0.00  0.00    +0.000 N 
ATOM     24  C   UNL     1       5.816   5.812  16.303  0.00  0.00    +0.000 A 
ATOM     25  O   UNL     1       5.250   6.251  15.315  0.00  0.00    +0.000 OA
ENDBRANCH  15  16
ENDBRANCH   2  15
TORSDOF 4
ENDMDL
MODEL 5
REMARK VINA RESULT:      -7.8      3.833      5.678
REMARK  Name = 
REMARK  6 active torsions:
REMARK  status: ('A' for Active; 'I' for Inactive)
REMARK    1  A    between atoms: C_1  and  C_2
REMARK    2  A    between atoms: C_5  and  C_6
REMARK    3  A    between atoms: C_6  and  C_7
REMARK    4  A    between atoms: C_6  and  N_8
REMARK    5  A    between atoms: C_9  and  C_11
REMARK    6  A    between atoms: C_11  and  N_12
REMARK                            x       y       z     vdW  Elec       q    Type
REMARK                         _______ _______ _______ _____ _____    ______ ____
ROOT
ATOM      1  N   UNL     1       1.198   9.549  18.623  0.00  0.00    +0.000 N 
ATOM      2  C   UNL     1       1.963   8.461  18.980  0.00  0.00    +0.000 C 
ATOM      3  O   UNL     1       1.914   7.954  20.100  0.00  0.00    +0.000 OA
ATOM      4  H   UNL     1       1.152   9.784  17.636  0.00  0.00    +0.000 HD
ENDROOT
BRANCH   1   5
ATOM      5  C   UNL     1       0.332  10.242  19.565  0.00  0.00    +0.000 C 
ATOM      6  C   UNL     1       1.080  11.433  20.164  0.00  0.00    +0.000 C 
BRANCH   5  11
ATOM      7  C   UNL     1      -4.614  11.665  16.764  0.00  0.00    +0.000 C 
ATOM      8  C   UNL     1      -3.373  11.246  17.501  0.00  0.00    +0.000 A 
ATOM      9  C   UNL     1      -3.095  11.798  18.758  0.00  0.00    +0.000 A 
ATOM     10  C   UNL     1      -1.918  11.475  19.444  0.00  0.00    +0.000 A 
ATOM     11  C   UNL     1      -0.990  10.581  18.896  0.00  0.00    +0.000 A 
ATOM     12  C   UNL     1      -1.281  10.012  17.643  0.00  0.00    +0.000 A 
ATOM     13  C   UNL     1      -2.456  10.337  16.955  0.00  0.00    +0.000 A 
ATOM     14 CL   UNL     1      -2.723   9.600  15.416  0.00  0.00    +0.000 Cl
ENDBRANCH   5  11
ENDBRANCH   1   5
BRANCH   2  15
ATOM     15  C   UNL     1       2.757   7.815  17.847  0.00  0.00    +0.000 C 
BRANCH  15  16
ATOM     16  N   UNL     1       2.802   6.374  17.940  0.00  0.00    +0.000 N 
ATOM     17  N   UNL     1       1.671   5.575  17.963  0.00  0.00    +0.000 NA
ATOM     18  C   UNL     1       2.145   4.387  18.191  0.00  0.00    +0.000 A 
ATOM     19  C   UNL     1       1.388   3.128  18.342  0.00  0.00    +0.000 A 
ATOM     20  C   UNL     1       2.083   2.002  18.574  0.00  0.00    +0.000 A 
ATOM     21  C   UNL     1       3.532   2.015  18.676  0.00  0.00    +0.000 A 
ATOM     22  C   UNL     1       4.202   3.171  18.545  0.00  0.00    +0.000 A 
ATOM     23  N   UNL     1       3.496   4.321  18.307  0.00  0.00    +0.000 N 
ATOM     24  C   UNL     1       3.958   5.607  18.159  0.00  0.00    +0.000 A 
ATOM     25  O   UNL     1       5.110   6.007  18.220  0.00  0.00    +0.000 OA
ENDBRANCH  15  16
ENDBRANCH   2  15
TORSDOF 4
ENDMDL
MODEL 6
REMARK VINA RESULT:      -7.6      3.868      5.498
REMARK  Name = 
REMARK  6 active torsions:
REMARK  status: ('A' for Active; 'I' for Inactive)
REMARK    1  A    between atoms: C_1  and  C_2
REMARK    2  A    between atoms: C_5  and  C_6
REMARK    3  A    between atoms: C_6  and  C_7
REMARK    4  A    between atoms: C_6  and  N_8
REMARK    5  A    between atoms: C_9  and  C_11
REMARK    6  A    between atoms: C_11  and  N_12
REMARK                            x       y       z     vdW  Elec       q    Type
REMARK                         _______ _______ _______ _____ _____    ______ ____
ROOT
ATOM      1  N   UNL     1       1.340   9.380  18.608  0.00  0.00    +0.000 N 
ATOM      2  C   UNL     1       2.042   8.267  19.012  0.00  0.00    +0.000 C 
ATOM      3  O   UNL     1       1.884   7.748  20.118  0.00  0.00    +0.000 OA
ATOM      4  H   UNL     1       1.385   9.627  17.623  0.00  0.00    +0.000 HD
ENDROOT
BRANCH   1   5
ATOM      5  C   UNL     1       0.417  10.086  19.482  0.00  0.00    +0.000 C 
ATOM      6  C   UNL     1       1.131  11.278  20.121  0.00  0.00    +0.000 C 
BRANCH   5  11
ATOM      7  C   UNL     1      -4.638  11.280  16.770  0.00  0.00    +0.000 C 
ATOM      8  C   UNL     1      -3.319  11.030  17.446  0.00  0.00    +0.000 A 
ATOM      9  C   UNL     1      -2.376  10.193  16.835  0.00  0.00    +0.000 A 
ATOM     10  C   UNL     1      -1.164   9.891  17.466  0.00  0.00    +0.000 A 
ATOM     11  C   UNL     1      -0.854  10.428  18.722  0.00  0.00    +0.000 A 
ATOM     12  C   UNL     1      -1.794  11.285  19.324  0.00  0.00    +0.000 A 
ATOM     13  C   UNL     1      -3.008  11.584  18.695  0.00  0.00    +0.000 A 
ATOM     14 CL   UNL     1      -4.107  12.634  19.515  0.00  0.00    +0.000 Cl
ENDBRANCH   5  11
ENDBRANCH   1   5
BRANCH   2  15
ATOM     15  C   UNL     1       2.912   7.611  17.943  0.00  0.00    +0.000 C 
BRANCH  15  16
ATOM     16  N   UNL     1       2.974   6.173  18.070  0.00  0.00    +0.000 N 
ATOM     17  N   UNL     1       1.881   5.342  17.894  0.00  0.00    +0.000 NA
ATOM     18  C   UNL     1       2.333   4.172  18.231  0.00  0.00    +0.000 A 
ATOM     19  C   UNL     1       1.594   2.893  18.261  0.00  0.00    +0.000 A 
ATOM     20  C   UNL     1       2.261   1.791  18.642  0.00  0.00    +0.000 A 
ATOM     21  C   UNL     1       3.664   1.848  19.015  0.00  0.00    +0.000 A 
ATOM     22  C   UNL     1       4.316   3.021  18.991  0.00  0.00    +0.000 A 
ATOM     23  N   UNL     1       3.639   4.146  18.601  0.00  0.00    +0.000 N 
ATOM     24  C   UNL     1       4.087   5.442  18.519  0.00  0.00    +0.000 A 
ATOM     25  O   UNL     1       5.196   5.877  18.788  0.00  0.00    +0.000 OA
ENDBRANCH  15  16
ENDBRANCH   2  15
TORSDOF 4
ENDMDL
MODEL 7
REMARK VINA RESULT:      -7.6      2.431      3.808
REMARK  Name = 
REMARK  6 active torsions:
REMARK  status: ('A' for Active; 'I' for Inactive)
REMARK    1  A    between atoms: C_1  and  C_2
REMARK    2  A    between atoms: C_5  and  C_6
REMARK    3  A    between atoms: C_6  and  C_7
REMARK    4  A    between atoms: C_6  and  N_8
REMARK    5  A    between atoms: C_9  and  C_11
REMARK    6  A    between atoms: C_11  and  N_12
REMARK                            x       y       z     vdW  Elec       q    Type
REMARK                         _______ _______ _______ _____ _____    ______ ____
ROOT
ATOM      1  N   UNL     1       5.196   6.267  17.778  0.00  0.00    +0.000 N 
ATOM      2  C   UNL     1       6.157   5.631  18.533  0.00  0.00    +0.000 C 
ATOM      3  O   UNL     1       5.974   5.311  19.707  0.00  0.00    +0.000 OA
ATOM      4  H   UNL     1       5.350   6.320  16.776  0.00  0.00    +0.000 HD
ENDROOT
BRANCH   1   5
ATOM      5  C   UNL     1       3.919   6.690  18.330  0.00  0.00    +0.000 C 
ATOM      6  C   UNL     1       3.351   7.830  17.483  0.00  0.00    +0.000 C 
BRANCH   5  11
ATOM      7  C   UNL     1       0.610   1.912  19.074  0.00  0.00    +0.000 C 
ATOM      8  C   UNL     1       1.408   3.173  18.898  0.00  0.00    +0.000 A 
ATOM      9  C   UNL     1       1.652   3.663  17.608  0.00  0.00    +0.000 A 
ATOM     10  C   UNL     1       2.443   4.801  17.407  0.00  0.00    +0.000 A 
ATOM     11  C   UNL     1       3.003   5.488  18.491  0.00  0.00    +0.000 A 
ATOM     12  C   UNL     1       2.739   5.006  19.786  0.00  0.00    +0.000 A 
ATOM     13  C   UNL     1       1.952   3.867  19.988  0.00  0.00    +0.000 A 
ATOM     14 CL   UNL     1       1.692   3.340  21.613  0.00  0.00    +0.000 Cl
ENDBRANCH   5  11
ENDBRANCH   1   5
BRANCH   2  15
ATOM     15  C   UNL     1       7.408   5.194  17.774  0.00  0.00    +0.000 C 
BRANCH  15  16
ATOM     16  N   UNL     1       7.132   4.797  16.412  0.00  0.00    +0.000 N 
ATOM     17  N   UNL     1       7.809   5.305  15.317  0.00  0.00    +0.000 NA
ATOM     18  C   UNL     1       7.169   4.801  14.306  0.00  0.00    +0.000 A 
ATOM     19  C   UNL     1       7.437   5.019  12.869  0.00  0.00    +0.000 A 
ATOM     20  C   UNL     1       6.646   4.393  11.982  0.00  0.00    +0.000 A 
ATOM     21  C   UNL     1       5.561   3.528  12.413  0.00  0.00    +0.000 A 
ATOM     22  C   UNL     1       5.328   3.350  13.723  0.00  0.00    +0.000 A 
ATOM     23  N   UNL     1       6.132   3.986  14.630  0.00  0.00    +0.000 N 
ATOM     24  C   UNL     1       6.073   3.970  16.003  0.00  0.00    +0.000 A 
ATOM     25  O   UNL     1       5.272   3.387  16.717  0.00  0.00    +0.000 OA
ENDBRANCH  15  16
ENDBRANCH   2  15
TORSDOF 4
ENDMDL
MODEL 8
REMARK VINA RESULT:      -7.5      3.476      7.572
REMARK  Name = 
REMARK  6 active torsions:
REMARK  status: ('A' for Active; 'I' for Inactive)
REMARK    1  A    between atoms: C_1  and  C_2
REMARK    2  A    between atoms: C_5  and  C_6
REMARK    3  A    between atoms: C_6  and  C_7
REMARK    4  A    between atoms: C_6  and  N_8
REMARK    5  A    between atoms: C_9  and  C_11
REMARK    6  A    between atoms: C_11  and  N_12
REMARK                            x       y       z     vdW  Elec       q    Type
REMARK                         _______ _______ _______ _____ _____    ______ ____
ROOT
ATOM      1  N   UNL     1       5.067   6.139  18.025  0.00  0.00    +0.000 N 
ATOM      2  C   UNL     1       4.202   6.941  17.315  0.00  0.00    +0.000 C 
ATOM      3  O   UNL     1       4.473   7.384  16.198  0.00  0.00    +0.000 OA
ATOM      4  H   UNL     1       4.696   5.661  18.841  0.00  0.00    +0.000 HD
ENDROOT
BRANCH   1   5
ATOM      5  C   UNL     1       6.405   5.817  17.554  0.00  0.00    +0.000 C 
ATOM      6  C   UNL     1       7.173   5.088  18.657  0.00  0.00    +0.000 C 
BRANCH   5  11
ATOM      7  C   UNL     1       5.997   3.212  12.321  0.00  0.00    +0.000 C 
ATOM      8  C   UNL     1       6.154   3.846  13.675  0.00  0.00    +0.000 A 
ATOM      9  C   UNL     1       5.355   3.408  14.740  0.00  0.00    +0.000 A 
ATOM     10  C   UNL     1       5.434   4.019  15.998  0.00  0.00    +0.000 A 
ATOM     11  C   UNL     1       6.321   5.077  16.230  0.00  0.00    +0.000 A 
ATOM     12  C   UNL     1       7.136   5.500  15.164  0.00  0.00    +0.000 A 
ATOM     13  C   UNL     1       7.056   4.893  13.905  0.00  0.00    +0.000 A 
ATOM     14 CL   UNL     1       8.086   5.488  12.652  0.00  0.00    +0.000 Cl
ENDBRANCH   5  11
ENDBRANCH   1   5
BRANCH   2  15
ATOM     15  C   UNL     1       2.813   7.115  17.924  0.00  0.00    +0.000 C 
BRANCH  15  16
ATOM     16  N   UNL     1       2.398   5.979  18.716  0.00  0.00    +0.000 N 
ATOM     17  N   UNL     1       2.717   5.823  20.054  0.00  0.00    +0.000 NA
ATOM     18  C   UNL     1       2.281   4.632  20.331  0.00  0.00    +0.000 A 
ATOM     19  C   UNL     1       2.369   3.918  21.622  0.00  0.00    +0.000 A 
ATOM     20  C   UNL     1       1.846   2.682  21.691  0.00  0.00    +0.000 A 
ATOM     21  C   UNL     1       1.215   2.061  20.539  0.00  0.00    +0.000 A 
ATOM     22  C   UNL     1       1.153   2.723  19.373  0.00  0.00    +0.000 A 
ATOM     23  N   UNL     1       1.684   3.984  19.299  0.00  0.00    +0.000 N 
ATOM     24  C   UNL     1       1.754   4.833  18.221  0.00  0.00    +0.000 A 
ATOM     25  O   UNL     1       1.362   4.640  17.080  0.00  0.00    +0.000 OA
ENDBRANCH  15  16
ENDBRANCH   2  15
TORSDOF 4
ENDMDL
MODEL 9
REMARK VINA RESULT:      -7.5      1.113      1.520
REMARK  Name = 
REMARK  6 active torsions:
REMARK  status: ('A' for Active; 'I' for Inactive)
REMARK    1  A    between atoms: C_1  and  C_2
REMARK    2  A    between atoms: C_5  and  C_6
REMARK    3  A    between atoms: C_6  and  C_7
REMARK    4  A    between atoms: C_6  and  N_8
REMARK    5  A    between atoms: C_9  and  C_11
REMARK    6  A    between atoms: C_11  and  N_12
REMARK                            x       y       z     vdW  Elec       q    Type
REMARK                         _______ _______ _______ _____ _____    ______ ____
ROOT
ATOM      1  N   UNL     1       3.857   4.903  19.411  0.00  0.00    +0.000 N 
ATOM      2  C   UNL     1       4.262   4.409  18.191  0.00  0.00    +0.000 C 
ATOM      3  O   UNL     1       3.467   4.008  17.341  0.00  0.00    +0.000 OA
ATOM      4  H   UNL     1       4.552   5.388  19.971  0.00  0.00    +0.000 HD
ENDROOT
BRANCH   1   5
ATOM      5  C   UNL     1       2.464   4.914  19.830  0.00  0.00    +0.000 C 
ATOM      6  C   UNL     1       2.303   4.057  21.087  0.00  0.00    +0.000 C 
BRANCH   5  11
ATOM      7  C   UNL     1       0.859  10.529  20.301  0.00  0.00    +0.000 C 
ATOM      8  C   UNL     1       1.218   9.077  20.147  0.00  0.00    +0.000 A 
ATOM      9  C   UNL     1       0.995   8.193  21.211  0.00  0.00    +0.000 A 
ATOM     10  C   UNL     1       1.373   6.848  21.121  0.00  0.00    +0.000 A 
ATOM     11  C   UNL     1       1.976   6.347  19.961  0.00  0.00    +0.000 A 
ATOM     12  C   UNL     1       2.180   7.233  18.887  0.00  0.00    +0.000 A 
ATOM     13  C   UNL     1       1.805   8.578  18.977  0.00  0.00    +0.000 A 
ATOM     14 CL   UNL     1       2.107   9.595  17.614  0.00  0.00    +0.000 Cl
ENDBRANCH   5  11
ENDBRANCH   1   5
BRANCH   2  15
ATOM     15  C   UNL     1       5.752   4.542  17.888  0.00  0.00    +0.000 C 
BRANCH  15  16
ATOM     16  N   UNL     1       6.039   4.575  16.472  0.00  0.00    +0.000 N 
ATOM     17  N   UNL     1       5.520   3.667  15.566  0.00  0.00    +0.000 NA
ATOM     18  C   UNL     1       6.127   3.965  14.457  0.00  0.00    +0.000 A 
ATOM     19  C   UNL     1       5.983   3.303  13.144  0.00  0.00    +0.000 A 
ATOM     20  C   UNL     1       6.712   3.778  12.119  0.00  0.00    +0.000 A 
ATOM     21  C   UNL     1       7.614   4.904  12.290  0.00  0.00    +0.000 A 
ATOM     22  C   UNL     1       7.737   5.486  13.494  0.00  0.00    +0.000 A 
ATOM     23  N   UNL     1       6.995   5.005  14.540  0.00  0.00    +0.000 N 
ATOM     24  C   UNL     1       6.971   5.422  15.849  0.00  0.00    +0.000 A 
ATOM     25  O   UNL     1       7.621   6.315  16.370  0.00  0.00    +0.000 OA
ENDBRANCH  15  16
ENDBRANCH   2  15
TORSDOF 4
ENDMDL
