MODEL 1
REMARK VINA RESULT:      -8.1      0.000      0.000
REMARK  Name = 
REMARK  10 active torsions:
REMARK  status: ('A' for Active; 'I' for Inactive)
REMARK    1  A    between atoms: C_1  and  C_2
REMARK    2  A    between atoms: C_3  and  C_4
REMARK    3  A    between atoms: N_6  and  N_7
REMARK    4  A    between atoms: N_7  and  C_17
REMARK    5  A    between atoms: C_8  and  C_10
REMARK    6  A    between atoms: C_17  and  C_18
REMARK    7  A    between atoms: C_17  and  C_19
REMARK    8  A    between atoms: C_17  and  C_20
REMARK    9  A    between atoms: C_26  and  C_27
REMARK   10  A    between atoms: C_26  and  C_28
REMARK                            x       y       z     vdW  Elec       q    Type
REMARK                         _______ _______ _______ _____ _____    ______ ____
ROOT
ATOM      1  C   UNL     1       1.944   7.462  19.348  0.00  0.00    +0.000 C 
ATOM      2  O   UNL     1       1.469   7.326  18.224  0.00  0.00    +0.000 OA
ATOM      3  N   UNL     1       2.997   6.658  19.793  0.00  0.00    +0.000 N 
ATOM      4  H   UNL     1       3.449   6.804  20.685  0.00  0.00    +0.000 HD
ENDROOT
BRANCH   1   7
ATOM      5  C   UNL     1       1.192  10.291  18.353  0.00  0.00    +0.000 C 
ATOM      6  C   UNL     1       1.042   9.827  19.776  0.00  0.00    +0.000 A 
ATOM      7  C   UNL     1       1.398   8.543  20.278  0.00  0.00    +0.000 A 
ATOM      8  C   UNL     1       1.191   8.297  21.662  0.00  0.00    +0.000 A 
ATOM      9  C   UNL     1       0.624   9.268  22.521  0.00  0.00    +0.000 A 
ATOM     10  C   UNL     1       0.267  10.493  21.993  0.00  0.00    +0.000 A 
ATOM     11  C   UNL     1       0.480  10.764  20.664  0.00  0.00    +0.000 A 
ATOM     12  C   UNL     1       0.072  12.168  20.373  0.00  0.00    +0.000 C 
ATOM     13  C   UNL     1      -0.609  12.553  21.702  0.00  0.00    +0.000 C 
ATOM     14  C   UNL     1      -0.074  13.898  22.210  0.00  0.00    +0.000 C 
ATOM     15  C   UNL     1      -2.131  12.661  21.520  0.00  0.00    +0.000 C 
ATOM     16  O   UNL     1      -0.311  11.522  22.696  0.00  0.00    +0.000 OA
ENDBRANCH   1   7
BRANCH   3  17
ATOM     17  N   UNL     1       3.674   5.757  18.849  0.00  0.00    +0.000 N 
ATOM     18  C   UNL     1       4.488   6.374  17.834  0.00  0.00    +0.000 C 
ATOM     19  O   UNL     1       4.475   7.604  17.722  0.00  0.00    +0.000 OA
BRANCH  18  20
ATOM     20  C   UNL     1       5.352   5.610  16.804  0.00  0.00    +0.000 A 
ATOM     21  C   UNL     1       4.862   5.148  15.564  0.00  0.00    +0.000 A 
ATOM     22  C   UNL     1       5.626   4.509  14.582  0.00  0.00    +0.000 A 
ATOM     23  C   UNL     1       6.970   4.322  14.786  0.00  0.00    +0.000 A 
ATOM     24  C   UNL     1       7.521   4.758  15.988  0.00  0.00    +0.000 A 
ATOM     25  C   UNL     1       6.732   5.384  16.990  0.00  0.00    +0.000 A 
ATOM     26 CL   UNL     1       7.610   5.781  18.430  0.00  0.00    +0.000 Cl
ENDBRANCH  18  20
BRANCH  17  27
ATOM     27  C   UNL     1       3.225   4.335  18.980  0.00  0.00    +0.000 C 
ATOM     28  C   UNL     1       2.363   4.004  20.230  0.00  0.00    +0.000 C 
ATOM     29  C   UNL     1       2.250   4.017  17.804  0.00  0.00    +0.000 C 
ATOM     30  C   UNL     1       4.462   3.415  19.176  0.00  0.00    +0.000 C 
ENDBRANCH  17  27
ENDBRANCH   3  17
TORSDOF 4
ENDMDL
MODEL 2
REMARK VINA RESULT:      -8.1      3.841     10.051
REMARK  Name = 
REMARK  10 active torsions:
REMARK  status: ('A' for Active; 'I' for Inactive)
REMARK    1  A    between atoms: C_1  and  C_2
REMARK    2  A    between atoms: C_3  and  C_4
REMARK    3  A    between atoms: N_6  and  N_7
REMARK    4  A    between atoms: N_7  and  C_17
REMARK    5  A    between atoms: C_8  and  C_10
REMARK    6  A    between atoms: C_17  and  C_18
REMARK    7  A    between atoms: C_17  and  C_19
REMARK    8  A    between atoms: C_17  and  C_20
REMARK    9  A    between atoms: C_26  and  C_27
REMARK   10  A    between atoms: C_26  and  C_28
REMARK                            x       y       z     vdW  Elec       q    Type
REMARK                         _______ _______ _______ _____ _____    ______ ____
ROOT
ATOM      1  C   UNL     1       0.766  10.863  20.488  0.00  0.00    +0.000 C 
ATOM      2  O   UNL     1       1.494  11.780  20.857  0.00  0.00    +0.000 OA
ATOM      3  N   UNL     1      -0.613  10.894  20.718  0.00  0.00    +0.000 N 
ATOM      4  H   UNL     1      -1.236  10.184  20.357  0.00  0.00    +0.000 HD
ENDROOT
BRANCH   1   7
ATOM      5  C   UNL     1       1.198   8.110  21.826  0.00  0.00    +0.000 C 
ATOM      6  C   UNL     1       1.525   8.413  20.390  0.00  0.00    +0.000 A 
ATOM      7  C   UNL     1       1.363   9.671  19.743  0.00  0.00    +0.000 A 
ATOM      8  C   UNL     1       1.742   9.763  18.376  0.00  0.00    +0.000 A 
ATOM      9  C   UNL     1       2.234   8.648  17.658  0.00  0.00    +0.000 A 
ATOM     10  C   UNL     1       2.353   7.437  18.311  0.00  0.00    +0.000 A 
ATOM     11  C   UNL     1       2.017   7.328  19.637  0.00  0.00    +0.000 A 
ATOM     12  C   UNL     1       2.302   5.944  20.110  0.00  0.00    +0.000 C 
ATOM     13  C   UNL     1       2.636   5.246  18.775  0.00  0.00    +0.000 C 
ATOM     14  C   UNL     1       3.947   4.457  18.894  0.00  0.00    +0.000 C 
ATOM     15  C   UNL     1       1.510   4.282  18.372  0.00  0.00    +0.000 C 
ATOM     16  O   UNL     1       2.793   6.268  17.740  0.00  0.00    +0.000 OA
ENDBRANCH   1   7
BRANCH   3  17
ATOM     17  N   UNL     1      -1.236  12.116  21.243  0.00  0.00    +0.000 N 
ATOM     18  C   UNL     1      -1.266  12.265  22.675  0.00  0.00    +0.000 C 
ATOM     19  O   UNL     1      -0.897  11.322  23.383  0.00  0.00    +0.000 OA
BRANCH  18  20
ATOM     20  C   UNL     1      -1.793  13.510  23.427  0.00  0.00    +0.000 A 
ATOM     21  C   UNL     1      -1.107  14.742  23.472  0.00  0.00    +0.000 A 
ATOM     22  C   UNL     1      -1.580  15.906  24.087  0.00  0.00    +0.000 A 
ATOM     23  C   UNL     1      -2.817  15.903  24.680  0.00  0.00    +0.000 A 
ATOM     24  C   UNL     1      -3.551  14.720  24.668  0.00  0.00    +0.000 A 
ATOM     25  C   UNL     1      -3.052  13.535  24.063  0.00  0.00    +0.000 A 
ATOM     26 CL   UNL     1      -4.100  12.166  24.227  0.00  0.00    +0.000 Cl
ENDBRANCH  18  20
BRANCH  17  27
ATOM     27  C   UNL     1      -1.932  12.914  20.185  0.00  0.00    +0.000 C 
ATOM     28  C   UNL     1      -1.959  12.286  18.763  0.00  0.00    +0.000 C 
ATOM     29  C   UNL     1      -3.448  12.994  20.547  0.00  0.00    +0.000 C 
ATOM     30  C   UNL     1      -1.164  14.244  19.947  0.00  0.00    +0.000 C 
ENDBRANCH  17  27
ENDBRANCH   3  17
TORSDOF 4
ENDMDL
MODEL 3
REMARK VINA RESULT:      -8.0      3.471      9.810
REMARK  Name = 
REMARK  10 active torsions:
REMARK  status: ('A' for Active; 'I' for Inactive)
REMARK    1  A    between atoms: C_1  and  C_2
REMARK    2  A    between atoms: C_3  and  C_4
REMARK    3  A    between atoms: N_6  and  N_7
REMARK    4  A    between atoms: N_7  and  C_17
REMARK    5  A    between atoms: C_8  and  C_10
REMARK    6  A    between atoms: C_17  and  C_18
REMARK    7  A    between atoms: C_17  and  C_19
REMARK    8  A    between atoms: C_17  and  C_20
REMARK    9  A    between atoms: C_26  and  C_27
REMARK   10  A    between atoms: C_26  and  C_28
REMARK                            x       y       z     vdW  Elec       q    Type
REMARK                         _______ _______ _______ _____ _____    ______ ____
ROOT
ATOM      1  C   UNL     1       0.688  10.471  20.276  0.00  0.00    +0.000 C 
ATOM      2  O   UNL     1       1.311  11.469  20.626  0.00  0.00    +0.000 OA
ATOM      3  N   UNL     1      -0.684  10.350  20.517  0.00  0.00    +0.000 N 
ATOM      4  H   UNL     1      -1.226   9.571  20.172  0.00  0.00    +0.000 HD
ENDROOT
BRANCH   1   7
ATOM      5  C   UNL     1       1.185   7.701  21.557  0.00  0.00    +0.000 C 
ATOM      6  C   UNL     1       1.599   8.073  20.159  0.00  0.00    +0.000 A 
ATOM      7  C   UNL     1       1.409   9.343  19.542  0.00  0.00    +0.000 A 
ATOM      8  C   UNL     1       1.881   9.504  18.211  0.00  0.00    +0.000 A 
ATOM      9  C   UNL     1       2.492   8.446  17.498  0.00  0.00    +0.000 A 
ATOM     10  C   UNL     1       2.635   7.222  18.120  0.00  0.00    +0.000 A 
ATOM     11  C   UNL     1       2.210   7.047  19.413  0.00  0.00    +0.000 A 
ATOM     12  C   UNL     1       2.542   5.665  19.863  0.00  0.00    +0.000 C 
ATOM     13  C   UNL     1       3.015   5.036  18.536  0.00  0.00    +0.000 C 
ATOM     14  C   UNL     1       4.358   4.320  18.729  0.00  0.00    +0.000 C 
ATOM     15  C   UNL     1       1.982   4.022  18.019  0.00  0.00    +0.000 C 
ATOM     16  O   UNL     1       3.186   6.101  17.548  0.00  0.00    +0.000 OA
ENDBRANCH   1   7
BRANCH   3  17
ATOM     17  N   UNL     1      -1.436  11.503  21.032  0.00  0.00    +0.000 N 
ATOM     18  C   UNL     1      -1.539  11.623  22.464  0.00  0.00    +0.000 C 
ATOM     19  O   UNL     1      -1.117  10.705  23.174  0.00  0.00    +0.000 OA
BRANCH  18  20
ATOM     20  C   UNL     1      -2.207  12.802  23.208  0.00  0.00    +0.000 A 
ATOM     21  C   UNL     1      -3.468  12.716  23.834  0.00  0.00    +0.000 A 
ATOM     22  C   UNL     1      -4.076  13.740  24.569  0.00  0.00    +0.000 A 
ATOM     23  C   UNL     1      -3.415  14.930  24.746  0.00  0.00    +0.000 A 
ATOM     24  C   UNL     1      -2.162  15.081  24.159  0.00  0.00    +0.000 A 
ATOM     25  C   UNL     1      -1.564  14.044  23.393  0.00  0.00    +0.000 A 
ATOM     26 CL   UNL     1      -0.036  14.475  22.698  0.00  0.00    +0.000 Cl
ENDBRANCH  18  20
BRANCH  17  27
ATOM     27  C   UNL     1      -2.156  12.253  19.956  0.00  0.00    +0.000 C 
ATOM     28  C   UNL     1      -3.602  12.714  20.294  0.00  0.00    +0.000 C 
ATOM     29  C   UNL     1      -1.416  13.607  19.721  0.00  0.00    +0.000 C 
ATOM     30  C   UNL     1      -2.382  11.320  18.733  0.00  0.00    +0.000 C 
ENDBRANCH  17  27
ENDBRANCH   3  17
TORSDOF 4
ENDMDL
MODEL 4
REMARK VINA RESULT:      -7.8      3.928     10.182
REMARK  Name = 
REMARK  10 active torsions:
REMARK  status: ('A' for Active; 'I' for Inactive)
REMARK    1  A    between atoms: C_1  and  C_2
REMARK    2  A    between atoms: C_3  and  C_4
REMARK    3  A    between atoms: N_6  and  N_7
REMARK    4  A    between atoms: N_7  and  C_17
REMARK    5  A    between atoms: C_8  and  C_10
REMARK    6  A    between atoms: C_17  and  C_18
REMARK    7  A    between atoms: C_17  and  C_19
REMARK    8  A    between atoms: C_17  and  C_20
REMARK    9  A    between atoms: C_26  and  C_27
REMARK   10  A    between atoms: C_26  and  C_28
REMARK                            x       y       z     vdW  Elec       q    Type
REMARK                         _______ _______ _______ _____ _____    ______ ____
ROOT
ATOM      1  C   UNL     1       0.029  11.228  20.002  0.00  0.00    +0.000 C 
ATOM      2  O   UNL     1      -1.181  11.229  19.791  0.00  0.00    +0.000 OA
ATOM      3  N   UNL     1       0.639  12.252  20.733  0.00  0.00    +0.000 N 
ATOM      4  H   UNL     1       1.619  12.230  20.979  0.00  0.00    +0.000 HD
ENDROOT
BRANCH   1   7
ATOM      5  C   UNL     1       0.527   8.646  21.628  0.00  0.00    +0.000 C 
ATOM      6  C   UNL     1       1.078   8.898  20.250  0.00  0.00    +0.000 A 
ATOM      7  C   UNL     1       0.891  10.081  19.480  0.00  0.00    +0.000 A 
ATOM      8  C   UNL     1       1.504  10.135  18.198  0.00  0.00    +0.000 A 
ATOM      9  C   UNL     1       2.250   9.052  17.677  0.00  0.00    +0.000 A 
ATOM     10  C   UNL     1       2.388   7.912  18.443  0.00  0.00    +0.000 A 
ATOM     11  C   UNL     1       1.826   7.843  19.693  0.00  0.00    +0.000 A 
ATOM     12  C   UNL     1       2.180   6.542  20.326  0.00  0.00    +0.000 C 
ATOM     13  C   UNL     1       2.837   5.811  19.137  0.00  0.00    +0.000 C 
ATOM     14  C   UNL     1       4.187   5.211  19.553  0.00  0.00    +0.000 C 
ATOM     15  C   UNL     1       1.928   4.682  18.626  0.00  0.00    +0.000 C 
ATOM     16  O   UNL     1       3.062   6.777  18.061  0.00  0.00    +0.000 OA
ENDBRANCH   1   7
BRANCH   3  17
ATOM     17  N   UNL     1      -0.193  13.251  21.419  0.00  0.00    +0.000 N 
ATOM     18  C   UNL     1      -0.772  12.858  22.678  0.00  0.00    +0.000 C 
ATOM     19  O   UNL     1      -0.658  11.686  23.050  0.00  0.00    +0.000 OA
BRANCH  18  20
ATOM     20  C   UNL     1      -1.601  13.783  23.599  0.00  0.00    +0.000 A 
ATOM     21  C   UNL     1      -1.040  14.826  24.367  0.00  0.00    +0.000 A 
ATOM     22  C   UNL     1      -1.763  15.722  25.161  0.00  0.00    +0.000 A 
ATOM     23  C   UNL     1      -3.132  15.635  25.205  0.00  0.00    +0.000 A 
ATOM     24  C   UNL     1      -3.752  14.630  24.466  0.00  0.00    +0.000 A 
ATOM     25  C   UNL     1      -3.008  13.709  23.681  0.00  0.00    +0.000 A 
ATOM     26 CL   UNL     1      -3.977  12.502  22.904  0.00  0.00    +0.000 Cl
ENDBRANCH  18  20
BRANCH  17  27
ATOM     27  C   UNL     1      -0.469  14.454  20.574  0.00  0.00    +0.000 C 
ATOM     28  C   UNL     1       0.062  14.401  19.114  0.00  0.00    +0.000 C 
ATOM     29  C   UNL     1      -2.012  14.566  20.367  0.00  0.00    +0.000 C 
ATOM     30  C   UNL     1       0.283  15.683  21.157  0.00  0.00    +0.000 C 
ENDBRANCH  17  27
ENDBRANCH   3  17
TORSDOF 4
ENDMDL
MODEL 5
REMARK VINA RESULT:      -7.7      3.572      9.540
REMARK  Name = 
REMARK  10 active torsions:
REMARK  status: ('A' for Active; 'I' for Inactive)
REMARK    1  A    between atoms: C_1  and  C_2
REMARK    2  A    between atoms: C_3  and  C_4
REMARK    3  A    between atoms: N_6  and  N_7
REMARK    4  A    between atoms: N_7  and  C_17
REMARK    5  A    between atoms: C_8  and  C_10
REMARK    6  A    between atoms: C_17  and  C_18
REMARK    7  A    between atoms: C_17  and  C_19
REMARK    8  A    between atoms: C_17  and  C_20
REMARK    9  A    between atoms: C_26  and  C_27
REMARK   10  A    between atoms: C_26  and  C_28
REMARK                            x       y       z     vdW  Elec       q    Type
REMARK                         _______ _______ _______ _____ _____    ______ ____
ROOT
ATOM      1  C   UNL     1       1.009   9.418  20.796  0.00  0.00    +0.000 C 
ATOM      2  O   UNL     1       1.849  10.273  21.059  0.00  0.00    +0.000 OA
ATOM      3  N   UNL     1      -0.358   9.706  20.842  0.00  0.00    +0.000 N 
ATOM      4  H   UNL     1      -1.061   9.038  20.557  0.00  0.00    +0.000 HD
ENDROOT
BRANCH   1   7
ATOM      5  C   UNL     1       2.430   8.843  18.111  0.00  0.00    +0.000 C 
ATOM      6  C   UNL     1       2.125   7.797  19.148  0.00  0.00    +0.000 A 
ATOM      7  C   UNL     1       1.453   8.017  20.384  0.00  0.00    +0.000 A 
ATOM      8  C   UNL     1       1.248   6.893  21.230  0.00  0.00    +0.000 A 
ATOM      9  C   UNL     1       1.714   5.602  20.889  0.00  0.00    +0.000 A 
ATOM     10  C   UNL     1       2.384   5.432  19.694  0.00  0.00    +0.000 A 
ATOM     11  C   UNL     1       2.574   6.496  18.847  0.00  0.00    +0.000 A 
ATOM     12  C   UNL     1       3.258   6.029  17.609  0.00  0.00    +0.000 C 
ATOM     13  C   UNL     1       3.617   4.582  18.004  0.00  0.00    +0.000 C 
ATOM     14  C   UNL     1       3.185   3.601  16.907  0.00  0.00    +0.000 C 
ATOM     15  C   UNL     1       5.131   4.441  18.228  0.00  0.00    +0.000 C 
ATOM     16  O   UNL     1       2.911   4.247  19.241  0.00  0.00    +0.000 OA
ENDBRANCH   1   7
BRANCH   3  17
ATOM     17  N   UNL     1      -0.804  11.094  21.031  0.00  0.00    +0.000 N 
ATOM     18  C   UNL     1      -0.900  11.564  22.389  0.00  0.00    +0.000 C 
ATOM     19  O   UNL     1      -0.737  10.762  23.314  0.00  0.00    +0.000 OA
BRANCH  18  20
ATOM     20  C   UNL     1      -1.261  13.010  22.802  0.00  0.00    +0.000 A 
ATOM     21  C   UNL     1      -0.448  14.128  22.520  0.00  0.00    +0.000 A 
ATOM     22  C   UNL     1      -0.770  15.456  22.822  0.00  0.00    +0.000 A 
ATOM     23  C   UNL     1      -1.975  15.743  23.412  0.00  0.00    +0.000 A 
ATOM     24  C   UNL     1      -2.829  14.686  23.714  0.00  0.00    +0.000 A 
ATOM     25  C   UNL     1      -2.483  13.338  23.427  0.00  0.00    +0.000 A 
ATOM     26 CL   UNL     1      -3.662  12.182  23.951  0.00  0.00    +0.000 Cl
ENDBRANCH  18  20
BRANCH  17  27
ATOM     27  C   UNL     1      -1.291  11.725  19.764  0.00  0.00    +0.000 C 
ATOM     28  C   UNL     1      -1.514  10.762  18.564  0.00  0.00    +0.000 C 
ATOM     29  C   UNL     1      -2.724  12.289  20.015  0.00  0.00    +0.000 C 
ATOM     30  C   UNL     1      -0.206  12.695  19.217  0.00  0.00    +0.000 C 
ENDBRANCH  17  27
ENDBRANCH   3  17
TORSDOF 4
ENDMDL
MODEL 6
REMARK VINA RESULT:      -7.7      3.219      9.428
REMARK  Name = 
REMARK  10 active torsions:
REMARK  status: ('A' for Active; 'I' for Inactive)
REMARK    1  A    between atoms: C_1  and  C_2
REMARK    2  A    between atoms: C_3  and  C_4
REMARK    3  A    between atoms: N_6  and  N_7
REMARK    4  A    between atoms: N_7  and  C_17
REMARK    5  A    between atoms: C_8  and  C_10
REMARK    6  A    between atoms: C_17  and  C_18
REMARK    7  A    between atoms: C_17  and  C_19
REMARK    8  A    between atoms: C_17  and  C_20
REMARK    9  A    between atoms: C_26  and  C_27
REMARK   10  A    between atoms: C_26  and  C_28
REMARK                            x       y       z     vdW  Elec       q    Type
REMARK                         _______ _______ _______ _____ _____    ______ ____
ROOT
ATOM      1  C   UNL     1       0.820   9.687  20.351  0.00  0.00    +0.000 C 
ATOM      2  O   UNL     1       1.555  10.650  20.550  0.00  0.00    +0.000 OA
ATOM      3  N   UNL     1      -0.571   9.825  20.341  0.00  0.00    +0.000 N 
ATOM      4  H   UNL     1      -1.188   9.060  20.105  0.00  0.00    +0.000 HD
ENDROOT
BRANCH   1   7
ATOM      5  C   UNL     1       2.337   9.013  17.743  0.00  0.00    +0.000 C 
ATOM      6  C   UNL     1       2.137   8.047  18.879  0.00  0.00    +0.000 A 
ATOM      7  C   UNL     1       1.426   8.311  20.084  0.00  0.00    +0.000 A 
ATOM      8  C   UNL     1       1.336   7.261  21.037  0.00  0.00    +0.000 A 
ATOM      9  C   UNL     1       1.949   6.003  20.830  0.00  0.00    +0.000 A 
ATOM     10  C   UNL     1       2.652   5.793  19.660  0.00  0.00    +0.000 A 
ATOM     11  C   UNL     1       2.734   6.782  18.712  0.00  0.00    +0.000 A 
ATOM     12  C   UNL     1       3.485   6.276  17.529  0.00  0.00    +0.000 C 
ATOM     13  C   UNL     1       3.998   4.925  18.069  0.00  0.00    +0.000 C 
ATOM     14  C   UNL     1       3.696   3.797  17.074  0.00  0.00    +0.000 C 
ATOM     15  C   UNL     1       5.515   4.980  18.312  0.00  0.00    +0.000 C 
ATOM     16  O   UNL     1       3.315   4.636  19.331  0.00  0.00    +0.000 OA
ENDBRANCH   1   7
BRANCH   3  17
ATOM     17  N   UNL     1      -1.169  11.167  20.388  0.00  0.00    +0.000 N 
ATOM     18  C   UNL     1      -1.443  11.709  21.693  0.00  0.00    +0.000 C 
ATOM     19  O   UNL     1      -1.292  10.989  22.685  0.00  0.00    +0.000 OA
BRANCH  18  20
ATOM     20  C   UNL     1      -1.985  13.132  21.966  0.00  0.00    +0.000 A 
ATOM     21  C   UNL     1      -3.341  13.411  22.239  0.00  0.00    +0.000 A 
ATOM     22  C   UNL     1      -3.858  14.673  22.552  0.00  0.00    +0.000 A 
ATOM     23  C   UNL     1      -3.009  15.748  22.641  0.00  0.00    +0.000 A 
ATOM     24  C   UNL     1      -1.656  15.542  22.388  0.00  0.00    +0.000 A 
ATOM     25  C   UNL     1      -1.144  14.262  22.047  0.00  0.00    +0.000 A 
ATOM     26 CL   UNL     1       0.555  14.251  21.706  0.00  0.00    +0.000 Cl
ENDBRANCH  18  20
BRANCH  17  27
ATOM     27  C   UNL     1      -1.590  11.662  19.039  0.00  0.00    +0.000 C 
ATOM     28  C   UNL     1      -1.446  10.653  17.866  0.00  0.00    +0.000 C 
ATOM     29  C   UNL     1      -3.128  11.925  19.071  0.00  0.00    +0.000 C 
ATOM     30  C   UNL     1      -0.657  12.824  18.597  0.00  0.00    +0.000 C 
ENDBRANCH  17  27
ENDBRANCH   3  17
TORSDOF 4
ENDMDL
MODEL 7
REMARK VINA RESULT:      -7.6      3.689      9.582
REMARK  Name = 
REMARK  10 active torsions:
REMARK  status: ('A' for Active; 'I' for Inactive)
REMARK    1  A    between atoms: C_1  and  C_2
REMARK    2  A    between atoms: C_3  and  C_4
REMARK    3  A    between atoms: N_6  and  N_7
REMARK    4  A    between atoms: N_7  and  C_17
REMARK    5  A    between atoms: C_8  and  C_10
REMARK    6  A    between atoms: C_17  and  C_18
REMARK    7  A    between atoms: C_17  and  C_19
REMARK    8  A    between atoms: C_17  and  C_20
REMARK    9  A    between atoms: C_26  and  C_27
REMARK   10  A    between atoms: C_26  and  C_28
REMARK                            x       y       z     vdW  Elec       q    Type
REMARK                         _______ _______ _______ _____ _____    ______ ____
ROOT
ATOM      1  C   UNL     1       0.701   9.933  20.095  0.00  0.00    +0.000 C 
ATOM      2  O   UNL     1       1.428  10.921  20.086  0.00  0.00    +0.000 OA
ATOM      3  N   UNL     1      -0.689  10.055  20.190  0.00  0.00    +0.000 N 
ATOM      4  H   UNL     1      -1.306   9.258  20.124  0.00  0.00    +0.000 HD
ENDROOT
BRANCH   1   7
ATOM      5  C   UNL     1       2.331   9.030  17.628  0.00  0.00    +0.000 C 
ATOM      6  C   UNL     1       2.075   8.169  18.834  0.00  0.00    +0.000 A 
ATOM      7  C   UNL     1       1.312   8.538  19.978  0.00  0.00    +0.000 A 
ATOM      8  C   UNL     1       1.174   7.577  21.016  0.00  0.00    +0.000 A 
ATOM      9  C   UNL     1       1.791   6.306  20.948  0.00  0.00    +0.000 A 
ATOM     10  C   UNL     1       2.545   5.992  19.834  0.00  0.00    +0.000 A 
ATOM     11  C   UNL     1       2.673   6.894  18.807  0.00  0.00    +0.000 A 
ATOM     12  C   UNL     1       3.475   6.284  17.709  0.00  0.00    +0.000 C 
ATOM     13  C   UNL     1       3.957   4.987  18.389  0.00  0.00    +0.000 C 
ATOM     14  C   UNL     1       3.695   3.775  17.485  0.00  0.00    +0.000 C 
ATOM     15  C   UNL     1       5.462   5.062  18.694  0.00  0.00    +0.000 C 
ATOM     16  O   UNL     1       3.218   4.811  19.639  0.00  0.00    +0.000 OA
ENDBRANCH   1   7
BRANCH   3  17
ATOM     17  N   UNL     1      -1.311  11.383  20.094  0.00  0.00    +0.000 N 
ATOM     18  C   UNL     1      -1.524  12.089  21.331  0.00  0.00    +0.000 C 
ATOM     19  O   UNL     1      -1.305  11.508  22.398  0.00  0.00    +0.000 OA
BRANCH  18  20
ATOM     20  C   UNL     1      -2.080  13.528  21.445  0.00  0.00    +0.000 A 
ATOM     21  C   UNL     1      -1.339  14.680  21.104  0.00  0.00    +0.000 A 
ATOM     22  C   UNL     1      -1.827  15.990  21.134  0.00  0.00    +0.000 A 
ATOM     23  C   UNL     1      -3.133  16.219  21.489  0.00  0.00    +0.000 A 
ATOM     24  C   UNL     1      -3.922  15.125  21.834  0.00  0.00    +0.000 A 
ATOM     25  C   UNL     1      -3.411  13.799  21.824  0.00  0.00    +0.000 A 
ATOM     26 CL   UNL     1      -4.547  12.604  22.356  0.00  0.00    +0.000 Cl
ENDBRANCH  18  20
BRANCH  17  27
ATOM     27  C   UNL     1      -1.815  11.690  18.718  0.00  0.00    +0.000 C 
ATOM     28  C   UNL     1      -1.713  10.537  17.681  0.00  0.00    +0.000 C 
ATOM     29  C   UNL     1      -3.354  11.933  18.802  0.00  0.00    +0.000 C 
ATOM     30  C   UNL     1      -0.932  12.796  18.076  0.00  0.00    +0.000 C 
ENDBRANCH  17  27
ENDBRANCH   3  17
TORSDOF 4
ENDMDL
MODEL 8
REMARK VINA RESULT:      -7.6      3.508      9.692
REMARK  Name = 
REMARK  10 active torsions:
REMARK  status: ('A' for Active; 'I' for Inactive)
REMARK    1  A    between atoms: C_1  and  C_2
REMARK    2  A    between atoms: C_3  and  C_4
REMARK    3  A    between atoms: N_6  and  N_7
REMARK    4  A    between atoms: N_7  and  C_17
REMARK    5  A    between atoms: C_8  and  C_10
REMARK    6  A    between atoms: C_17  and  C_18
REMARK    7  A    between atoms: C_17  and  C_19
REMARK    8  A    between atoms: C_17  and  C_20
REMARK    9  A    between atoms: C_26  and  C_27
REMARK   10  A    between atoms: C_26  and  C_28
REMARK                            x       y       z     vdW  Elec       q    Type
REMARK                         _______ _______ _______ _____ _____    ______ ____
ROOT
ATOM      1  C   UNL     1       0.157  10.050  19.556  0.00  0.00    +0.000 C 
ATOM      2  O   UNL     1      -1.019   9.699  19.548  0.00  0.00    +0.000 OA
ATOM      3  N   UNL     1       0.535  11.314  20.020  0.00  0.00    +0.000 N 
ATOM      4  H   UNL     1       1.503  11.591  20.103  0.00  0.00    +0.000 HD
ENDROOT
BRANCH   1   7
ATOM      5  C   UNL     1       1.076   7.610  21.218  0.00  0.00    +0.000 C 
ATOM      6  C   UNL     1       1.620   7.962  19.860  0.00  0.00    +0.000 A 
ATOM      7  C   UNL     1       1.241   9.088  19.074  0.00  0.00    +0.000 A 
ATOM      8  C   UNL     1       1.880   9.257  17.816  0.00  0.00    +0.000 A 
ATOM      9  C   UNL     1       2.838   8.336  17.331  0.00  0.00    +0.000 A 
ATOM     10  C   UNL     1       3.161   7.243  18.109  0.00  0.00    +0.000 A 
ATOM     11  C   UNL     1       2.576   7.069  19.339  0.00  0.00    +0.000 A 
ATOM     12  C   UNL     1       3.147   5.858  19.994  0.00  0.00    +0.000 C 
ATOM     13  C   UNL     1       3.975   5.266  18.835  0.00  0.00    +0.000 C 
ATOM     14  C   UNL     1       5.397   4.934  19.305  0.00  0.00    +0.000 C 
ATOM     15  C   UNL     1       3.317   3.985  18.299  0.00  0.00    +0.000 C 
ATOM     16  O   UNL     1       4.053   6.257  17.761  0.00  0.00    +0.000 OA
ENDBRANCH   1   7
BRANCH   3  17
ATOM     17  N   UNL     1      -0.459  12.174  20.678  0.00  0.00    +0.000 N 
ATOM     18  C   UNL     1      -0.671  11.959  22.086  0.00  0.00    +0.000 C 
ATOM     19  O   UNL     1      -0.122  10.998  22.635  0.00  0.00    +0.000 OA
BRANCH  18  20
ATOM     20  C   UNL     1      -1.601  12.810  22.982  0.00  0.00    +0.000 A 
ATOM     21  C   UNL     1      -2.832  12.346  23.491  0.00  0.00    +0.000 A 
ATOM     22  C   UNL     1      -3.669  13.062  24.354  0.00  0.00    +0.000 A 
ATOM     23  C   UNL     1      -3.288  14.306  24.789  0.00  0.00    +0.000 A 
ATOM     24  C   UNL     1      -2.080  14.823  24.328  0.00  0.00    +0.000 A 
ATOM     25  C   UNL     1      -1.248  14.099  23.433  0.00  0.00    +0.000 A 
ATOM     26 CL   UNL     1       0.170  14.962  22.937  0.00  0.00    +0.000 Cl
ENDBRANCH  18  20
BRANCH  17  27
ATOM     27  C   UNL     1      -1.244  13.000  19.708  0.00  0.00    +0.000 C 
ATOM     28  C   UNL     1      -0.962  12.738  18.202  0.00  0.00    +0.000 C 
ATOM     29  C   UNL     1      -2.751  12.614  19.841  0.00  0.00    +0.000 C 
ATOM     30  C   UNL     1      -0.854  14.497  19.865  0.00  0.00    +0.000 C 
ENDBRANCH  17  27
ENDBRANCH   3  17
TORSDOF 4
ENDMDL
MODEL 9
REMARK VINA RESULT:      -7.6      3.519      9.718
REMARK  Name = 
REMARK  10 active torsions:
REMARK  status: ('A' for Active; 'I' for Inactive)
REMARK    1  A    between atoms: C_1  and  C_2
REMARK    2  A    between atoms: C_3  and  C_4
REMARK    3  A    between atoms: N_6  and  N_7
REMARK    4  A    between atoms: N_7  and  C_17
REMARK    5  A    between atoms: C_8  and  C_10
REMARK    6  A    between atoms: C_17  and  C_18
REMARK    7  A    between atoms: C_17  and  C_19
REMARK    8  A    between atoms: C_17  and  C_20
REMARK    9  A    between atoms: C_26  and  C_27
REMARK   10  A    between atoms: C_26  and  C_28
REMARK                            x       y       z     vdW  Elec       q    Type
REMARK                         _______ _______ _______ _____ _____    ______ ____
ROOT
ATOM      1  C   UNL     1       0.417  10.026  20.146  0.00  0.00    +0.000 C 
ATOM      2  O   UNL     1      -0.639  10.235  19.556  0.00  0.00    +0.000 OA
ATOM      3  N   UNL     1       0.986  10.992  20.981  0.00  0.00    +0.000 N 
ATOM      4  H   UNL     1       1.814  10.811  21.531  0.00  0.00    +0.000 HD
ENDROOT
BRANCH   1   7
ATOM      5  C   UNL     1       2.177   9.340  17.698  0.00  0.00    +0.000 C 
ATOM      6  C   UNL     1       1.942   8.411  18.858  0.00  0.00    +0.000 A 
ATOM      7  C   UNL     1       1.122   8.680  19.991  0.00  0.00    +0.000 A 
ATOM      8  C   UNL     1       1.016   7.667  20.982  0.00  0.00    +0.000 A 
ATOM      9  C   UNL     1       1.716   6.442  20.881  0.00  0.00    +0.000 A 
ATOM     10  C   UNL     1       2.522   6.227  19.780  0.00  0.00    +0.000 A 
ATOM     11  C   UNL     1       2.623   7.180  18.797  0.00  0.00    +0.000 A 
ATOM     12  C   UNL     1       3.495   6.672  17.701  0.00  0.00    +0.000 C 
ATOM     13  C   UNL     1       4.041   5.379  18.342  0.00  0.00    +0.000 C 
ATOM     14  C   UNL     1       3.886   4.195  17.379  0.00  0.00    +0.000 C 
ATOM     15  C   UNL     1       5.527   5.537  18.699  0.00  0.00    +0.000 C 
ATOM     16  O   UNL     1       3.277   5.101  19.558  0.00  0.00    +0.000 OA
ENDBRANCH   1   7
BRANCH   3  17
ATOM     17  N   UNL     1       0.228  12.208  21.309  0.00  0.00    +0.000 N 
ATOM     18  C   UNL     1      -0.808  12.078  22.301  0.00  0.00    +0.000 C 
ATOM     19  O   UNL     1      -1.094  10.954  22.724  0.00  0.00    +0.000 OA
BRANCH  18  20
ATOM     20  C   UNL     1      -1.658  13.246  22.853  0.00  0.00    +0.000 A 
ATOM     21  C   UNL     1      -1.196  14.156  23.827  0.00  0.00    +0.000 A 
ATOM     22  C   UNL     1      -1.911  15.260  24.303  0.00  0.00    +0.000 A 
ATOM     23  C   UNL     1      -3.154  15.535  23.789  0.00  0.00    +0.000 A 
ATOM     24  C   UNL     1      -3.669  14.679  22.820  0.00  0.00    +0.000 A 
ATOM     25  C   UNL     1      -2.946  13.546  22.360  0.00  0.00    +0.000 A 
ATOM     26 CL   UNL     1      -3.807  12.583  21.205  0.00  0.00    +0.000 Cl
ENDBRANCH  18  20
BRANCH  17  27
ATOM     27  C   UNL     1       0.529  13.346  20.385  0.00  0.00    +0.000 C 
ATOM     28  C   UNL     1       1.600  13.074  19.292  0.00  0.00    +0.000 C 
ATOM     29  C   UNL     1      -0.748  13.644  19.538  0.00  0.00    +0.000 C 
ATOM     30  C   UNL     1       1.163  14.515  21.190  0.00  0.00    +0.000 C 
ENDBRANCH  17  27
ENDBRANCH   3  17
TORSDOF 4
ENDMDL
