MODEL 1
REMARK VINA RESULT:      -7.4      0.000      0.000
REMARK  Name = 
REMARK  5 active torsions:
REMARK  status: ('A' for Active; 'I' for Inactive)
REMARK    1  A    between atoms: C_1  and  C_2
REMARK    2  A    between atoms: C_4  and  N_5
REMARK    3  A    between atoms: C_6  and  C_8
REMARK    4  A    between atoms: C_12  and  S_13
REMARK    5  A    between atoms: S_13  and  C_14
REMARK                            x       y       z     vdW  Elec       q    Type
REMARK                         _______ _______ _______ _____ _____    ______ ____
ROOT
ATOM      1  N   UNL     1       2.197   7.491  19.205  0.00  0.00    +0.000 N 
ATOM      2  C   UNL     1       2.435   6.161  19.518  0.00  0.00    +0.000 C 
ATOM      3  O   UNL     1       1.956   5.545  20.464  0.00  0.00    +0.000 OA
ATOM      4  H   UNL     1       2.531   7.875  18.330  0.00  0.00    +0.000 HD
ENDROOT
BRANCH   1   8
ATOM      5  C   UNL     1      -0.226   9.501  23.153  0.00  0.00    +0.000 C 
ATOM      6  C   UNL     1       0.326   9.303  21.786  0.00  0.00    +0.000 A 
ATOM      7  C   UNL     1       1.020   8.142  21.303  0.00  0.00    +0.000 A 
ATOM      8  C   UNL     1       1.474   8.350  20.018  0.00  0.00    +0.000 A 
ATOM      9  S   UNL     1       0.933   9.885  19.503  0.00  0.00    +0.000 S 
ATOM     10  N   UNL     1       0.181  10.299  20.914  0.00  0.00    +0.000 NA
ENDBRANCH   1   8
BRANCH   2  11
ATOM     11  C   UNL     1       3.350   5.393  18.623  0.00  0.00    +0.000 A 
ATOM     12  C   UNL     1       2.766   4.361  17.868  0.00  0.00    +0.000 A 
ATOM     13  C   UNL     1       3.528   3.586  16.994  0.00  0.00    +0.000 A 
ATOM     14  C   UNL     1       4.888   3.841  16.857  0.00  0.00    +0.000 A 
ATOM     15  C   UNL     1       5.468   4.883  17.586  0.00  0.00    +0.000 A 
ATOM     16  C   UNL     1       4.713   5.662  18.478  0.00  0.00    +0.000 A 
BRANCH  15  17
ATOM     17  S   UNL     1       7.216   5.174  17.431  0.00  0.00    +0.000 S 
ATOM     18  C   UNL     1       7.359   6.940  17.505  0.00  0.00    +0.000 C 
ATOM     19  O   UNL     1       7.845   4.617  18.614  0.00  0.00    +0.000 OA
ATOM     20  O   UNL     1       7.610   4.742  16.104  0.00  0.00    +0.000 OA
ENDBRANCH  15  17
ENDBRANCH   2  11
TORSDOF 3
ENDMDL
MODEL 2
REMARK VINA RESULT:      -7.3      1.469      1.602
REMARK  Name = 
REMARK  5 active torsions:
REMARK  status: ('A' for Active; 'I' for Inactive)
REMARK    1  A    between atoms: C_1  and  C_2
REMARK    2  A    between atoms: C_4  and  N_5
REMARK    3  A    between atoms: C_6  and  C_8
REMARK    4  A    between atoms: C_12  and  S_13
REMARK    5  A    between atoms: S_13  and  C_14
REMARK                            x       y       z     vdW  Elec       q    Type
REMARK                         _______ _______ _______ _____ _____    ______ ____
ROOT
ATOM      1  N   UNL     1       2.268   7.460  19.807  0.00  0.00    +0.000 N 
ATOM      2  C   UNL     1       2.636   7.490  18.471  0.00  0.00    +0.000 C 
ATOM      3  O   UNL     1       2.385   8.388  17.673  0.00  0.00    +0.000 OA
ATOM      4  H   UNL     1       2.634   6.741  20.419  0.00  0.00    +0.000 HD
ENDROOT
BRANCH   1   8
ATOM      5  C   UNL     1      -0.548  10.000  23.142  0.00  0.00    +0.000 C 
ATOM      6  C   UNL     1       0.108   9.585  21.873  0.00  0.00    +0.000 A 
ATOM      7  C   UNL     1       0.909   8.410  21.668  0.00  0.00    +0.000 A 
ATOM      8  C   UNL     1       1.435   8.401  20.393  0.00  0.00    +0.000 A 
ATOM      9  S   UNL     1       0.832   9.760  19.557  0.00  0.00    +0.000 S 
ATOM     10  N   UNL     1      -0.041  10.379  20.815  0.00  0.00    +0.000 NA
ENDBRANCH   1   8
BRANCH   2  11
ATOM     11  C   UNL     1       3.419   6.335  17.943  0.00  0.00    +0.000 A 
ATOM     12  C   UNL     1       2.750   5.099  17.886  0.00  0.00    +0.000 A 
ATOM     13  C   UNL     1       3.385   3.956  17.401  0.00  0.00    +0.000 A 
ATOM     14  C   UNL     1       4.700   4.037  16.956  0.00  0.00    +0.000 A 
ATOM     15  C   UNL     1       5.361   5.269  16.986  0.00  0.00    +0.000 A 
ATOM     16  C   UNL     1       4.735   6.423  17.483  0.00  0.00    +0.000 A 
BRANCH  15  17
ATOM     17  S   UNL     1       7.056   5.350  16.451  0.00  0.00    +0.000 S 
ATOM     18  C   UNL     1       6.995   4.787  14.770  0.00  0.00    +0.000 C 
ATOM     19  O   UNL     1       7.432   6.752  16.447  0.00  0.00    +0.000 OA
ATOM     20  O   UNL     1       7.801   4.380  17.229  0.00  0.00    +0.000 OA
ENDBRANCH  15  17
ENDBRANCH   2  11
TORSDOF 3
ENDMDL
MODEL 3
REMARK VINA RESULT:      -7.3      2.155      2.365
REMARK  Name = 
REMARK  5 active torsions:
REMARK  status: ('A' for Active; 'I' for Inactive)
REMARK    1  A    between atoms: C_1  and  C_2
REMARK    2  A    between atoms: C_4  and  N_5
REMARK    3  A    between atoms: C_6  and  C_8
REMARK    4  A    between atoms: C_12  and  S_13
REMARK    5  A    between atoms: S_13  and  C_14
REMARK                            x       y       z     vdW  Elec       q    Type
REMARK                         _______ _______ _______ _____ _____    ______ ____
ROOT
ATOM      1  N   UNL     1       2.050   8.517  17.664  0.00  0.00    +0.000 N 
ATOM      2  C   UNL     1       2.464   7.529  18.545  0.00  0.00    +0.000 C 
ATOM      3  O   UNL     1       2.231   7.492  19.749  0.00  0.00    +0.000 OA
ATOM      4  H   UNL     1       2.177   8.395  16.668  0.00  0.00    +0.000 HD
ENDROOT
BRANCH   1   8
ATOM      5  C   UNL     1      -1.423  11.815  19.265  0.00  0.00    +0.000 C 
ATOM      6  C   UNL     1      -0.145  11.241  18.767  0.00  0.00    +0.000 A 
ATOM      7  C   UNL     1       0.088   9.876  18.382  0.00  0.00    +0.000 A 
ATOM      8  C   UNL     1       1.416   9.683  18.065  0.00  0.00    +0.000 A 
ATOM      9  S   UNL     1       2.215  11.187  18.177  0.00  0.00    +0.000 S 
ATOM     10  N   UNL     1       0.902  12.058  18.674  0.00  0.00    +0.000 NA
ENDBRANCH   1   8
BRANCH   2  11
ATOM     11  C   UNL     1       3.261   6.397  17.990  0.00  0.00    +0.000 A 
ATOM     12  C   UNL     1       2.603   5.158  17.891  0.00  0.00    +0.000 A 
ATOM     13  C   UNL     1       3.252   4.035  17.378  0.00  0.00    +0.000 A 
ATOM     14  C   UNL     1       4.570   4.140  16.947  0.00  0.00    +0.000 A 
ATOM     15  C   UNL     1       5.220   5.376  17.019  0.00  0.00    +0.000 A 
ATOM     16  C   UNL     1       4.580   6.510  17.545  0.00  0.00    +0.000 A 
BRANCH  15  17
ATOM     17  S   UNL     1       6.918   5.488  16.501  0.00  0.00    +0.000 S 
ATOM     18  C   UNL     1       6.886   4.919  14.822  0.00  0.00    +0.000 C 
ATOM     19  O   UNL     1       7.269   6.896  16.498  0.00  0.00    +0.000 OA
ATOM     20  O   UNL     1       7.674   4.534  17.289  0.00  0.00    +0.000 OA
ENDBRANCH  15  17
ENDBRANCH   2  11
TORSDOF 3
ENDMDL
MODEL 4
REMARK VINA RESULT:      -7.3      2.869      7.548
REMARK  Name = 
REMARK  5 active torsions:
REMARK  status: ('A' for Active; 'I' for Inactive)
REMARK    1  A    between atoms: C_1  and  C_2
REMARK    2  A    between atoms: C_4  and  N_5
REMARK    3  A    between atoms: C_6  and  C_8
REMARK    4  A    between atoms: C_12  and  S_13
REMARK    5  A    between atoms: S_13  and  C_14
REMARK                            x       y       z     vdW  Elec       q    Type
REMARK                         _______ _______ _______ _____ _____    ______ ____
ROOT
ATOM      1  N   UNL     1       4.281   7.107  17.551  0.00  0.00    +0.000 N 
ATOM      2  C   UNL     1       3.160   6.763  18.290  0.00  0.00    +0.000 C 
ATOM      3  O   UNL     1       2.835   5.628  18.624  0.00  0.00    +0.000 OA
ATOM      4  H   UNL     1       4.536   8.080  17.437  0.00  0.00    +0.000 HD
ENDROOT
BRANCH   1   8
ATOM      5  C   UNL     1       6.605   4.130  14.199  0.00  0.00    +0.000 C 
ATOM      6  C   UNL     1       6.206   4.771  15.480  0.00  0.00    +0.000 A 
ATOM      7  C   UNL     1       5.148   5.725  15.667  0.00  0.00    +0.000 A 
ATOM      8  C   UNL     1       5.129   6.177  16.969  0.00  0.00    +0.000 A 
ATOM      9  S   UNL     1       6.327   5.334  17.844  0.00  0.00    +0.000 S 
ATOM     10  N   UNL     1       6.897   4.448  16.571  0.00  0.00    +0.000 NA
ENDBRANCH   1   8
BRANCH   2  11
ATOM     11  C   UNL     1       2.259   7.866  18.734  0.00  0.00    +0.000 A 
ATOM     12  C   UNL     1       1.859   8.784  17.746  0.00  0.00    +0.000 A 
ATOM     13  C   UNL     1       1.011   9.849  18.051  0.00  0.00    +0.000 A 
ATOM     14  C   UNL     1       0.543  10.005  19.351  0.00  0.00    +0.000 A 
ATOM     15  C   UNL     1       0.917   9.079  20.331  0.00  0.00    +0.000 A 
ATOM     16  C   UNL     1       1.779   8.011  20.038  0.00  0.00    +0.000 A 
BRANCH  15  17
ATOM     17  S   UNL     1       0.343   9.312  21.999  0.00  0.00    +0.000 S 
ATOM     18  C   UNL     1      -0.416  10.914  21.965  0.00  0.00    +0.000 C 
ATOM     19  O   UNL     1      -0.693   8.323  22.232  0.00  0.00    +0.000 OA
ATOM     20  O   UNL     1       1.513   9.382  22.852  0.00  0.00    +0.000 OA
ENDBRANCH  15  17
ENDBRANCH   2  11
TORSDOF 3
ENDMDL
MODEL 5
REMARK VINA RESULT:      -7.2      0.957      1.114
REMARK  Name = 
REMARK  5 active torsions:
REMARK  status: ('A' for Active; 'I' for Inactive)
REMARK    1  A    between atoms: C_1  and  C_2
REMARK    2  A    between atoms: C_4  and  N_5
REMARK    3  A    between atoms: C_6  and  C_8
REMARK    4  A    between atoms: C_12  and  S_13
REMARK    5  A    between atoms: S_13  and  C_14
REMARK                            x       y       z     vdW  Elec       q    Type
REMARK                         _______ _______ _______ _____ _____    ______ ____
ROOT
ATOM      1  N   UNL     1       2.147   7.553  19.154  0.00  0.00    +0.000 N 
ATOM      2  C   UNL     1       2.463   6.244  19.481  0.00  0.00    +0.000 C 
ATOM      3  O   UNL     1       2.118   5.650  20.498  0.00  0.00    +0.000 OA
ATOM      4  H   UNL     1       2.364   7.915  18.234  0.00  0.00    +0.000 HD
ENDROOT
BRANCH   1   8
ATOM      5  C   UNL     1       0.039   9.588  23.267  0.00  0.00    +0.000 C 
ATOM      6  C   UNL     1       0.490   9.386  21.865  0.00  0.00    +0.000 A 
ATOM      7  C   UNL     1       1.130   8.216  21.331  0.00  0.00    +0.000 A 
ATOM      8  C   UNL     1       1.496   8.422  20.018  0.00  0.00    +0.000 A 
ATOM      9  S   UNL     1       0.944   9.966  19.546  0.00  0.00    +0.000 S 
ATOM     10  N   UNL     1       0.300  10.387  21.007  0.00  0.00    +0.000 NA
ENDBRANCH   1   8
BRANCH   2  11
ATOM     11  C   UNL     1       3.291   5.470  18.511  0.00  0.00    +0.000 A 
ATOM     12  C   UNL     1       2.699   4.318  17.962  0.00  0.00    +0.000 A 
ATOM     13  C   UNL     1       3.382   3.526  17.039  0.00  0.00    +0.000 A 
ATOM     14  C   UNL     1       4.667   3.882  16.645  0.00  0.00    +0.000 A 
ATOM     15  C   UNL     1       5.250   5.041  17.168  0.00  0.00    +0.000 A 
ATOM     16  C   UNL     1       4.576   5.839  18.107  0.00  0.00    +0.000 A 
BRANCH  15  17
ATOM     17  S   UNL     1       6.909   5.464  16.686  0.00  0.00    +0.000 S 
ATOM     18  C   UNL     1       7.008   4.926  14.999  0.00  0.00    +0.000 C 
ATOM     19  O   UNL     1       7.000   6.912  16.707  0.00  0.00    +0.000 OA
ATOM     20  O   UNL     1       7.810   4.649  17.477  0.00  0.00    +0.000 OA
ENDBRANCH  15  17
ENDBRANCH   2  11
TORSDOF 3
ENDMDL
MODEL 6
REMARK VINA RESULT:      -7.2      1.204      1.204
REMARK  Name = 
REMARK  5 active torsions:
REMARK  status: ('A' for Active; 'I' for Inactive)
REMARK    1  A    between atoms: C_1  and  C_2
REMARK    2  A    between atoms: C_4  and  N_5
REMARK    3  A    between atoms: C_6  and  C_8
REMARK    4  A    between atoms: C_12  and  S_13
REMARK    5  A    between atoms: S_13  and  C_14
REMARK                            x       y       z     vdW  Elec       q    Type
REMARK                         _______ _______ _______ _____ _____    ______ ____
ROOT
ATOM      1  N   UNL     1       2.285   7.608  19.859  0.00  0.00    +0.000 N 
ATOM      2  C   UNL     1       2.466   7.487  18.490  0.00  0.00    +0.000 C 
ATOM      3  O   UNL     1       1.983   8.216  17.631  0.00  0.00    +0.000 OA
ATOM      4  H   UNL     1       2.829   7.041  20.497  0.00  0.00    +0.000 HD
ENDROOT
BRANCH   1   8
ATOM      5  C   UNL     1      -0.692  10.005  23.160  0.00  0.00    +0.000 C 
ATOM      6  C   UNL     1       0.007   9.631  21.902  0.00  0.00    +0.000 A 
ATOM      7  C   UNL     1       0.852   8.487  21.700  0.00  0.00    +0.000 A 
ATOM      8  C   UNL     1       1.407   8.513  20.438  0.00  0.00    +0.000 A 
ATOM      9  S   UNL     1       0.775   9.861  19.605  0.00  0.00    +0.000 S 
ATOM     10  N   UNL     1      -0.147  10.433  20.851  0.00  0.00    +0.000 NA
ENDBRANCH   1   8
BRANCH   2  11
ATOM     11  C   UNL     1       3.333   6.375  18.004  0.00  0.00    +0.000 A 
ATOM     12  C   UNL     1       2.720   5.117  17.866  0.00  0.00    +0.000 A 
ATOM     13  C   UNL     1       3.437   4.010  17.410  0.00  0.00    +0.000 A 
ATOM     14  C   UNL     1       4.780   4.151  17.077  0.00  0.00    +0.000 A 
ATOM     15  C   UNL     1       5.387   5.406  17.188  0.00  0.00    +0.000 A 
ATOM     16  C   UNL     1       4.678   6.524  17.656  0.00  0.00    +0.000 A 
BRANCH  15  17
ATOM     17  S   UNL     1       7.115   5.564  16.795  0.00  0.00    +0.000 S 
ATOM     18  C   UNL     1       7.569   7.124  17.507  0.00  0.00    +0.000 C 
ATOM     19  O   UNL     1       7.811   4.515  17.517  0.00  0.00    +0.000 OA
ATOM     20  O   UNL     1       7.222   5.674  15.354  0.00  0.00    +0.000 OA
ENDBRANCH  15  17
ENDBRANCH   2  11
TORSDOF 3
ENDMDL
MODEL 7
REMARK VINA RESULT:      -7.2      2.266      2.543
REMARK  Name = 
REMARK  5 active torsions:
REMARK  status: ('A' for Active; 'I' for Inactive)
REMARK    1  A    between atoms: C_1  and  C_2
REMARK    2  A    between atoms: C_4  and  N_5
REMARK    3  A    between atoms: C_6  and  C_8
REMARK    4  A    between atoms: C_12  and  S_13
REMARK    5  A    between atoms: S_13  and  C_14
REMARK                            x       y       z     vdW  Elec       q    Type
REMARK                         _______ _______ _______ _____ _____    ______ ____
ROOT
ATOM      1  N   UNL     1       1.696   8.781  17.796  0.00  0.00    +0.000 N 
ATOM      2  C   UNL     1       2.189   7.831  18.677  0.00  0.00    +0.000 C 
ATOM      3  O   UNL     1       2.026   7.820  19.893  0.00  0.00    +0.000 OA
ATOM      4  H   UNL     1       1.769   8.635  16.797  0.00  0.00    +0.000 HD
ENDROOT
BRANCH   1   8
ATOM      5  C   UNL     1      -1.848  12.079  19.231  0.00  0.00    +0.000 C 
ATOM      6  C   UNL     1      -0.538  11.498  18.834  0.00  0.00    +0.000 A 
ATOM      7  C   UNL     1      -0.298  10.153  18.389  0.00  0.00    +0.000 A 
ATOM      8  C   UNL     1       1.051   9.939  18.202  0.00  0.00    +0.000 A 
ATOM      9  S   UNL     1       1.869  11.408  18.493  0.00  0.00    +0.000 S 
ATOM     10  N   UNL     1       0.532  12.286  18.905  0.00  0.00    +0.000 NA
ENDBRANCH   1   8
BRANCH   2  11
ATOM     11  C   UNL     1       2.987   6.706  18.106  0.00  0.00    +0.000 A 
ATOM     12  C   UNL     1       2.360   5.448  18.074  0.00  0.00    +0.000 A 
ATOM     13  C   UNL     1       3.013   4.330  17.553  0.00  0.00    +0.000 A 
ATOM     14  C   UNL     1       4.302   4.459  17.048  0.00  0.00    +0.000 A 
ATOM     15  C   UNL     1       4.919   5.714  17.055  0.00  0.00    +0.000 A 
ATOM     16  C   UNL     1       4.277   6.844  17.587  0.00  0.00    +0.000 A 
BRANCH  15  17
ATOM     17  S   UNL     1       6.583   5.859  16.442  0.00  0.00    +0.000 S 
ATOM     18  C   UNL     1       7.467   4.596  17.318  0.00  0.00    +0.000 C 
ATOM     19  O   UNL     1       6.550   5.500  15.036  0.00  0.00    +0.000 OA
ATOM     20  O   UNL     1       7.090   7.149  16.869  0.00  0.00    +0.000 OA
ENDBRANCH  15  17
ENDBRANCH   2  11
TORSDOF 3
ENDMDL
MODEL 8
REMARK VINA RESULT:      -7.2      1.909      2.126
REMARK  Name = 
REMARK  5 active torsions:
REMARK  status: ('A' for Active; 'I' for Inactive)
REMARK    1  A    between atoms: C_1  and  C_2
REMARK    2  A    between atoms: C_4  and  N_5
REMARK    3  A    between atoms: C_6  and  C_8
REMARK    4  A    between atoms: C_12  and  S_13
REMARK    5  A    between atoms: S_13  and  C_14
REMARK                            x       y       z     vdW  Elec       q    Type
REMARK                         _______ _______ _______ _____ _____    ______ ____
ROOT
ATOM      1  N   UNL     1       2.169   7.722  19.558  0.00  0.00    +0.000 N 
ATOM      2  C   UNL     1       2.633   7.698  18.252  0.00  0.00    +0.000 C 
ATOM      3  O   UNL     1       2.476   8.579  17.413  0.00  0.00    +0.000 OA
ATOM      4  H   UNL     1       2.460   7.010  20.215  0.00  0.00    +0.000 HD
ENDROOT
BRANCH   1   8
ATOM      5  C   UNL     1      -1.090  11.565  19.893  0.00  0.00    +0.000 C 
ATOM      6  C   UNL     1      -0.133  10.490  20.264  0.00  0.00    +0.000 A 
ATOM      7  C   UNL     1       0.625   9.669  19.360  0.00  0.00    +0.000 A 
ATOM      8  C   UNL     1       1.334   8.712  20.055  0.00  0.00    +0.000 A 
ATOM      9  S   UNL     1       1.081   8.967  21.723  0.00  0.00    +0.000 S 
ATOM     10  N   UNL     1       0.042  10.241  21.560  0.00  0.00    +0.000 NA
ENDBRANCH   1   8
BRANCH   2  11
ATOM     11  C   UNL     1       3.405   6.498  17.815  0.00  0.00    +0.000 A 
ATOM     12  C   UNL     1       2.726   5.267  17.859  0.00  0.00    +0.000 A 
ATOM     13  C   UNL     1       3.351   4.084  17.465  0.00  0.00    +0.000 A 
ATOM     14  C   UNL     1       4.665   4.118  17.012  0.00  0.00    +0.000 A 
ATOM     15  C   UNL     1       5.336   5.344  16.942  0.00  0.00    +0.000 A 
ATOM     16  C   UNL     1       4.721   6.539  17.348  0.00  0.00    +0.000 A 
BRANCH  15  17
ATOM     17  S   UNL     1       7.029   5.369  16.398  0.00  0.00    +0.000 S 
ATOM     18  C   UNL     1       6.942   4.802  14.720  0.00  0.00    +0.000 C 
ATOM     19  O   UNL     1       7.450   6.758  16.388  0.00  0.00    +0.000 OA
ATOM     20  O   UNL     1       7.747   4.378  17.176  0.00  0.00    +0.000 OA
ENDBRANCH  15  17
ENDBRANCH   2  11
TORSDOF 3
ENDMDL
MODEL 9
REMARK VINA RESULT:      -7.2      2.349      2.674
REMARK  Name = 
REMARK  5 active torsions:
REMARK  status: ('A' for Active; 'I' for Inactive)
REMARK    1  A    between atoms: C_1  and  C_2
REMARK    2  A    between atoms: C_4  and  N_5
REMARK    3  A    between atoms: C_6  and  C_8
REMARK    4  A    between atoms: C_12  and  S_13
REMARK    5  A    between atoms: S_13  and  C_14
REMARK                            x       y       z     vdW  Elec       q    Type
REMARK                         _______ _______ _______ _____ _____    ______ ____
ROOT
ATOM      1  N   UNL     1       2.057   8.594  17.689  0.00  0.00    +0.000 N 
ATOM      2  C   UNL     1       2.385   7.588  18.585  0.00  0.00    +0.000 C 
ATOM      3  O   UNL     1       2.218   7.621  19.800  0.00  0.00    +0.000 OA
ATOM      4  H   UNL     1       2.109   8.424  16.692  0.00  0.00    +0.000 HD
ENDROOT
BRANCH   1   8
ATOM      5  C   UNL     1       1.828  13.540  18.684  0.00  0.00    +0.000 C 
ATOM      6  C   UNL     1       1.462  12.102  18.577  0.00  0.00    +0.000 A 
ATOM      7  C   UNL     1       2.315  11.031  18.141  0.00  0.00    +0.000 A 
ATOM      8  C   UNL     1       1.610   9.848  18.076  0.00  0.00    +0.000 A 
ATOM      9  S   UNL     1       0.025  10.140  18.635  0.00  0.00    +0.000 S 
ATOM     10  N   UNL     1       0.218  11.759  18.904  0.00  0.00    +0.000 NA
ENDBRANCH   1   8
BRANCH   2  11
ATOM     11  C   UNL     1       2.989   6.341  18.033  0.00  0.00    +0.000 A 
ATOM     12  C   UNL     1       2.190   5.184  18.080  0.00  0.00    +0.000 A 
ATOM     13  C   UNL     1       2.653   3.966  17.583  0.00  0.00    +0.000 A 
ATOM     14  C   UNL     1       3.924   3.890  17.025  0.00  0.00    +0.000 A 
ATOM     15  C   UNL     1       4.713   5.043  16.953  0.00  0.00    +0.000 A 
ATOM     16  C   UNL     1       4.261   6.272  17.460  0.00  0.00    +0.000 A 
BRANCH  15  17
ATOM     17  S   UNL     1       6.352   4.924  16.271  0.00  0.00    +0.000 S 
ATOM     18  C   UNL     1       7.382   4.661  17.691  0.00  0.00    +0.000 C 
ATOM     19  O   UNL     1       6.386   3.725  15.456  0.00  0.00    +0.000 OA
ATOM     20  O   UNL     1       6.679   6.219  15.707  0.00  0.00    +0.000 OA
ENDBRANCH  15  17
ENDBRANCH   2  11
TORSDOF 3
ENDMDL
