MODEL 1
REMARK VINA RESULT:      -6.8      0.000      0.000
REMARK  Name = 
REMARK  7 active torsions:
REMARK  status: ('A' for Active; 'I' for Inactive)
REMARK    1  A    between atoms: C_1  and  N_2
REMARK    2  A    between atoms: N_2  and  C_3
REMARK    3  A    between atoms: N_2  and  S_4
REMARK    4  A    between atoms: S_4  and  N_7
REMARK    5  A    between atoms: N_7  and  C_8
REMARK    6  A    between atoms: C_8  and  C_9
REMARK    7  A    between atoms: C_13  and  C_14
REMARK                            x       y       z     vdW  Elec       q    Type
REMARK                         _______ _______ _______ _____ _____    ______ ____
ROOT
ATOM      1  C   UNL     1       2.332   7.218  19.365  0.00  0.00    +0.000 A 
ATOM      2  C   UNL     1       2.448   7.856  18.130  0.00  0.00    +0.000 A 
ATOM      3  C   UNL     1       1.842   9.092  17.966  0.00  0.00    +0.000 A 
ATOM      4  N   UNL     1       1.148   9.728  18.934  0.00  0.00    +0.000 NA
ATOM      5  C   UNL     1       1.041   9.100  20.129  0.00  0.00    +0.000 A 
ATOM      6  C   UNL     1       1.644   7.878  20.390  0.00  0.00    +0.000 A 
ENDROOT
BRANCH   5   7
ATOM      7  C   UNL     1       0.265   9.777  21.163  0.00  0.00    +0.000 A 
ATOM      8  C   UNL     1      -0.108   9.285  22.460  0.00  0.00    +0.000 A 
ATOM      9  C   UNL     1      -0.808  10.218  23.195  0.00  0.00    +0.000 A 
ATOM     10  S   UNL     1      -1.037  11.675  22.332  0.00  0.00    +0.000 S 
ATOM     11  C   UNL     1      -0.202  11.063  20.971  0.00  0.00    +0.000 A 
ENDBRANCH   5   7
BRANCH   1  12
ATOM     12  C   UNL     1       2.917   5.851  19.589  0.00  0.00    +0.000 C 
BRANCH  12  13
ATOM     13  N   UNL     1       2.687   5.278  20.942  0.00  0.00    +0.000 NA
ATOM     14  H   UNL     1       3.574   5.248  21.450  0.00  0.00    +0.000 HD
BRANCH  13  15
ATOM     15  S   UNL     1       2.087   3.706  20.931  0.00  0.00    +0.000 S 
ATOM     16  O   UNL     1       0.719   3.794  20.478  0.00  0.00    +0.000 OA
ATOM     17  O   UNL     1       2.459   3.008  22.130  0.00  0.00    +0.000 OA
BRANCH  15  19
ATOM     18  C   UNL     1       4.280   2.411  20.111  0.00  0.00    +0.000 C 
ATOM     19  N   UNL     1       3.023   3.065  19.671  0.00  0.00    +0.000 NA
ATOM     20  C   UNL     1       2.220   2.143  18.831  0.00  0.00    +0.000 C 
ENDBRANCH  15  19
ENDBRANCH  13  15
ENDBRANCH  12  13
ENDBRANCH   1  12
TORSDOF 5
ENDMDL
MODEL 2
REMARK VINA RESULT:      -6.7      3.988      5.007
REMARK  Name = 
REMARK  7 active torsions:
REMARK  status: ('A' for Active; 'I' for Inactive)
REMARK    1  A    between atoms: C_1  and  N_2
REMARK    2  A    between atoms: N_2  and  C_3
REMARK    3  A    between atoms: N_2  and  S_4
REMARK    4  A    between atoms: S_4  and  N_7
REMARK    5  A    between atoms: N_7  and  C_8
REMARK    6  A    between atoms: C_8  and  C_9
REMARK    7  A    between atoms: C_13  and  C_14
REMARK                            x       y       z     vdW  Elec       q    Type
REMARK                         _______ _______ _______ _____ _____    ______ ____
ROOT
ATOM      1  C   UNL     1       3.795   5.148  17.920  0.00  0.00    +0.000 A 
ATOM      2  C   UNL     1       3.602   4.266  18.984  0.00  0.00    +0.000 A 
ATOM      3  C   UNL     1       2.844   4.690  20.063  0.00  0.00    +0.000 A 
ATOM      4  N   UNL     1       2.268   5.907  20.151  0.00  0.00    +0.000 NA
ATOM      5  C   UNL     1       2.460   6.756  19.114  0.00  0.00    +0.000 A 
ATOM      6  C   UNL     1       3.177   6.402  17.980  0.00  0.00    +0.000 A 
ENDROOT
BRANCH   5   7
ATOM      7  C   UNL     1       1.861   8.081  19.226  0.00  0.00    +0.000 A 
ATOM      8  C   UNL     1       1.607   9.034  18.181  0.00  0.00    +0.000 A 
ATOM      9  C   UNL     1       0.984  10.172  18.646  0.00  0.00    +0.000 A 
ATOM     10  S   UNL     1       0.717  10.114  20.333  0.00  0.00    +0.000 S 
ATOM     11  C   UNL     1       1.436   8.567  20.448  0.00  0.00    +0.000 A 
ENDBRANCH   5   7
BRANCH   1  12
ATOM     12  C   UNL     1       4.655   4.770  16.746  0.00  0.00    +0.000 C 
BRANCH  12  13
ATOM     13  N   UNL     1       5.866   3.975  17.078  0.00  0.00    +0.000 NA
ATOM     14  H   UNL     1       5.807   3.662  18.050  0.00  0.00    +0.000 HD
BRANCH  13  15
ATOM     15  S   UNL     1       7.310   4.827  16.936  0.00  0.00    +0.000 S 
ATOM     16  O   UNL     1       7.315   5.403  15.612  0.00  0.00    +0.000 OA
ATOM     17  O   UNL     1       8.411   4.057  17.446  0.00  0.00    +0.000 OA
BRANCH  15  19
ATOM     18  C   UNL     1       7.547   5.812  19.412  0.00  0.00    +0.000 C 
ATOM     19  N   UNL     1       7.008   6.065  18.054  0.00  0.00    +0.000 NA
ATOM     20  C   UNL     1       7.484   7.372  17.538  0.00  0.00    +0.000 C 
ENDBRANCH  15  19
ENDBRANCH  13  15
ENDBRANCH  12  13
ENDBRANCH   1  12
TORSDOF 5
ENDMDL
MODEL 3
REMARK VINA RESULT:      -6.7      3.650      4.933
REMARK  Name = 
REMARK  7 active torsions:
REMARK  status: ('A' for Active; 'I' for Inactive)
REMARK    1  A    between atoms: C_1  and  N_2
REMARK    2  A    between atoms: N_2  and  C_3
REMARK    3  A    between atoms: N_2  and  S_4
REMARK    4  A    between atoms: S_4  and  N_7
REMARK    5  A    between atoms: N_7  and  C_8
REMARK    6  A    between atoms: C_8  and  C_9
REMARK    7  A    between atoms: C_13  and  C_14
REMARK                            x       y       z     vdW  Elec       q    Type
REMARK                         _______ _______ _______ _____ _____    ______ ____
ROOT
ATOM      1  C   UNL     1       3.493   4.352  19.102  0.00  0.00    +0.000 A 
ATOM      2  C   UNL     1       2.945   3.850  20.282  0.00  0.00    +0.000 A 
ATOM      3  C   UNL     1       2.121   4.676  21.031  0.00  0.00    +0.000 A 
ATOM      4  N   UNL     1       1.806   5.942  20.686  0.00  0.00    +0.000 NA
ATOM      5  C   UNL     1       2.342   6.420  19.539  0.00  0.00    +0.000 A 
ATOM      6  C   UNL     1       3.150   5.652  18.712  0.00  0.00    +0.000 A 
ENDROOT
BRANCH   5   7
ATOM      7  C   UNL     1       2.023   7.799  19.185  0.00  0.00    +0.000 A 
ATOM      8  C   UNL     1       2.316   8.495  17.963  0.00  0.00    +0.000 A 
ATOM      9  C   UNL     1       1.824   9.782  17.959  0.00  0.00    +0.000 A 
ATOM     10  S   UNL     1       1.028  10.170  19.421  0.00  0.00    +0.000 S 
ATOM     11  C   UNL     1       1.340   8.617  20.065  0.00  0.00    +0.000 A 
ENDBRANCH   5   7
BRANCH   1  12
ATOM     12  C   UNL     1       4.439   3.527  18.274  0.00  0.00    +0.000 C 
BRANCH  12  13
ATOM     13  N   UNL     1       5.881   3.837  18.464  0.00  0.00    +0.000 NA
ATOM     14  H   UNL     1       5.978   4.570  19.170  0.00  0.00    +0.000 HD
BRANCH  13  15
ATOM     15  S   UNL     1       6.652   4.401  17.079  0.00  0.00    +0.000 S 
ATOM     16  O   UNL     1       5.938   3.841  15.956  0.00  0.00    +0.000 OA
ATOM     17  O   UNL     1       8.080   4.303  17.212  0.00  0.00    +0.000 OA
BRANCH  15  19
ATOM     18  C   UNL     1       7.417   6.949  17.366  0.00  0.00    +0.000 C 
ATOM     19  N   UNL     1       6.254   6.045  17.196  0.00  0.00    +0.000 NA
ATOM     20  C   UNL     1       5.425   6.472  16.040  0.00  0.00    +0.000 C 
ENDBRANCH  15  19
ENDBRANCH  13  15
ENDBRANCH  12  13
ENDBRANCH   1  12
TORSDOF 5
ENDMDL
MODEL 4
REMARK VINA RESULT:      -6.6      5.025      7.849
REMARK  Name = 
REMARK  7 active torsions:
REMARK  status: ('A' for Active; 'I' for Inactive)
REMARK    1  A    between atoms: C_1  and  N_2
REMARK    2  A    between atoms: N_2  and  C_3
REMARK    3  A    between atoms: N_2  and  S_4
REMARK    4  A    between atoms: S_4  and  N_7
REMARK    5  A    between atoms: N_7  and  C_8
REMARK    6  A    between atoms: C_8  and  C_9
REMARK    7  A    between atoms: C_13  and  C_14
REMARK                            x       y       z     vdW  Elec       q    Type
REMARK                         _______ _______ _______ _____ _____    ______ ____
ROOT
ATOM      1  C   UNL     1       5.595   4.725  18.004  0.00  0.00    +0.000 A 
ATOM      2  C   UNL     1       6.458   5.711  18.481  0.00  0.00    +0.000 A 
ATOM      3  C   UNL     1       7.344   6.300  17.592  0.00  0.00    +0.000 A 
ATOM      4  N   UNL     1       7.421   5.986  16.282  0.00  0.00    +0.000 NA
ATOM      5  C   UNL     1       6.578   5.028  15.828  0.00  0.00    +0.000 A 
ATOM      6  C   UNL     1       5.638   4.410  16.641  0.00  0.00    +0.000 A 
ENDROOT
BRANCH   5   7
ATOM      7  C   UNL     1       6.685   4.669  14.418  0.00  0.00    +0.000 A 
ATOM      8  C   UNL     1       7.617   5.161  13.442  0.00  0.00    +0.000 A 
ATOM      9  C   UNL     1       7.454   4.565  12.210  0.00  0.00    +0.000 A 
ATOM     10  S   UNL     1       6.175   3.432  12.210  0.00  0.00    +0.000 S 
ATOM     11  C   UNL     1       5.834   3.735  13.858  0.00  0.00    +0.000 A 
ENDBRANCH   5   7
BRANCH   1  12
ATOM     12  C   UNL     1       4.651   4.008  18.929  0.00  0.00    +0.000 C 
BRANCH  12  13
ATOM     13  N   UNL     1       3.223   4.404  18.806  0.00  0.00    +0.000 NA
ATOM     14  H   UNL     1       2.983   5.039  19.571  0.00  0.00    +0.000 HD
BRANCH  13  15
ATOM     15  S   UNL     1       2.141   3.118  18.895  0.00  0.00    +0.000 S 
ATOM     16  O   UNL     1       2.937   1.926  19.072  0.00  0.00    +0.000 OA
ATOM     17  O   UNL     1       1.131   3.227  17.879  0.00  0.00    +0.000 OA
BRANCH  15  19
ATOM     18  C   UNL     1       1.900   2.696  21.527  0.00  0.00    +0.000 C 
ATOM     19  N   UNL     1       1.401   3.487  20.375  0.00  0.00    +0.000 NA
ATOM     20  C   UNL     1       1.488   4.940  20.662  0.00  0.00    +0.000 C 
ENDBRANCH  15  19
ENDBRANCH  13  15
ENDBRANCH  12  13
ENDBRANCH   1  12
TORSDOF 5
ENDMDL
MODEL 5
REMARK VINA RESULT:      -6.6      3.830      4.906
REMARK  Name = 
REMARK  7 active torsions:
REMARK  status: ('A' for Active; 'I' for Inactive)
REMARK    1  A    between atoms: C_1  and  N_2
REMARK    2  A    between atoms: N_2  and  C_3
REMARK    3  A    between atoms: N_2  and  S_4
REMARK    4  A    between atoms: S_4  and  N_7
REMARK    5  A    between atoms: N_7  and  C_8
REMARK    6  A    between atoms: C_8  and  C_9
REMARK    7  A    between atoms: C_13  and  C_14
REMARK                            x       y       z     vdW  Elec       q    Type
REMARK                         _______ _______ _______ _____ _____    ______ ____
ROOT
ATOM      1  C   UNL     1       3.619   4.412  19.007  0.00  0.00    +0.000 A 
ATOM      2  C   UNL     1       3.091   3.761  20.121  0.00  0.00    +0.000 A 
ATOM      3  C   UNL     1       2.203   4.451  20.931  0.00  0.00    +0.000 A 
ATOM      4  N   UNL     1       1.805   5.721  20.705  0.00  0.00    +0.000 NA
ATOM      5  C   UNL     1       2.322   6.345  19.621  0.00  0.00    +0.000 A 
ATOM      6  C   UNL     1       3.192   5.718  18.739  0.00  0.00    +0.000 A 
ENDROOT
BRANCH   5   7
ATOM      7  C   UNL     1       1.913   7.727  19.396  0.00  0.00    +0.000 A 
ATOM      8  C   UNL     1       1.261   8.622  20.311  0.00  0.00    +0.000 A 
ATOM      9  C   UNL     1       1.064   9.875  19.773  0.00  0.00    +0.000 A 
ATOM     10  S   UNL     1       1.641   9.981  18.167  0.00  0.00    +0.000 S 
ATOM     11  C   UNL     1       2.154   8.351  18.187  0.00  0.00    +0.000 A 
ENDBRANCH   5   7
BRANCH   1  12
ATOM     12  C   UNL     1       4.630   3.738  18.122  0.00  0.00    +0.000 C 
BRANCH  12  13
ATOM     13  N   UNL     1       6.050   3.941  18.515  0.00  0.00    +0.000 NA
ATOM     14  H   UNL     1       6.084   4.390  19.433  0.00  0.00    +0.000 HD
BRANCH  13  15
ATOM     15  S   UNL     1       6.921   4.928  17.466  0.00  0.00    +0.000 S 
ATOM     16  O   UNL     1       8.126   4.207  17.133  0.00  0.00    +0.000 OA
ATOM     17  O   UNL     1       6.939   6.286  17.938  0.00  0.00    +0.000 OA
BRANCH  15  19
ATOM     18  C   UNL     1       5.296   6.192  15.756  0.00  0.00    +0.000 C 
ATOM     19  N   UNL     1       5.885   4.881  16.125  0.00  0.00    +0.000 NA
ATOM     20  C   UNL     1       6.562   4.265  14.956  0.00  0.00    +0.000 C 
ENDBRANCH  15  19
ENDBRANCH  13  15
ENDBRANCH  12  13
ENDBRANCH   1  12
TORSDOF 5
ENDMDL
MODEL 6
REMARK VINA RESULT:      -6.6      4.325      5.511
REMARK  Name = 
REMARK  7 active torsions:
REMARK  status: ('A' for Active; 'I' for Inactive)
REMARK    1  A    between atoms: C_1  and  N_2
REMARK    2  A    between atoms: N_2  and  C_3
REMARK    3  A    between atoms: N_2  and  S_4
REMARK    4  A    between atoms: S_4  and  N_7
REMARK    5  A    between atoms: N_7  and  C_8
REMARK    6  A    between atoms: C_8  and  C_9
REMARK    7  A    between atoms: C_13  and  C_14
REMARK                            x       y       z     vdW  Elec       q    Type
REMARK                         _______ _______ _______ _____ _____    ______ ____
ROOT
ATOM      1  C   UNL     1       4.020   4.291  17.622  0.00  0.00    +0.000 A 
ATOM      2  C   UNL     1       4.027   3.477  18.756  0.00  0.00    +0.000 A 
ATOM      3  C   UNL     1       3.451   3.961  19.919  0.00  0.00    +0.000 A 
ATOM      4  N   UNL     1       2.871   5.175  20.027  0.00  0.00    +0.000 NA
ATOM      5  C   UNL     1       2.868   5.957  18.922  0.00  0.00    +0.000 A 
ATOM      6  C   UNL     1       3.393   5.539  17.707  0.00  0.00    +0.000 A 
ENDROOT
BRANCH   5   7
ATOM      7  C   UNL     1       2.267   7.280  19.051  0.00  0.00    +0.000 A 
ATOM      8  C   UNL     1       1.709   7.894  20.223  0.00  0.00    +0.000 A 
ATOM      9  C   UNL     1       1.267   9.178  19.986  0.00  0.00    +0.000 A 
ATOM     10  S   UNL     1       1.500   9.647  18.359  0.00  0.00    +0.000 S 
ATOM     11  C   UNL     1       2.191   8.133  17.966  0.00  0.00    +0.000 A 
ENDBRANCH   5   7
BRANCH   1  12
ATOM     12  C   UNL     1       4.679   3.847  16.346  0.00  0.00    +0.000 C 
BRANCH  12  13
ATOM     13  N   UNL     1       6.161   3.964  16.325  0.00  0.00    +0.000 NA
ATOM     14  H   UNL     1       6.513   3.951  17.285  0.00  0.00    +0.000 HD
BRANCH  13  15
ATOM     15  S   UNL     1       6.730   5.385  15.625  0.00  0.00    +0.000 S 
ATOM     16  O   UNL     1       5.568   6.188  15.329  0.00  0.00    +0.000 OA
ATOM     17  O   UNL     1       7.743   5.103  14.646  0.00  0.00    +0.000 OA
BRANCH  15  19
ATOM     18  C   UNL     1       6.930   7.337  17.444  0.00  0.00    +0.000 C 
ATOM     19  N   UNL     1       7.512   6.057  16.971  0.00  0.00    +0.000 NA
ATOM     20  C   UNL     1       7.589   5.076  18.083  0.00  0.00    +0.000 C 
ENDBRANCH  15  19
ENDBRANCH  13  15
ENDBRANCH  12  13
ENDBRANCH   1  12
TORSDOF 5
ENDMDL
MODEL 7
REMARK VINA RESULT:      -6.6      5.390      7.687
REMARK  Name = 
REMARK  7 active torsions:
REMARK  status: ('A' for Active; 'I' for Inactive)
REMARK    1  A    between atoms: C_1  and  N_2
REMARK    2  A    between atoms: N_2  and  C_3
REMARK    3  A    between atoms: N_2  and  S_4
REMARK    4  A    between atoms: S_4  and  N_7
REMARK    5  A    between atoms: N_7  and  C_8
REMARK    6  A    between atoms: C_8  and  C_9
REMARK    7  A    between atoms: C_13  and  C_14
REMARK                            x       y       z     vdW  Elec       q    Type
REMARK                         _______ _______ _______ _____ _____    ______ ____
ROOT
ATOM      1  C   UNL     1       5.643   5.302  18.126  0.00  0.00    +0.000 A 
ATOM      2  C   UNL     1       6.605   6.273  18.405  0.00  0.00    +0.000 A 
ATOM      3  C   UNL     1       7.465   6.661  17.390  0.00  0.00    +0.000 A 
ATOM      4  N   UNL     1       7.428   6.162  16.136  0.00  0.00    +0.000 NA
ATOM      5  C   UNL     1       6.491   5.220  15.875  0.00  0.00    +0.000 A 
ATOM      6  C   UNL     1       5.569   4.798  16.823  0.00  0.00    +0.000 A 
ENDROOT
BRANCH   5   7
ATOM      7  C   UNL     1       6.473   4.662  14.528  0.00  0.00    +0.000 A 
ATOM      8  C   UNL     1       5.497   3.788  13.939  0.00  0.00    +0.000 A 
ATOM      9  C   UNL     1       5.778   3.495  12.622  0.00  0.00    +0.000 A 
ATOM     10  S   UNL     1       7.218   4.247  12.090  0.00  0.00    +0.000 S 
ATOM     11  C   UNL     1       7.471   4.966  13.621  0.00  0.00    +0.000 A 
ENDBRANCH   5   7
BRANCH   1  12
ATOM     12  C   UNL     1       4.718   4.797  19.199  0.00  0.00    +0.000 C 
BRANCH  12  13
ATOM     13  N   UNL     1       3.594   3.952  18.718  0.00  0.00    +0.000 NA
ATOM     14  H   UNL     1       2.711   4.343  19.054  0.00  0.00    +0.000 HD
BRANCH  13  15
ATOM     15  S   UNL     1       3.648   2.359  19.258  0.00  0.00    +0.000 S 
ATOM     16  O   UNL     1       4.755   2.279  20.182  0.00  0.00    +0.000 OA
ATOM     17  O   UNL     1       3.490   1.442  18.163  0.00  0.00    +0.000 OA
BRANCH  15  19
ATOM     18  C   UNL     1       2.311   2.906  21.510  0.00  0.00    +0.000 C 
ATOM     19  N   UNL     1       2.207   2.324  20.150  0.00  0.00    +0.000 NA
ATOM     20  C   UNL     1       1.101   2.961  19.392  0.00  0.00    +0.000 C 
ENDBRANCH  15  19
ENDBRANCH  13  15
ENDBRANCH  12  13
ENDBRANCH   1  12
TORSDOF 5
ENDMDL
MODEL 8
REMARK VINA RESULT:      -6.6      5.121      7.904
REMARK  Name = 
REMARK  7 active torsions:
REMARK  status: ('A' for Active; 'I' for Inactive)
REMARK    1  A    between atoms: C_1  and  N_2
REMARK    2  A    between atoms: N_2  and  C_3
REMARK    3  A    between atoms: N_2  and  S_4
REMARK    4  A    between atoms: S_4  and  N_7
REMARK    5  A    between atoms: N_7  and  C_8
REMARK    6  A    between atoms: C_8  and  C_9
REMARK    7  A    between atoms: C_13  and  C_14
REMARK                            x       y       z     vdW  Elec       q    Type
REMARK                         _______ _______ _______ _____ _____    ______ ____
ROOT
ATOM      1  C   UNL     1       5.947   4.819  18.015  0.00  0.00    +0.000 A 
ATOM      2  C   UNL     1       6.687   5.949  18.365  0.00  0.00    +0.000 A 
ATOM      3  C   UNL     1       7.398   6.605  17.374  0.00  0.00    +0.000 A 
ATOM      4  N   UNL     1       7.415   6.226  16.078  0.00  0.00    +0.000 NA
ATOM      5  C   UNL     1       6.694   5.129  15.748  0.00  0.00    +0.000 A 
ATOM      6  C   UNL     1       5.926   4.431  16.671  0.00  0.00    +0.000 A 
ENDROOT
BRANCH   5   7
ATOM      7  C   UNL     1       6.738   4.705  14.353  0.00  0.00    +0.000 A 
ATOM      8  C   UNL     1       7.629   5.147  13.317  0.00  0.00    +0.000 A 
ATOM      9  C   UNL     1       7.412   4.494  12.122  0.00  0.00    +0.000 A 
ATOM     10  S   UNL     1       6.131   3.367  12.230  0.00  0.00    +0.000 S 
ATOM     11  C   UNL     1       5.862   3.749  13.875  0.00  0.00    +0.000 A 
ENDBRANCH   5   7
BRANCH   1  12
ATOM     12  C   UNL     1       5.200   4.029  19.054  0.00  0.00    +0.000 C 
BRANCH  12  13
ATOM     13  N   UNL     1       4.190   3.078  18.520  0.00  0.00    +0.000 NA
ATOM     14  H   UNL     1       4.508   2.721  17.616  0.00  0.00    +0.000 HD
BRANCH  13  15
ATOM     15  S   UNL     1       2.673   3.758  18.259  0.00  0.00    +0.000 S 
ATOM     16  O   UNL     1       2.224   3.276  16.974  0.00  0.00    +0.000 OA
ATOM     17  O   UNL     1       2.672   5.153  18.603  0.00  0.00    +0.000 OA
BRANCH  15  19
ATOM     18  C   UNL     1       1.335   3.814  20.576  0.00  0.00    +0.000 C 
ATOM     19  N   UNL     1       1.800   2.947  19.465  0.00  0.00    +0.000 NA
ATOM     20  C   UNL     1       0.663   2.194  18.880  0.00  0.00    +0.000 C 
ENDBRANCH  15  19
ENDBRANCH  13  15
ENDBRANCH  12  13
ENDBRANCH   1  12
TORSDOF 5
ENDMDL
MODEL 9
REMARK VINA RESULT:      -6.5      4.766      7.731
REMARK  Name = 
REMARK  7 active torsions:
REMARK  status: ('A' for Active; 'I' for Inactive)
REMARK    1  A    between atoms: C_1  and  N_2
REMARK    2  A    between atoms: N_2  and  C_3
REMARK    3  A    between atoms: N_2  and  S_4
REMARK    4  A    between atoms: S_4  and  N_7
REMARK    5  A    between atoms: N_7  and  C_8
REMARK    6  A    between atoms: C_8  and  C_9
REMARK    7  A    between atoms: C_13  and  C_14
REMARK                            x       y       z     vdW  Elec       q    Type
REMARK                         _______ _______ _______ _____ _____    ______ ____
ROOT
ATOM      1  C   UNL     1       5.128   5.548  17.801  0.00  0.00    +0.000 A 
ATOM      2  C   UNL     1       6.260   5.378  18.598  0.00  0.00    +0.000 A 
ATOM      3  C   UNL     1       7.432   4.950  17.996  0.00  0.00    +0.000 A 
ATOM      4  N   UNL     1       7.554   4.693  16.676  0.00  0.00    +0.000 NA
ATOM      5  C   UNL     1       6.450   4.861  15.911  0.00  0.00    +0.000 A 
ATOM      6  C   UNL     1       5.245   5.318  16.426  0.00  0.00    +0.000 A 
ENDROOT
BRANCH   5   7
ATOM      7  C   UNL     1       6.578   4.554  14.491  0.00  0.00    +0.000 A 
ATOM      8  C   UNL     1       7.550   5.050  13.557  0.00  0.00    +0.000 A 
ATOM      9  C   UNL     1       7.396   4.508  12.299  0.00  0.00    +0.000 A 
ATOM     10  S   UNL     1       6.078   3.423  12.225  0.00  0.00    +0.000 S 
ATOM     11  C   UNL     1       5.708   3.674  13.875  0.00  0.00    +0.000 A 
ENDBRANCH   5   7
BRANCH   1  12
ATOM     12  C   UNL     1       3.811   5.955  18.403  0.00  0.00    +0.000 C 
BRANCH  12  13
ATOM     13  N   UNL     1       3.349   5.116  19.540  0.00  0.00    +0.000 NA
ATOM     14  H   UNL     1       4.092   4.464  19.802  0.00  0.00    +0.000 HD
BRANCH  13  15
ATOM     15  S   UNL     1       1.992   4.181  19.200  0.00  0.00    +0.000 S 
ATOM     16  O   UNL     1       1.620   4.481  17.837  0.00  0.00    +0.000 OA
ATOM     17  O   UNL     1       1.051   4.231  20.285  0.00  0.00    +0.000 OA
BRANCH  15  19
ATOM     18  C   UNL     1       3.079   2.113  17.896  0.00  0.00    +0.000 C 
ATOM     19  N   UNL     1       2.705   2.644  19.229  0.00  0.00    +0.000 NA
ATOM     20  C   UNL     1       3.872   2.620  20.147  0.00  0.00    +0.000 C 
ENDBRANCH  15  19
ENDBRANCH  13  15
ENDBRANCH  12  13
ENDBRANCH   1  12
TORSDOF 5
ENDMDL
