MODEL 1
REMARK VINA RESULT:      -7.2      0.000      0.000
REMARK  Name = 
REMARK  10 active torsions:
REMARK  status: ('A' for Active; 'I' for Inactive)
REMARK    1  A    between atoms: C_1  and  C_2
REMARK    2  A    between atoms: C_2  and  N_3
REMARK    3  A    between atoms: C_4  and  C_5
REMARK    4  A    between atoms: C_5  and  O_6
REMARK    5  A    between atoms: C_5  and  C_7
REMARK    6  A    between atoms: C_5  and  C_13
REMARK    7  A    between atoms: C_24  and  O_25
REMARK    8  A    between atoms: O_25  and  C_26
REMARK    9  A    between atoms: C_26  and  C_27
REMARK   10  A    between atoms: C_27  and  O_28
REMARK                            x       y       z     vdW  Elec       q    Type
REMARK                         _______ _______ _______ _____ _____    ______ ____
ROOT
ATOM      1  N   UNL     1       2.659   6.718  19.703  0.00  0.00    +0.000 N 
ATOM      2  C   UNL     1       3.444   6.376  18.607  0.00  0.00    +0.000 A 
ATOM      3  N   UNL     1       3.381   7.359  17.707  0.00  0.00    +0.000 NA
ATOM      4  C   UNL     1       2.529   8.306  18.196  0.00  0.00    +0.000 A 
ATOM      5  C   UNL     1       2.128   9.516  17.629  0.00  0.00    +0.000 A 
ATOM      6  C   UNL     1       1.218  10.253  18.368  0.00  0.00    +0.000 A 
ATOM      7  N   UNL     1       0.704   9.874  19.564  0.00  0.00    +0.000 NA
ATOM      8  C   UNL     1       1.111   8.705  20.110  0.00  0.00    +0.000 A 
ATOM      9  C   UNL     1       2.038   7.924  19.430  0.00  0.00    +0.000 A 
ENDROOT
BRANCH   1  11
ATOM     10  C   UNL     1       1.307   4.996  20.857  0.00  0.00    +0.000 C 
ATOM     11  C   UNL     1       2.459   5.991  20.946  0.00  0.00    +0.000 C 
ENDBRANCH   1  11
BRANCH   2  12
ATOM     12  C   UNL     1       4.263   5.064  18.394  0.00  0.00    +0.000 C 
BRANCH  12  13
ATOM     13  C   UNL     1       3.332   3.824  18.454  0.00  0.00    +0.000 A 
ATOM     14  C   UNL     1       2.054   3.871  17.866  0.00  0.00    +0.000 A 
ATOM     15  C   UNL     1       1.159   2.804  17.980  0.00  0.00    +0.000 A 
ATOM     16  C   UNL     1       1.518   1.659  18.683  0.00  0.00    +0.000 A 
ATOM     17  C   UNL     1       2.785   1.569  19.247  0.00  0.00    +0.000 A 
ATOM     18  C   UNL     1       3.688   2.628  19.119  0.00  0.00    +0.000 A 
ENDBRANCH  12  13
BRANCH  12  19
ATOM     19  C   UNL     1       5.138   5.090  17.124  0.00  0.00    +0.000 A 
ATOM     20  C   UNL     1       4.732   4.391  15.968  0.00  0.00    +0.000 A 
ATOM     21  C   UNL     1       5.527   4.354  14.819  0.00  0.00    +0.000 A 
ATOM     22  C   UNL     1       6.739   5.034  14.790  0.00  0.00    +0.000 A 
ATOM     23  C   UNL     1       7.146   5.766  15.901  0.00  0.00    +0.000 A 
ATOM     24  C   UNL     1       6.352   5.800  17.051  0.00  0.00    +0.000 A 
ENDBRANCH  12  19
BRANCH  12  25
ATOM     25  O   UNL     1       5.194   4.982  19.485  0.00  0.00    +0.000 OA
ATOM     26  H   UNL     1       5.520   4.076  19.491  0.00  0.00    +0.000 HD
ENDBRANCH  12  25
ENDBRANCH   2  12
BRANCH   8  27
ATOM     27  O   UNL     1       0.649   8.323  21.345  0.00  0.00    +0.000 OA
BRANCH  27  28
ATOM     28  C   UNL     1       1.065   9.191  22.403  0.00  0.00    +0.000 C 
BRANCH  28  29
ATOM     29  C   UNL     1      -0.202   9.581  23.162  0.00  0.00    +0.000 C 
BRANCH  29  30
ATOM     30  O   UNL     1      -0.394  10.996  23.131  0.00  0.00    +0.000 OA
ATOM     31  H   UNL     1       0.484  11.394  23.281  0.00  0.00    +0.000 HD
ENDBRANCH  29  30
ENDBRANCH  28  29
ENDBRANCH  27  28
ENDBRANCH   8  27
TORSDOF 9
ENDMDL
MODEL 2
REMARK VINA RESULT:      -7.0      1.395      3.643
REMARK  Name = 
REMARK  10 active torsions:
REMARK  status: ('A' for Active; 'I' for Inactive)
REMARK    1  A    between atoms: C_1  and  C_2
REMARK    2  A    between atoms: C_2  and  N_3
REMARK    3  A    between atoms: C_4  and  C_5
REMARK    4  A    between atoms: C_5  and  O_6
REMARK    5  A    between atoms: C_5  and  C_7
REMARK    6  A    between atoms: C_5  and  C_13
REMARK    7  A    between atoms: C_24  and  O_25
REMARK    8  A    between atoms: O_25  and  C_26
REMARK    9  A    between atoms: C_26  and  C_27
REMARK   10  A    between atoms: C_27  and  O_28
REMARK                            x       y       z     vdW  Elec       q    Type
REMARK                         _______ _______ _______ _____ _____    ______ ____
ROOT
ATOM      1  N   UNL     1       2.660   7.072  19.339  0.00  0.00    +0.000 N 
ATOM      2  C   UNL     1       3.272   6.938  18.098  0.00  0.00    +0.000 A 
ATOM      3  N   UNL     1       2.947   7.987  17.341  0.00  0.00    +0.000 NA
ATOM      4  C   UNL     1       2.098   8.769  18.069  0.00  0.00    +0.000 A 
ATOM      5  C   UNL     1       1.477   9.968  17.720  0.00  0.00    +0.000 A 
ATOM      6  C   UNL     1       0.637  10.510  18.679  0.00  0.00    +0.000 A 
ATOM      7  N   UNL     1       0.384   9.957  19.890  0.00  0.00    +0.000 NA
ATOM      8  C   UNL     1       1.004   8.801  20.222  0.00  0.00    +0.000 A 
ATOM      9  C   UNL     1       1.875   8.211  19.314  0.00  0.00    +0.000 A 
ENDROOT
BRANCH   1  11
ATOM     10  C   UNL     1       1.578   5.253  20.623  0.00  0.00    +0.000 C 
ATOM     11  C   UNL     1       2.760   6.209  20.506  0.00  0.00    +0.000 C 
ENDBRANCH   1  11
BRANCH   2  12
ATOM     12  C   UNL     1       4.176   5.766  17.603  0.00  0.00    +0.000 C 
BRANCH  12  13
ATOM     13  C   UNL     1       5.647   5.985  18.047  0.00  0.00    +0.000 A 
ATOM     14  C   UNL     1       6.142   5.339  19.195  0.00  0.00    +0.000 A 
ATOM     15  C   UNL     1       7.432   5.584  19.671  0.00  0.00    +0.000 A 
ATOM     16  C   UNL     1       8.265   6.481  19.011  0.00  0.00    +0.000 A 
ATOM     17  C   UNL     1       7.817   7.110  17.856  0.00  0.00    +0.000 A 
ATOM     18  C   UNL     1       6.533   6.852  17.368  0.00  0.00    +0.000 A 
ENDBRANCH  12  13
BRANCH  12  19
ATOM     19  C   UNL     1       3.638   4.374  17.994  0.00  0.00    +0.000 A 
ATOM     20  C   UNL     1       2.372   3.949  17.538  0.00  0.00    +0.000 A 
ATOM     21  C   UNL     1       1.836   2.714  17.916  0.00  0.00    +0.000 A 
ATOM     22  C   UNL     1       2.563   1.864  18.742  0.00  0.00    +0.000 A 
ATOM     23  C   UNL     1       3.832   2.239  19.173  0.00  0.00    +0.000 A 
ATOM     24  C   UNL     1       4.366   3.476  18.798  0.00  0.00    +0.000 A 
ENDBRANCH  12  19
BRANCH  12  25
ATOM     25  O   UNL     1       4.131   5.792  16.168  0.00  0.00    +0.000 OA
ATOM     26  H   UNL     1       3.319   6.252  15.934  0.00  0.00    +0.000 HD
ENDBRANCH  12  25
ENDBRANCH   2  12
BRANCH   8  27
ATOM     27  O   UNL     1       0.810   8.246  21.463  0.00  0.00    +0.000 OA
BRANCH  27  28
ATOM     28  C   UNL     1      -0.449   8.588  22.050  0.00  0.00    +0.000 C 
BRANCH  28  29
ATOM     29  C   UNL     1      -0.135   9.460  23.264  0.00  0.00    +0.000 C 
BRANCH  29  30
ATOM     30  O   UNL     1       0.017  10.827  22.878  0.00  0.00    +0.000 OA
ATOM     31  H   UNL     1       0.782  10.857  22.274  0.00  0.00    +0.000 HD
ENDBRANCH  29  30
ENDBRANCH  28  29
ENDBRANCH  27  28
ENDBRANCH   8  27
TORSDOF 9
ENDMDL
MODEL 3
REMARK VINA RESULT:      -6.9      1.206      3.555
REMARK  Name = 
REMARK  10 active torsions:
REMARK  status: ('A' for Active; 'I' for Inactive)
REMARK    1  A    between atoms: C_1  and  C_2
REMARK    2  A    between atoms: C_2  and  N_3
REMARK    3  A    between atoms: C_4  and  C_5
REMARK    4  A    between atoms: C_5  and  O_6
REMARK    5  A    between atoms: C_5  and  C_7
REMARK    6  A    between atoms: C_5  and  C_13
REMARK    7  A    between atoms: C_24  and  O_25
REMARK    8  A    between atoms: O_25  and  C_26
REMARK    9  A    between atoms: C_26  and  C_27
REMARK   10  A    between atoms: C_27  and  O_28
REMARK                            x       y       z     vdW  Elec       q    Type
REMARK                         _______ _______ _______ _____ _____    ______ ____
ROOT
ATOM      1  N   UNL     1       2.646   6.734  19.409  0.00  0.00    +0.000 N 
ATOM      2  C   UNL     1       3.241   6.486  18.177  0.00  0.00    +0.000 A 
ATOM      3  N   UNL     1       3.108   7.568  17.408  0.00  0.00    +0.000 NA
ATOM      4  C   UNL     1       2.395   8.490  18.120  0.00  0.00    +0.000 A 
ATOM      5  C   UNL     1       1.992   9.774  17.753  0.00  0.00    +0.000 A 
ATOM      6  C   UNL     1       1.245  10.460  18.697  0.00  0.00    +0.000 A 
ATOM      7  N   UNL     1       0.889   9.970  19.909  0.00  0.00    +0.000 NA
ATOM      8  C   UNL     1       1.298   8.728  20.258  0.00  0.00    +0.000 A 
ATOM      9  C   UNL     1       2.067   7.990  19.365  0.00  0.00    +0.000 A 
ENDROOT
BRANCH   1  11
ATOM     10  C   UNL     1       1.260   5.132  20.688  0.00  0.00    +0.000 C 
ATOM     11  C   UNL     1       2.585   5.878  20.583  0.00  0.00    +0.000 C 
ENDBRANCH   1  11
BRANCH   2  12
ATOM     12  C   UNL     1       3.938   5.173  17.703  0.00  0.00    +0.000 C 
BRANCH  12  13
ATOM     13  C   UNL     1       5.447   5.195  18.061  0.00  0.00    +0.000 A 
ATOM     14  C   UNL     1       6.391   4.642  17.176  0.00  0.00    +0.000 A 
ATOM     15  C   UNL     1       7.746   4.565  17.508  0.00  0.00    +0.000 A 
ATOM     16  C   UNL     1       8.195   5.043  18.735  0.00  0.00    +0.000 A 
ATOM     17  C   UNL     1       7.293   5.625  19.617  0.00  0.00    +0.000 A 
ATOM     18  C   UNL     1       5.940   5.717  19.278  0.00  0.00    +0.000 A 
ENDBRANCH  12  13
BRANCH  12  19
ATOM     19  C   UNL     1       3.228   3.894  18.194  0.00  0.00    +0.000 A 
ATOM     20  C   UNL     1       1.910   3.610  17.778  0.00  0.00    +0.000 A 
ATOM     21  C   UNL     1       1.222   2.486  18.245  0.00  0.00    +0.000 A 
ATOM     22  C   UNL     1       1.844   1.606  19.124  0.00  0.00    +0.000 A 
ATOM     23  C   UNL     1       3.158   1.839  19.519  0.00  0.00    +0.000 A 
ATOM     24  C   UNL     1       3.844   2.965  19.054  0.00  0.00    +0.000 A 
ENDBRANCH  12  19
BRANCH  12  25
ATOM     25  O   UNL     1       3.816   5.139  16.272  0.00  0.00    +0.000 OA
ATOM     26  H   UNL     1       3.543   6.022  16.005  0.00  0.00    +0.000 HD
ENDBRANCH  12  25
ENDBRANCH   2  12
BRANCH   8  27
ATOM     27  O   UNL     1       0.999   8.227  21.501  0.00  0.00    +0.000 OA
BRANCH  27  28
ATOM     28  C   UNL     1      -0.288   8.625  21.981  0.00  0.00    +0.000 C 
BRANCH  28  29
ATOM     29  C   UNL     1      -0.038   9.476  23.225  0.00  0.00    +0.000 C 
BRANCH  29  30
ATOM     30  O   UNL     1      -0.116  10.866  22.910  0.00  0.00    +0.000 OA
ATOM     31  H   UNL     1      -0.757  11.253  23.536  0.00  0.00    +0.000 HD
ENDBRANCH  29  30
ENDBRANCH  28  29
ENDBRANCH  27  28
ENDBRANCH   8  27
TORSDOF 9
ENDMDL
MODEL 4
REMARK VINA RESULT:      -6.9      2.826      6.043
REMARK  Name = 
REMARK  10 active torsions:
REMARK  status: ('A' for Active; 'I' for Inactive)
REMARK    1  A    between atoms: C_1  and  C_2
REMARK    2  A    between atoms: C_2  and  N_3
REMARK    3  A    between atoms: C_4  and  C_5
REMARK    4  A    between atoms: C_5  and  O_6
REMARK    5  A    between atoms: C_5  and  C_7
REMARK    6  A    between atoms: C_5  and  C_13
REMARK    7  A    between atoms: C_24  and  O_25
REMARK    8  A    between atoms: O_25  and  C_26
REMARK    9  A    between atoms: C_26  and  C_27
REMARK   10  A    between atoms: C_27  and  O_28
REMARK                            x       y       z     vdW  Elec       q    Type
REMARK                         _______ _______ _______ _____ _____    ______ ____
ROOT
ATOM      1  N   UNL     1       4.952   5.417  17.667  0.00  0.00    +0.000 N 
ATOM      2  C   UNL     1       3.704   4.868  17.390  0.00  0.00    +0.000 A 
ATOM      3  N   UNL     1       3.758   4.249  16.210  0.00  0.00    +0.000 NA
ATOM      4  C   UNL     1       5.013   4.433  15.708  0.00  0.00    +0.000 A 
ATOM      5  C   UNL     1       5.562   3.987  14.505  0.00  0.00    +0.000 A 
ATOM      6  C   UNL     1       6.872   4.368  14.266  0.00  0.00    +0.000 A 
ATOM      7  N   UNL     1       7.621   5.130  15.098  0.00  0.00    +0.000 NA
ATOM      8  C   UNL     1       7.083   5.545  16.268  0.00  0.00    +0.000 A 
ATOM      9  C   UNL     1       5.778   5.183  16.581  0.00  0.00    +0.000 A 
ENDROOT
BRANCH   1  11
ATOM     10  C   UNL     1       6.389   5.333  19.680  0.00  0.00    +0.000 C 
ATOM     11  C   UNL     1       5.392   6.136  18.852  0.00  0.00    +0.000 C 
ENDBRANCH   1  11
BRANCH   2  12
ATOM     12  C   UNL     1       2.412   4.954  18.261  0.00  0.00    +0.000 C 
BRANCH  12  13
ATOM     13  C   UNL     1       2.456   3.910  19.408  0.00  0.00    +0.000 A 
ATOM     14  C   UNL     1       1.313   3.676  20.195  0.00  0.00    +0.000 A 
ATOM     15  C   UNL     1       1.345   2.809  21.290  0.00  0.00    +0.000 A 
ATOM     16  C   UNL     1       2.522   2.150  21.628  0.00  0.00    +0.000 A 
ATOM     17  C   UNL     1       3.659   2.333  20.851  0.00  0.00    +0.000 A 
ATOM     18  C   UNL     1       3.623   3.187  19.745  0.00  0.00    +0.000 A 
ENDBRANCH  12  13
BRANCH  12  19
ATOM     19  C   UNL     1       2.110   6.380  18.766  0.00  0.00    +0.000 A 
ATOM     20  C   UNL     1       1.911   6.618  20.142  0.00  0.00    +0.000 A 
ATOM     21  C   UNL     1       1.586   7.889  20.625  0.00  0.00    +0.000 A 
ATOM     22  C   UNL     1       1.473   8.959  19.744  0.00  0.00    +0.000 A 
ATOM     23  C   UNL     1       1.704   8.762  18.386  0.00  0.00    +0.000 A 
ATOM     24  C   UNL     1       2.026   7.490  17.904  0.00  0.00    +0.000 A 
ENDBRANCH  12  19
BRANCH  12  25
ATOM     25  O   UNL     1       1.313   4.625  17.396  0.00  0.00    +0.000 OA
ATOM     26  H   UNL     1       0.633   5.284  17.565  0.00  0.00    +0.000 HD
ENDBRANCH  12  25
ENDBRANCH   2  12
BRANCH   8  27
ATOM     27  O   UNL     1       7.837   6.272  17.156  0.00  0.00    +0.000 OA
BRANCH  27  28
ATOM     28  C   UNL     1       7.626   7.683  17.062  0.00  0.00    +0.000 C 
BRANCH  28  29
ATOM     29  C   UNL     1       8.289   8.300  18.292  0.00  0.00    +0.000 C 
BRANCH  29  30
ATOM     30  O   UNL     1       8.549   9.688  18.082  0.00  0.00    +0.000 OA
ATOM     31  H   UNL     1       9.448   9.744  17.708  0.00  0.00    +0.000 HD
ENDBRANCH  29  30
ENDBRANCH  28  29
ENDBRANCH  27  28
ENDBRANCH   8  27
TORSDOF 9
ENDMDL
MODEL 5
REMARK VINA RESULT:      -6.8      0.228      1.282
REMARK  Name = 
REMARK  10 active torsions:
REMARK  status: ('A' for Active; 'I' for Inactive)
REMARK    1  A    between atoms: C_1  and  C_2
REMARK    2  A    between atoms: C_2  and  N_3
REMARK    3  A    between atoms: C_4  and  C_5
REMARK    4  A    between atoms: C_5  and  O_6
REMARK    5  A    between atoms: C_5  and  C_7
REMARK    6  A    between atoms: C_5  and  C_13
REMARK    7  A    between atoms: C_24  and  O_25
REMARK    8  A    between atoms: O_25  and  C_26
REMARK    9  A    between atoms: C_26  and  C_27
REMARK   10  A    between atoms: C_27  and  O_28
REMARK                            x       y       z     vdW  Elec       q    Type
REMARK                         _______ _______ _______ _____ _____    ______ ____
ROOT
ATOM      1  N   UNL     1       2.665   6.704  19.697  0.00  0.00    +0.000 N 
ATOM      2  C   UNL     1       3.468   6.363  18.614  0.00  0.00    +0.000 A 
ATOM      3  N   UNL     1       3.418   7.346  17.713  0.00  0.00    +0.000 NA
ATOM      4  C   UNL     1       2.557   8.292  18.188  0.00  0.00    +0.000 A 
ATOM      5  C   UNL     1       2.164   9.501  17.614  0.00  0.00    +0.000 A 
ATOM      6  C   UNL     1       1.240  10.237  18.338  0.00  0.00    +0.000 A 
ATOM      7  N   UNL     1       0.708   9.858  19.525  0.00  0.00    +0.000 NA
ATOM      8  C   UNL     1       1.107   8.690  20.078  0.00  0.00    +0.000 A 
ATOM      9  C   UNL     1       2.046   7.910  19.413  0.00  0.00    +0.000 A 
ENDROOT
BRANCH   1  11
ATOM     10  C   UNL     1       1.284   4.995  20.836  0.00  0.00    +0.000 C 
ATOM     11  C   UNL     1       2.445   5.978  20.937  0.00  0.00    +0.000 C 
ENDBRANCH   1  11
BRANCH   2  12
ATOM     12  C   UNL     1       4.292   5.052  18.415  0.00  0.00    +0.000 C 
BRANCH  12  13
ATOM     13  C   UNL     1       3.372   3.807  18.526  0.00  0.00    +0.000 A 
ATOM     14  C   UNL     1       3.844   2.634  19.146  0.00  0.00    +0.000 A 
ATOM     15  C   UNL     1       3.075   1.469  19.183  0.00  0.00    +0.000 A 
ATOM     16  C   UNL     1       1.810   1.444  18.604  0.00  0.00    +0.000 A 
ATOM     17  C   UNL     1       1.303   2.596  18.014  0.00  0.00    +0.000 A 
ATOM     18  C   UNL     1       2.065   3.767  17.992  0.00  0.00    +0.000 A 
ENDBRANCH  12  13
BRANCH  12  19
ATOM     19  C   UNL     1       5.138   5.054  17.126  0.00  0.00    +0.000 A 
ATOM     20  C   UNL     1       6.387   5.710  17.097  0.00  0.00    +0.000 A 
ATOM     21  C   UNL     1       7.154   5.771  15.931  0.00  0.00    +0.000 A 
ATOM     22  C   UNL     1       6.701   5.159  14.767  0.00  0.00    +0.000 A 
ATOM     23  C   UNL     1       5.492   4.469  14.776  0.00  0.00    +0.000 A 
ATOM     24  C   UNL     1       4.724   4.411  15.943  0.00  0.00    +0.000 A 
ENDBRANCH  12  19
BRANCH  12  25
ATOM     25  O   UNL     1       5.247   5.003  19.487  0.00  0.00    +0.000 OA
ATOM     26  H   UNL     1       5.847   5.742  19.345  0.00  0.00    +0.000 HD
ENDBRANCH  12  25
ENDBRANCH   2  12
BRANCH   8  27
ATOM     27  O   UNL     1       0.626   8.308  21.306  0.00  0.00    +0.000 OA
BRANCH  27  28
ATOM     28  C   UNL     1       1.035   9.168  22.372  0.00  0.00    +0.000 C 
BRANCH  28  29
ATOM     29  C   UNL     1      -0.246   9.693  23.017  0.00  0.00    +0.000 C 
BRANCH  29  30
ATOM     30  O   UNL     1      -0.812  10.744  22.234  0.00  0.00    +0.000 OA
ATOM     31  H   UNL     1      -1.605  11.047  22.714  0.00  0.00    +0.000 HD
ENDBRANCH  29  30
ENDBRANCH  28  29
ENDBRANCH  27  28
ENDBRANCH   8  27
TORSDOF 9
ENDMDL
MODEL 6
REMARK VINA RESULT:      -6.8      2.630      5.259
REMARK  Name = 
REMARK  10 active torsions:
REMARK  status: ('A' for Active; 'I' for Inactive)
REMARK    1  A    between atoms: C_1  and  C_2
REMARK    2  A    between atoms: C_2  and  N_3
REMARK    3  A    between atoms: C_4  and  C_5
REMARK    4  A    between atoms: C_5  and  O_6
REMARK    5  A    between atoms: C_5  and  C_7
REMARK    6  A    between atoms: C_5  and  C_13
REMARK    7  A    between atoms: C_24  and  O_25
REMARK    8  A    between atoms: O_25  and  C_26
REMARK    9  A    between atoms: C_26  and  C_27
REMARK   10  A    between atoms: C_27  and  O_28
REMARK                            x       y       z     vdW  Elec       q    Type
REMARK                         _______ _______ _______ _____ _____    ______ ____
ROOT
ATOM      1  N   UNL     1       3.466   5.487  17.745  0.00  0.00    +0.000 N 
ATOM      2  C   UNL     1       4.329   5.041  16.750  0.00  0.00    +0.000 A 
ATOM      3  N   UNL     1       4.066   3.758  16.495  0.00  0.00    +0.000 NA
ATOM      4  C   UNL     1       3.074   3.367  17.346  0.00  0.00    +0.000 A 
ATOM      5  C   UNL     1       2.456   2.123  17.476  0.00  0.00    +0.000 A 
ATOM      6  C   UNL     1       1.491   2.033  18.467  0.00  0.00    +0.000 A 
ATOM      7  N   UNL     1       1.133   3.045  19.293  0.00  0.00    +0.000 NA
ATOM      8  C   UNL     1       1.730   4.251  19.148  0.00  0.00    +0.000 A 
ATOM      9  C   UNL     1       2.695   4.416  18.161  0.00  0.00    +0.000 A 
ENDROOT
BRANCH   1  11
ATOM     10  C   UNL     1       2.260   7.645  17.623  0.00  0.00    +0.000 C 
ATOM     11  C   UNL     1       3.339   6.819  18.314  0.00  0.00    +0.000 C 
ENDBRANCH   1  11
BRANCH   2  12
ATOM     12  C   UNL     1       5.456   5.848  16.034  0.00  0.00    +0.000 C 
BRANCH  12  13
ATOM     13  C   UNL     1       6.565   6.251  17.042  0.00  0.00    +0.000 A 
ATOM     14  C   UNL     1       7.037   5.316  17.983  0.00  0.00    +0.000 A 
ATOM     15  C   UNL     1       7.969   5.672  18.961  0.00  0.00    +0.000 A 
ATOM     16  C   UNL     1       8.457   6.973  19.024  0.00  0.00    +0.000 A 
ATOM     17  C   UNL     1       8.036   7.910  18.089  0.00  0.00    +0.000 A 
ATOM     18  C   UNL     1       7.117   7.550  17.099  0.00  0.00    +0.000 A 
ENDBRANCH  12  13
BRANCH  12  19
ATOM     19  C   UNL     1       6.018   5.137  14.785  0.00  0.00    +0.000 A 
ATOM     20  C   UNL     1       7.303   5.460  14.303  0.00  0.00    +0.000 A 
ATOM     21  C   UNL     1       7.820   4.870  13.145  0.00  0.00    +0.000 A 
ATOM     22  C   UNL     1       7.070   3.925  12.453  0.00  0.00    +0.000 A 
ATOM     23  C   UNL     1       5.815   3.556  12.929  0.00  0.00    +0.000 A 
ATOM     24  C   UNL     1       5.299   4.150  14.085  0.00  0.00    +0.000 A 
ENDBRANCH  12  19
BRANCH  12  25
ATOM     25  O   UNL     1       4.845   7.048  15.534  0.00  0.00    +0.000 OA
ATOM     26  H   UNL     1       4.262   7.363  16.232  0.00  0.00    +0.000 HD
ENDBRANCH  12  25
ENDBRANCH   2  12
BRANCH   8  27
ATOM     27  O   UNL     1       1.348   5.309  19.935  0.00  0.00    +0.000 OA
BRANCH  27  28
ATOM     28  C   UNL     1       1.737   5.172  21.304  0.00  0.00    +0.000 C 
BRANCH  28  29
ATOM     29  C   UNL     1       2.774   4.051  21.346  0.00  0.00    +0.000 C 
BRANCH  29  30
ATOM     30  O   UNL     1       2.368   3.022  22.249  0.00  0.00    +0.000 OA
ATOM     31  H   UNL     1       3.089   2.366  22.257  0.00  0.00    +0.000 HD
ENDBRANCH  29  30
ENDBRANCH  28  29
ENDBRANCH  27  28
ENDBRANCH   8  27
TORSDOF 9
ENDMDL
MODEL 7
REMARK VINA RESULT:      -6.6      3.008      5.423
REMARK  Name = 
REMARK  10 active torsions:
REMARK  status: ('A' for Active; 'I' for Inactive)
REMARK    1  A    between atoms: C_1  and  C_2
REMARK    2  A    between atoms: C_2  and  N_3
REMARK    3  A    between atoms: C_4  and  C_5
REMARK    4  A    between atoms: C_5  and  O_6
REMARK    5  A    between atoms: C_5  and  C_7
REMARK    6  A    between atoms: C_5  and  C_13
REMARK    7  A    between atoms: C_24  and  O_25
REMARK    8  A    between atoms: O_25  and  C_26
REMARK    9  A    between atoms: C_26  and  C_27
REMARK   10  A    between atoms: C_27  and  O_28
REMARK                            x       y       z     vdW  Elec       q    Type
REMARK                         _______ _______ _______ _____ _____    ______ ____
ROOT
ATOM      1  N   UNL     1       3.332   4.886  17.568  0.00  0.00    +0.000 N 
ATOM      2  C   UNL     1       4.504   4.655  16.856  0.00  0.00    +0.000 A 
ATOM      3  N   UNL     1       4.788   3.352  16.905  0.00  0.00    +0.000 NA
ATOM      4  C   UNL     1       3.835   2.755  17.678  0.00  0.00    +0.000 A 
ATOM      5  C   UNL     1       3.695   1.413  18.034  0.00  0.00    +0.000 A 
ATOM      6  C   UNL     1       2.626   1.122  18.866  0.00  0.00    +0.000 A 
ATOM      7  N   UNL     1       1.745   2.034  19.343  0.00  0.00    +0.000 NA
ATOM      8  C   UNL     1       1.883   3.330  18.979  0.00  0.00    +0.000 A 
ATOM      9  C   UNL     1       2.924   3.690  18.131  0.00  0.00    +0.000 A 
ENDROOT
BRANCH   1  11
ATOM     10  C   UNL     1       3.136   6.947  18.925  0.00  0.00    +0.000 C 
ATOM     11  C   UNL     1       2.604   6.132  17.751  0.00  0.00    +0.000 C 
ENDBRANCH   1  11
BRANCH   2  12
ATOM     12  C   UNL     1       5.397   5.705  16.125  0.00  0.00    +0.000 C 
BRANCH  12  13
ATOM     13  C   UNL     1       6.435   6.315  17.104  0.00  0.00    +0.000 A 
ATOM     14  C   UNL     1       6.851   7.651  16.949  0.00  0.00    +0.000 A 
ATOM     15  C   UNL     1       7.849   8.203  17.757  0.00  0.00    +0.000 A 
ATOM     16  C   UNL     1       8.456   7.434  18.744  0.00  0.00    +0.000 A 
ATOM     17  C   UNL     1       8.044   6.123  18.944  0.00  0.00    +0.000 A 
ATOM     18  C   UNL     1       7.034   5.575  18.148  0.00  0.00    +0.000 A 
ENDBRANCH  12  13
BRANCH  12  19
ATOM     19  C   UNL     1       6.044   5.162  14.834  0.00  0.00    +0.000 A 
ATOM     20  C   UNL     1       5.353   4.230  14.031  0.00  0.00    +0.000 A 
ATOM     21  C   UNL     1       5.932   3.683  12.883  0.00  0.00    +0.000 A 
ATOM     22  C   UNL     1       7.211   4.070  12.496  0.00  0.00    +0.000 A 
ATOM     23  C   UNL     1       7.900   5.018  13.246  0.00  0.00    +0.000 A 
ATOM     24  C   UNL     1       7.321   5.563  14.396  0.00  0.00    +0.000 A 
ENDBRANCH  12  19
BRANCH  12  25
ATOM     25  O   UNL     1       4.520   6.755  15.687  0.00  0.00    +0.000 OA
ATOM     26  H   UNL     1       4.234   6.513  14.801  0.00  0.00    +0.000 HD
ENDBRANCH  12  25
ENDBRANCH   2  12
BRANCH   8  27
ATOM     27  O   UNL     1       0.973   4.266  19.403  0.00  0.00    +0.000 OA
BRANCH  27  28
ATOM     28  C   UNL     1       0.845   4.334  20.826  0.00  0.00    +0.000 C 
BRANCH  28  29
ATOM     29  C   UNL     1       2.265   4.279  21.388  0.00  0.00    +0.000 C 
BRANCH  29  30
ATOM     30  O   UNL     1       2.435   3.127  22.214  0.00  0.00    +0.000 OA
ATOM     31  H   UNL     1       2.229   2.355  21.655  0.00  0.00    +0.000 HD
ENDBRANCH  29  30
ENDBRANCH  28  29
ENDBRANCH  27  28
ENDBRANCH   8  27
TORSDOF 9
ENDMDL
MODEL 8
REMARK VINA RESULT:      -6.5      2.196      4.683
REMARK  Name = 
REMARK  10 active torsions:
REMARK  status: ('A' for Active; 'I' for Inactive)
REMARK    1  A    between atoms: C_1  and  C_2
REMARK    2  A    between atoms: C_2  and  N_3
REMARK    3  A    between atoms: C_4  and  C_5
REMARK    4  A    between atoms: C_5  and  O_6
REMARK    5  A    between atoms: C_5  and  C_7
REMARK    6  A    between atoms: C_5  and  C_13
REMARK    7  A    between atoms: C_24  and  O_25
REMARK    8  A    between atoms: O_25  and  C_26
REMARK    9  A    between atoms: C_26  and  C_27
REMARK   10  A    between atoms: C_27  and  O_28
REMARK                            x       y       z     vdW  Elec       q    Type
REMARK                         _______ _______ _______ _____ _____    ______ ____
ROOT
ATOM      1  N   UNL     1       4.388   5.561  18.762  0.00  0.00    +0.000 N 
ATOM      2  C   UNL     1       5.394   4.645  18.469  0.00  0.00    +0.000 A 
ATOM      3  N   UNL     1       5.098   3.481  19.048  0.00  0.00    +0.000 NA
ATOM      4  C   UNL     1       3.937   3.652  19.744  0.00  0.00    +0.000 A 
ATOM      5  C   UNL     1       3.223   2.737  20.518  0.00  0.00    +0.000 A 
ATOM      6  C   UNL     1       2.083   3.231  21.130  0.00  0.00    +0.000 A 
ATOM      7  N   UNL     1       1.642   4.508  21.033  0.00  0.00    +0.000 NA
ATOM      8  C   UNL     1       2.336   5.383  20.268  0.00  0.00    +0.000 A 
ATOM      9  C   UNL     1       3.481   4.950  19.609  0.00  0.00    +0.000 A 
ENDROOT
BRANCH   1  11
ATOM     10  C   UNL     1       3.548   7.035  16.960  0.00  0.00    +0.000 C 
ATOM     11  C   UNL     1       4.245   6.936  18.312  0.00  0.00    +0.000 C 
ENDBRANCH   1  11
BRANCH   2  12
ATOM     12  C   UNL     1       6.689   4.889  17.634  0.00  0.00    +0.000 C 
BRANCH  12  13
ATOM     13  C   UNL     1       6.433   4.600  16.131  0.00  0.00    +0.000 A 
ATOM     14  C   UNL     1       7.433   4.874  15.179  0.00  0.00    +0.000 A 
ATOM     15  C   UNL     1       7.202   4.710  13.811  0.00  0.00    +0.000 A 
ATOM     16  C   UNL     1       5.966   4.264  13.357  0.00  0.00    +0.000 A 
ATOM     17  C   UNL     1       4.969   3.953  14.274  0.00  0.00    +0.000 A 
ATOM     18  C   UNL     1       5.204   4.100  15.643  0.00  0.00    +0.000 A 
ENDBRANCH  12  13
BRANCH  12  19
ATOM     19  C   UNL     1       7.318   6.277  17.874  0.00  0.00    +0.000 A 
ATOM     20  C   UNL     1       8.146   6.496  18.996  0.00  0.00    +0.000 A 
ATOM     21  C   UNL     1       8.690   7.755  19.268  0.00  0.00    +0.000 A 
ATOM     22  C   UNL     1       8.437   8.822  18.413  0.00  0.00    +0.000 A 
ATOM     23  C   UNL     1       7.657   8.625  17.276  0.00  0.00    +0.000 A 
ATOM     24  C   UNL     1       7.111   7.366  17.007  0.00  0.00    +0.000 A 
ENDBRANCH  12  19
BRANCH  12  25
ATOM     25  O   UNL     1       7.667   3.951  18.112  0.00  0.00    +0.000 OA
ATOM     26  H   UNL     1       7.371   3.678  18.986  0.00  0.00    +0.000 HD
ENDBRANCH  12  25
ENDBRANCH   2  12
BRANCH   8  27
ATOM     27  O   UNL     1       1.882   6.669  20.106  0.00  0.00    +0.000 OA
BRANCH  27  28
ATOM     28  C   UNL     1       1.266   7.207  21.279  0.00  0.00    +0.000 C 
BRANCH  28  29
ATOM     29  C   UNL     1       1.146   8.713  21.049  0.00  0.00    +0.000 C 
BRANCH  29  30
ATOM     30  O   UNL     1       1.453   9.432  22.244  0.00  0.00    +0.000 OA
ATOM     31  H   UNL     1       0.608   9.551  22.716  0.00  0.00    +0.000 HD
ENDBRANCH  29  30
ENDBRANCH  28  29
ENDBRANCH  27  28
ENDBRANCH   8  27
TORSDOF 9
ENDMDL
MODEL 9
REMARK VINA RESULT:      -6.5      4.108      7.318
REMARK  Name = 
REMARK  10 active torsions:
REMARK  status: ('A' for Active; 'I' for Inactive)
REMARK    1  A    between atoms: C_1  and  C_2
REMARK    2  A    between atoms: C_2  and  N_3
REMARK    3  A    between atoms: C_4  and  C_5
REMARK    4  A    between atoms: C_5  and  O_6
REMARK    5  A    between atoms: C_5  and  C_7
REMARK    6  A    between atoms: C_5  and  C_13
REMARK    7  A    between atoms: C_24  and  O_25
REMARK    8  A    between atoms: O_25  and  C_26
REMARK    9  A    between atoms: C_26  and  C_27
REMARK   10  A    between atoms: C_27  and  O_28
REMARK                            x       y       z     vdW  Elec       q    Type
REMARK                         _______ _______ _______ _____ _____    ______ ____
ROOT
ATOM      1  N   UNL     1      -1.915  11.499  19.113  0.00  0.00    +0.000 N 
ATOM      2  C   UNL     1      -0.751  10.814  18.780  0.00  0.00    +0.000 A 
ATOM      3  N   UNL     1      -0.908  10.256  17.579  0.00  0.00    +0.000 NA
ATOM      4  C   UNL     1      -2.175  10.539  17.158  0.00  0.00    +0.000 A 
ATOM      5  C   UNL     1      -2.819  10.176  15.975  0.00  0.00    +0.000 A 
ATOM      6  C   UNL     1      -4.133  10.596  15.854  0.00  0.00    +0.000 A 
ATOM      7  N   UNL     1      -4.809  11.306  16.790  0.00  0.00    +0.000 NA
ATOM      8  C   UNL     1      -4.169  11.664  17.927  0.00  0.00    +0.000 A 
ATOM      9  C   UNL     1      -2.842  11.291  18.106  0.00  0.00    +0.000 A 
ENDROOT
BRANCH   1  11
ATOM     10  C   UNL     1      -1.699  13.735  20.151  0.00  0.00    +0.000 C 
ATOM     11  C   UNL     1      -2.198  12.301  20.292  0.00  0.00    +0.000 C 
ENDBRANCH   1  11
BRANCH   2  12
ATOM     12  C   UNL     1       0.544  10.664  19.638  0.00  0.00    +0.000 C 
BRANCH  12  13
ATOM     13  C   UNL     1       1.296   9.358  19.268  0.00  0.00    +0.000 A 
ATOM     14  C   UNL     1       1.414   8.320  20.212  0.00  0.00    +0.000 A 
ATOM     15  C   UNL     1       2.160   7.169  19.941  0.00  0.00    +0.000 A 
ATOM     16  C   UNL     1       2.806   7.024  18.719  0.00  0.00    +0.000 A 
ATOM     17  C   UNL     1       2.682   8.017  17.754  0.00  0.00    +0.000 A 
ATOM     18  C   UNL     1       1.922   9.160  18.017  0.00  0.00    +0.000 A 
ENDBRANCH  12  13
BRANCH  12  19
ATOM     19  C   UNL     1       1.455  11.908  19.592  0.00  0.00    +0.000 A 
ATOM     20  C   UNL     1       1.758  12.609  20.778  0.00  0.00    +0.000 A 
ATOM     21  C   UNL     1       2.539  13.769  20.762  0.00  0.00    +0.000 A 
ATOM     22  C   UNL     1       3.054  14.244  19.561  0.00  0.00    +0.000 A 
ATOM     23  C   UNL     1       2.805  13.550  18.381  0.00  0.00    +0.000 A 
ATOM     24  C   UNL     1       2.021  12.392  18.397  0.00  0.00    +0.000 A 
ENDBRANCH  12  19
BRANCH  12  25
ATOM     25  O   UNL     1       0.118  10.566  21.006  0.00  0.00    +0.000 OA
ATOM     26  H   UNL     1      -0.288  11.411  21.222  0.00  0.00    +0.000 HD
ENDBRANCH  12  25
ENDBRANCH   2  12
BRANCH   8  27
ATOM     27  O   UNL     1      -4.811  12.431  18.868  0.00  0.00    +0.000 OA
BRANCH  27  28
ATOM     28  C   UNL     1      -5.906  11.761  19.498  0.00  0.00    +0.000 C 
BRANCH  28  29
ATOM     29  C   UNL     1      -6.004  12.331  20.912  0.00  0.00    +0.000 C 
BRANCH  29  30
ATOM     30  O   UNL     1      -6.815  11.496  21.738  0.00  0.00    +0.000 OA
ATOM     31  H   UNL     1      -7.739  11.754  21.564  0.00  0.00    +0.000 HD
ENDBRANCH  29  30
ENDBRANCH  28  29
ENDBRANCH  27  28
ENDBRANCH   8  27
TORSDOF 9
ENDMDL
