MODEL 1
REMARK VINA RESULT:      -6.0      0.000      0.000
REMARK  Name = 
REMARK  4 active torsions:
REMARK  status: ('A' for Active; 'I' for Inactive)
REMARK    1  A    between atoms: C_2  and  C_3
REMARK    2  A    between atoms: C_3  and  N_4
REMARK    3  A    between atoms: C_5  and  C_6
REMARK    4  A    between atoms: N_7  and  N_8
REMARK                            x       y       z     vdW  Elec       q    Type
REMARK                         _______ _______ _______ _____ _____    ______ ____
ROOT
ATOM      1  N   UNL     1       3.063   4.307  19.996  0.00  0.00    +0.000 N 
ATOM      2  C   UNL     1       4.124   3.542  19.653  0.00  0.00    +0.000 A 
ATOM      3  C   UNL     1       4.469   2.173  20.142  0.00  0.00    +0.000 C 
ATOM      4  N   UNL     1       4.840   4.248  18.752  0.00  0.00    +0.000 N 
ATOM      5  C   UNL     1       4.232   5.453  18.458  0.00  0.00    +0.000 A 
ATOM      6  C   UNL     1       4.583   6.488  17.595  0.00  0.00    +0.000 A 
ATOM      7  C   UNL     1       3.695   7.570  17.537  0.00  0.00    +0.000 A 
ATOM      8  C   UNL     1       2.515   7.599  18.306  0.00  0.00    +0.000 A 
ATOM      9  C   UNL     1       2.174   6.553  19.175  0.00  0.00    +0.000 A 
ATOM     10  C   UNL     1       3.070   5.487  19.239  0.00  0.00    +0.000 A 
ENDROOT
BRANCH   4  11
ATOM     11  N   UNL     1       6.106   3.835  18.198  0.00  0.00    +0.000 N 
ATOM     12  H   UNL     1       6.044   3.089  17.507  0.00  0.00    +0.000 HD
ATOM     13  H   UNL     1       6.683   4.609  17.873  0.00  0.00    +0.000 HD
ENDBRANCH   4  11
BRANCH   1  14
ATOM     14  C   UNL     1       2.072   3.967  21.016  0.00  0.00    +0.000 C 
BRANCH  14  16
ATOM     15  C   UNL     1       0.803   2.706  19.192  0.00  0.00    +0.000 C 
ATOM     16  C   UNL     1       0.908   3.233  20.423  0.00  0.00    +0.000 C 
ENDBRANCH  14  16
ENDBRANCH   1  14
TORSDOF 3
ENDMDL
MODEL 2
REMARK VINA RESULT:      -5.9      1.320      1.535
REMARK  Name = 
REMARK  4 active torsions:
REMARK  status: ('A' for Active; 'I' for Inactive)
REMARK    1  A    between atoms: C_2  and  C_3
REMARK    2  A    between atoms: C_3  and  N_4
REMARK    3  A    between atoms: C_5  and  C_6
REMARK    4  A    between atoms: N_7  and  N_8
REMARK                            x       y       z     vdW  Elec       q    Type
REMARK                         _______ _______ _______ _____ _____    ______ ____
ROOT
ATOM      1  N   UNL     1       2.383   4.055  18.538  0.00  0.00    +0.000 N 
ATOM      2  C   UNL     1       3.259   3.162  18.023  0.00  0.00    +0.000 A 
ATOM      3  C   UNL     1       3.199   1.671  18.085  0.00  0.00    +0.000 C 
ATOM      4  N   UNL     1       4.228   3.875  17.409  0.00  0.00    +0.000 N 
ATOM      5  C   UNL     1       3.972   5.231  17.472  0.00  0.00    +0.000 A 
ATOM      6  C   UNL     1       4.665   6.334  16.981  0.00  0.00    +0.000 A 
ATOM      7  C   UNL     1       4.081   7.585  17.218  0.00  0.00    +0.000 A 
ATOM      8  C   UNL     1       2.860   7.711  17.909  0.00  0.00    +0.000 A 
ATOM      9  C   UNL     1       2.173   6.593  18.404  0.00  0.00    +0.000 A 
ATOM     10  C   UNL     1       2.768   5.353  18.177  0.00  0.00    +0.000 A 
ENDROOT
BRANCH   4  11
ATOM     11  N   UNL     1       5.413   3.312  16.809  0.00  0.00    +0.000 N 
ATOM     12  H   UNL     1       5.692   3.749  15.933  0.00  0.00    +0.000 HD
ATOM     13  H   UNL     1       6.194   3.218  17.456  0.00  0.00    +0.000 HD
ENDBRANCH   4  11
BRANCH   1  14
ATOM     14  C   UNL     1       1.225   3.718  19.364  0.00  0.00    +0.000 C 
BRANCH  14  16
ATOM     15  C   UNL     1       1.948   2.854  21.656  0.00  0.00    +0.000 C 
ATOM     16  C   UNL     1       1.545   3.827  20.824  0.00  0.00    +0.000 C 
ENDBRANCH  14  16
ENDBRANCH   1  14
TORSDOF 3
ENDMDL
MODEL 3
REMARK VINA RESULT:      -5.9      1.444      4.062
REMARK  Name = 
REMARK  4 active torsions:
REMARK  status: ('A' for Active; 'I' for Inactive)
REMARK    1  A    between atoms: C_2  and  C_3
REMARK    2  A    between atoms: C_3  and  N_4
REMARK    3  A    between atoms: C_5  and  C_6
REMARK    4  A    between atoms: N_7  and  N_8
REMARK                            x       y       z     vdW  Elec       q    Type
REMARK                         _______ _______ _______ _____ _____    ______ ____
ROOT
ATOM      1  N   UNL     1       3.119   5.793  18.573  0.00  0.00    +0.000 N 
ATOM      2  C   UNL     1       4.206   5.537  17.809  0.00  0.00    +0.000 A 
ATOM      3  C   UNL     1       5.252   6.496  17.344  0.00  0.00    +0.000 C 
ATOM      4  N   UNL     1       4.189   4.214  17.537  0.00  0.00    +0.000 N 
ATOM      5  C   UNL     1       3.128   3.585  18.159  0.00  0.00    +0.000 A 
ATOM      6  C   UNL     1       2.716   2.256  18.182  0.00  0.00    +0.000 A 
ATOM      7  C   UNL     1       1.582   1.974  18.955  0.00  0.00    +0.000 A 
ATOM      8  C   UNL     1       0.907   2.983  19.669  0.00  0.00    +0.000 A 
ATOM      9  C   UNL     1       1.327   4.320  19.634  0.00  0.00    +0.000 A 
ATOM     10  C   UNL     1       2.447   4.595  18.851  0.00  0.00    +0.000 A 
ENDROOT
BRANCH   4  11
ATOM     11  N   UNL     1       5.121   3.539  16.668  0.00  0.00    +0.000 N 
ATOM     12  H   UNL     1       5.464   4.104  15.894  0.00  0.00    +0.000 HD
ATOM     13  H   UNL     1       5.878   3.071  17.164  0.00  0.00    +0.000 HD
ENDBRANCH   4  11
BRANCH   1  14
ATOM     14  C   UNL     1       2.698   7.119  19.022  0.00  0.00    +0.000 C 
BRANCH  14  16
ATOM     15  C   UNL     1       1.829   9.233  17.881  0.00  0.00    +0.000 C 
ATOM     16  C   UNL     1       2.137   7.926  17.891  0.00  0.00    +0.000 C 
ENDBRANCH  14  16
ENDBRANCH   1  14
TORSDOF 3
ENDMDL
MODEL 4
REMARK VINA RESULT:      -5.8      1.530      2.802
REMARK  Name = 
REMARK  4 active torsions:
REMARK  status: ('A' for Active; 'I' for Inactive)
REMARK    1  A    between atoms: C_2  and  C_3
REMARK    2  A    between atoms: C_3  and  N_4
REMARK    3  A    between atoms: C_5  and  C_6
REMARK    4  A    between atoms: N_7  and  N_8
REMARK                            x       y       z     vdW  Elec       q    Type
REMARK                         _______ _______ _______ _____ _____    ______ ____
ROOT
ATOM      1  N   UNL     1       3.385   3.957  19.043  0.00  0.00    +0.000 N 
ATOM      2  C   UNL     1       2.828   4.829  19.914  0.00  0.00    +0.000 A 
ATOM      3  C   UNL     1       2.137   4.528  21.203  0.00  0.00    +0.000 C 
ATOM      4  N   UNL     1       3.022   6.065  19.407  0.00  0.00    +0.000 N 
ATOM      5  C   UNL     1       3.747   6.020  18.232  0.00  0.00    +0.000 A 
ATOM      6  C   UNL     1       4.193   7.020  17.373  0.00  0.00    +0.000 A 
ATOM      7  C   UNL     1       4.937   6.595  16.264  0.00  0.00    +0.000 A 
ATOM      8  C   UNL     1       5.218   5.233  16.042  0.00  0.00    +0.000 A 
ATOM      9  C   UNL     1       4.760   4.233  16.912  0.00  0.00    +0.000 A 
ATOM     10  C   UNL     1       4.007   4.662  18.004  0.00  0.00    +0.000 A 
ENDROOT
BRANCH   4  11
ATOM     11  N   UNL     1       2.499   7.282  19.977  0.00  0.00    +0.000 N 
ATOM     12  H   UNL     1       1.725   7.148  20.624  0.00  0.00    +0.000 HD
ATOM     13  H   UNL     1       3.217   7.895  20.362  0.00  0.00    +0.000 HD
ENDBRANCH   4  11
BRANCH   1  14
ATOM     14  C   UNL     1       3.327   2.500  19.155  0.00  0.00    +0.000 C 
BRANCH  14  16
ATOM     15  C   UNL     1       0.830   2.222  18.693  0.00  0.00    +0.000 C 
ATOM     16  C   UNL     1       2.122   1.946  18.455  0.00  0.00    +0.000 C 
ENDBRANCH  14  16
ENDBRANCH   1  14
TORSDOF 3
ENDMDL
MODEL 5
REMARK VINA RESULT:      -5.8      2.665      5.016
REMARK  Name = 
REMARK  4 active torsions:
REMARK  status: ('A' for Active; 'I' for Inactive)
REMARK    1  A    between atoms: C_2  and  C_3
REMARK    2  A    between atoms: C_3  and  N_4
REMARK    3  A    between atoms: C_5  and  C_6
REMARK    4  A    between atoms: N_7  and  N_8
REMARK                            x       y       z     vdW  Elec       q    Type
REMARK                         _______ _______ _______ _____ _____    ______ ____
ROOT
ATOM      1  N   UNL     1       5.503   5.022  16.591  0.00  0.00    +0.000 N 
ATOM      2  C   UNL     1       6.370   5.603  17.451  0.00  0.00    +0.000 A 
ATOM      3  C   UNL     1       7.374   6.671  17.167  0.00  0.00    +0.000 C 
ATOM      4  N   UNL     1       6.156   5.040  18.660  0.00  0.00    +0.000 N 
ATOM      5  C   UNL     1       5.120   4.127  18.614  0.00  0.00    +0.000 A 
ATOM      6  C   UNL     1       4.542   3.324  19.594  0.00  0.00    +0.000 A 
ATOM      7  C   UNL     1       3.471   2.521  19.180  0.00  0.00    +0.000 A 
ATOM      8  C   UNL     1       3.008   2.536  17.850  0.00  0.00    +0.000 A 
ATOM      9  C   UNL     1       3.602   3.344  16.870  0.00  0.00    +0.000 A 
ATOM     10  C   UNL     1       4.677   4.129  17.286  0.00  0.00    +0.000 A 
ENDROOT
BRANCH   4  11
ATOM     11  N   UNL     1       6.936   5.306  19.843  0.00  0.00    +0.000 N 
ATOM     12  H   UNL     1       6.430   5.192  20.719  0.00  0.00    +0.000 HD
ATOM     13  H   UNL     1       7.836   4.828  19.857  0.00  0.00    +0.000 HD
ENDBRANCH   4  11
BRANCH   1  14
ATOM     14  C   UNL     1       5.452   5.270  15.150  0.00  0.00    +0.000 C 
BRANCH  14  16
ATOM     15  C   UNL     1       5.998   3.750  13.171  0.00  0.00    +0.000 C 
ATOM     16  C   UNL     1       6.246   4.250  14.392  0.00  0.00    +0.000 C 
ENDBRANCH  14  16
ENDBRANCH   1  14
TORSDOF 3
ENDMDL
MODEL 6
REMARK VINA RESULT:      -5.7      1.815      4.724
REMARK  Name = 
REMARK  4 active torsions:
REMARK  status: ('A' for Active; 'I' for Inactive)
REMARK    1  A    between atoms: C_2  and  C_3
REMARK    2  A    between atoms: C_3  and  N_4
REMARK    3  A    between atoms: C_5  and  C_6
REMARK    4  A    between atoms: N_7  and  N_8
REMARK                            x       y       z     vdW  Elec       q    Type
REMARK                         _______ _______ _______ _____ _____    ______ ____
ROOT
ATOM      1  N   UNL     1       3.435   4.853  17.745  0.00  0.00    +0.000 N 
ATOM      2  C   UNL     1       3.315   6.133  18.166  0.00  0.00    +0.000 A 
ATOM      3  C   UNL     1       3.879   7.365  17.539  0.00  0.00    +0.000 C 
ATOM      4  N   UNL     1       2.560   6.106  19.285  0.00  0.00    +0.000 N 
ATOM      5  C   UNL     1       2.138   4.824  19.578  0.00  0.00    +0.000 A 
ATOM      6  C   UNL     1       1.346   4.315  20.603  0.00  0.00    +0.000 A 
ATOM      7  C   UNL     1       1.103   2.935  20.568  0.00  0.00    +0.000 A 
ATOM      8  C   UNL     1       1.627   2.119  19.548  0.00  0.00    +0.000 A 
ATOM      9  C   UNL     1       2.428   2.642  18.523  0.00  0.00    +0.000 A 
ATOM     10  C   UNL     1       2.679   4.012  18.573  0.00  0.00    +0.000 A 
ENDROOT
BRANCH   4  11
ATOM     11  N   UNL     1       2.267   7.252  20.110  0.00  0.00    +0.000 N 
ATOM     12  H   UNL     1       1.417   7.752  19.855  0.00  0.00    +0.000 HD
ATOM     13  H   UNL     1       2.312   7.060  21.109  0.00  0.00    +0.000 HD
ENDBRANCH   4  11
BRANCH   1  14
ATOM     14  C   UNL     1       4.249   4.411  16.613  0.00  0.00    +0.000 C 
BRANCH  14  16
ATOM     15  C   UNL     1       6.765   4.843  16.692  0.00  0.00    +0.000 C 
ATOM     16  C   UNL     1       5.665   4.150  17.028  0.00  0.00    +0.000 C 
ENDBRANCH  14  16
ENDBRANCH   1  14
TORSDOF 3
ENDMDL
MODEL 7
REMARK VINA RESULT:      -5.7      1.686      3.159
REMARK  Name = 
REMARK  4 active torsions:
REMARK  status: ('A' for Active; 'I' for Inactive)
REMARK    1  A    between atoms: C_2  and  C_3
REMARK    2  A    between atoms: C_3  and  N_4
REMARK    3  A    between atoms: C_5  and  C_6
REMARK    4  A    between atoms: N_7  and  N_8
REMARK                            x       y       z     vdW  Elec       q    Type
REMARK                         _______ _______ _______ _____ _____    ______ ____
ROOT
ATOM      1  N   UNL     1       2.767   3.854  18.329  0.00  0.00    +0.000 N 
ATOM      2  C   UNL     1       2.248   4.637  19.302  0.00  0.00    +0.000 A 
ATOM      3  C   UNL     1       1.336   4.240  20.416  0.00  0.00    +0.000 C 
ATOM      4  N   UNL     1       2.722   5.884  19.093  0.00  0.00    +0.000 N 
ATOM      5  C   UNL     1       3.590   5.920  18.020  0.00  0.00    +0.000 A 
ATOM      6  C   UNL     1       4.320   6.958  17.446  0.00  0.00    +0.000 A 
ATOM      7  C   UNL     1       5.133   6.612  16.358  0.00  0.00    +0.000 A 
ATOM      8  C   UNL     1       5.206   5.288  15.882  0.00  0.00    +0.000 A 
ATOM      9  C   UNL     1       4.462   4.252  16.465  0.00  0.00    +0.000 A 
ATOM     10  C   UNL     1       3.644   4.607  17.537  0.00  0.00    +0.000 A 
ENDROOT
BRANCH   4  11
ATOM     11  N   UNL     1       2.338   7.050  19.851  0.00  0.00    +0.000 N 
ATOM     12  H   UNL     1       1.346   7.103  20.074  0.00  0.00    +0.000 HD
ATOM     13  H   UNL     1       2.922   7.217  20.669  0.00  0.00    +0.000 HD
ENDBRANCH   4  11
BRANCH   1  14
ATOM     14  C   UNL     1       2.445   2.443  18.122  0.00  0.00    +0.000 C 
BRANCH  14  16
ATOM     15  C   UNL     1       4.347   1.787  19.695  0.00  0.00    +0.000 C 
ATOM     16  C   UNL     1       3.521   1.552  18.663  0.00  0.00    +0.000 C 
ENDBRANCH  14  16
ENDBRANCH   1  14
TORSDOF 3
ENDMDL
MODEL 8
REMARK VINA RESULT:      -5.7      1.127      3.990
REMARK  Name = 
REMARK  4 active torsions:
REMARK  status: ('A' for Active; 'I' for Inactive)
REMARK    1  A    between atoms: C_2  and  C_3
REMARK    2  A    between atoms: C_3  and  N_4
REMARK    3  A    between atoms: C_5  and  C_6
REMARK    4  A    between atoms: N_7  and  N_8
REMARK                            x       y       z     vdW  Elec       q    Type
REMARK                         _______ _______ _______ _____ _____    ______ ____
ROOT
ATOM      1  N   UNL     1       3.042   5.705  18.431  0.00  0.00    +0.000 N 
ATOM      2  C   UNL     1       4.351   5.481  18.174  0.00  0.00    +0.000 A 
ATOM      3  C   UNL     1       5.269   6.278  17.305  0.00  0.00    +0.000 C 
ATOM      4  N   UNL     1       4.704   4.380  18.871  0.00  0.00    +0.000 N 
ATOM      5  C   UNL     1       3.650   3.904  19.627  0.00  0.00    +0.000 A 
ATOM      6  C   UNL     1       3.541   2.824  20.499  0.00  0.00    +0.000 A 
ATOM      7  C   UNL     1       2.297   2.655  21.121  0.00  0.00    +0.000 A 
ATOM      8  C   UNL     1       1.226   3.536  20.878  0.00  0.00    +0.000 A 
ATOM      9  C   UNL     1       1.345   4.619  19.994  0.00  0.00    +0.000 A 
ATOM     10  C   UNL     1       2.581   4.770  19.367  0.00  0.00    +0.000 A 
ENDROOT
BRANCH   4  11
ATOM     11  N   UNL     1       5.994   3.739  18.804  0.00  0.00    +0.000 N 
ATOM     12  H   UNL     1       6.114   3.110  18.012  0.00  0.00    +0.000 HD
ATOM     13  H   UNL     1       6.777   4.383  18.903  0.00  0.00    +0.000 HD
ENDBRANCH   4  11
BRANCH   1  14
ATOM     14  C   UNL     1       2.228   6.748  17.810  0.00  0.00    +0.000 C 
BRANCH  14  16
ATOM     15  C   UNL     1       1.674   9.189  18.321  0.00  0.00    +0.000 C 
ATOM     16  C   UNL     1       2.290   8.026  18.590  0.00  0.00    +0.000 C 
ENDBRANCH  14  16
ENDBRANCH   1  14
TORSDOF 3
ENDMDL
MODEL 9
REMARK VINA RESULT:      -5.7      1.784      4.168
REMARK  Name = 
REMARK  4 active torsions:
REMARK  status: ('A' for Active; 'I' for Inactive)
REMARK    1  A    between atoms: C_2  and  C_3
REMARK    2  A    between atoms: C_3  and  N_4
REMARK    3  A    between atoms: C_5  and  C_6
REMARK    4  A    between atoms: N_7  and  N_8
REMARK                            x       y       z     vdW  Elec       q    Type
REMARK                         _______ _______ _______ _____ _____    ______ ____
ROOT
ATOM      1  N   UNL     1       4.249   5.318  17.521  0.00  0.00    +0.000 N 
ATOM      2  C   UNL     1       4.591   4.062  17.153  0.00  0.00    +0.000 A 
ATOM      3  C   UNL     1       5.548   3.643  16.086  0.00  0.00    +0.000 C 
ATOM      4  N   UNL     1       3.902   3.220  17.953  0.00  0.00    +0.000 N 
ATOM      5  C   UNL     1       3.147   3.911  18.881  0.00  0.00    +0.000 A 
ATOM      6  C   UNL     1       2.302   3.482  19.900  0.00  0.00    +0.000 A 
ATOM      7  C   UNL     1       1.709   4.488  20.674  0.00  0.00    +0.000 A 
ATOM      8  C   UNL     1       1.963   5.852  20.433  0.00  0.00    +0.000 A 
ATOM      9  C   UNL     1       2.812   6.273  19.400  0.00  0.00    +0.000 A 
ATOM     10  C   UNL     1       3.386   5.267  18.624  0.00  0.00    +0.000 A 
ENDROOT
BRANCH   4  11
ATOM     11  N   UNL     1       3.902   1.783  17.833  0.00  0.00    +0.000 N 
ATOM     12  H   UNL     1       4.320   1.291  18.620  0.00  0.00    +0.000 HD
ATOM     13  H   UNL     1       2.996   1.394  17.577  0.00  0.00    +0.000 HD
ENDBRANCH   4  11
BRANCH   1  14
ATOM     14  C   UNL     1       4.694   6.542  16.856  0.00  0.00    +0.000 C 
BRANCH  14  16
ATOM     15  C   UNL     1       7.213   6.748  17.233  0.00  0.00    +0.000 C 
ATOM     16  C   UNL     1       5.939   7.086  17.490  0.00  0.00    +0.000 C 
ENDBRANCH  14  16
ENDBRANCH   1  14
TORSDOF 3
ENDMDL
