MODEL 1
REMARK VINA RESULT:      -6.4      0.000      0.000
REMARK  Name = 
REMARK  4 active torsions:
REMARK  status: ('A' for Active; 'I' for Inactive)
REMARK    1  A    between atoms: C_1  and  N_2
REMARK    2  A    between atoms: C_5  and  C_6
REMARK    3  A    between atoms: N_8  and  C_9
REMARK    4  A    between atoms: C_12  and  N_13
REMARK                            x       y       z     vdW  Elec       q    Type
REMARK                         _______ _______ _______ _____ _____    ______ ____
ROOT
ATOM      1  C   UNL     1       3.225   3.823  17.341  0.00  0.00    +0.000 C 
ATOM      2  O   UNL     1       2.454   3.189  16.629  0.00  0.00    +0.000 OA
ATOM      3  N   UNL     1       2.884   4.335  18.577  0.00  0.00    +0.000 N 
ATOM      4  H   UNL     1       3.674   4.640  19.138  0.00  0.00    +0.000 HD
ENDROOT
BRANCH   1   9
ATOM      5  C   UNL     1       7.842   5.747  19.162  0.00  0.00    +0.000 C 
ATOM      6  N   UNL     1       7.828   5.308  17.791  0.00  0.00    +0.000 N 
ATOM      7  C   UNL     1       6.704   4.816  17.231  0.00  0.00    +0.000 A 
ATOM      8  N   UNL     1       5.579   4.553  17.858  0.00  0.00    +0.000 NA
ATOM      9  C   UNL     1       4.607   4.111  16.949  0.00  0.00    +0.000 A 
ATOM     10  C   UNL     1       5.057   4.001  15.646  0.00  0.00    +0.000 A 
ATOM     11  S   UNL     1       6.687   4.496  15.537  0.00  0.00    +0.000 S 
ATOM     12  H   UNL     1       8.560   5.661  17.184  0.00  0.00    +0.000 HD
ENDBRANCH   1   9
BRANCH   3  13
ATOM     13  C   UNL     1       1.580   4.135  19.192  0.00  0.00    +0.000 C 
ATOM     14  C   UNL     1       1.320   5.061  20.384  0.00  0.00    +0.000 C 
ATOM     15  C   UNL     1       2.182   4.469  21.493  0.00  0.00    +0.000 C 
ATOM     16  C   UNL     1       2.179   2.957  21.232  0.00  0.00    +0.000 C 
ATOM     17  C   UNL     1       1.497   2.763  19.866  0.00  0.00    +0.000 C 
BRANCH  16  18
ATOM     18  N   UNL     1       1.488   2.213  22.280  0.00  0.00    +0.000 NA
ATOM     19  H   UNL     1       1.054   1.379  21.885  0.00  0.00    +0.000 HD
ATOM     20  H   UNL     1       0.716   2.776  22.639  0.00  0.00    +0.000 HD
ENDBRANCH  16  18
ENDBRANCH   3  13
TORSDOF 3
ENDMDL
MODEL 2
REMARK VINA RESULT:      -6.3      1.426      1.426
REMARK  Name = 
REMARK  4 active torsions:
REMARK  status: ('A' for Active; 'I' for Inactive)
REMARK    1  A    between atoms: C_1  and  N_2
REMARK    2  A    between atoms: C_5  and  C_6
REMARK    3  A    between atoms: N_8  and  C_9
REMARK    4  A    between atoms: C_12  and  N_13
REMARK                            x       y       z     vdW  Elec       q    Type
REMARK                         _______ _______ _______ _____ _____    ______ ____
ROOT
ATOM      1  C   UNL     1       3.193   5.328  17.858  0.00  0.00    +0.000 C 
ATOM      2  O   UNL     1       2.461   6.312  17.826  0.00  0.00    +0.000 OA
ATOM      3  N   UNL     1       2.850   4.136  18.464  0.00  0.00    +0.000 N 
ATOM      4  H   UNL     1       3.453   3.354  18.224  0.00  0.00    +0.000 HD
ENDROOT
BRANCH   1   9
ATOM      5  C   UNL     1       7.737   8.081  17.539  0.00  0.00    +0.000 C 
ATOM      6  N   UNL     1       7.686   6.844  16.807  0.00  0.00    +0.000 N 
ATOM      7  C   UNL     1       6.575   6.078  16.813  0.00  0.00    +0.000 A 
ATOM      8  N   UNL     1       5.507   6.271  17.554  0.00  0.00    +0.000 NA
ATOM      9  C   UNL     1       4.526   5.315  17.253  0.00  0.00    +0.000 A 
ATOM     10  C   UNL     1       4.917   4.380  16.313  0.00  0.00    +0.000 A 
ATOM     11  S   UNL     1       6.496   4.715  15.760  0.00  0.00    +0.000 S 
ATOM     12  H   UNL     1       8.357   6.721  16.057  0.00  0.00    +0.000 HD
ENDBRANCH   1   9
BRANCH   3  13
ATOM     13  C   UNL     1       1.557   3.902  19.090  0.00  0.00    +0.000 C 
ATOM     14  C   UNL     1       1.242   4.882  20.224  0.00  0.00    +0.000 C 
ATOM     15  C   UNL     1       2.131   4.407  21.367  0.00  0.00    +0.000 C 
ATOM     16  C   UNL     1       2.213   2.885  21.198  0.00  0.00    +0.000 C 
ATOM     17  C   UNL     1       1.547   2.571  19.846  0.00  0.00    +0.000 C 
BRANCH  16  18
ATOM     18  N   UNL     1       1.561   2.168  22.289  0.00  0.00    +0.000 NA
ATOM     19  H   UNL     1       1.309   1.227  21.984  0.00  0.00    +0.000 HD
ATOM     20  H   UNL     1       0.676   2.626  22.511  0.00  0.00    +0.000 HD
ENDBRANCH  16  18
ENDBRANCH   3  13
TORSDOF 3
ENDMDL
MODEL 3
REMARK VINA RESULT:      -6.2      1.397      2.008
REMARK  Name = 
REMARK  4 active torsions:
REMARK  status: ('A' for Active; 'I' for Inactive)
REMARK    1  A    between atoms: C_1  and  N_2
REMARK    2  A    between atoms: C_5  and  C_6
REMARK    3  A    between atoms: N_8  and  C_9
REMARK    4  A    between atoms: C_12  and  N_13
REMARK                            x       y       z     vdW  Elec       q    Type
REMARK                         _______ _______ _______ _____ _____    ______ ____
ROOT
ATOM      1  C   UNL     1       3.380   3.897  17.412  0.00  0.00    +0.000 C 
ATOM      2  O   UNL     1       2.666   3.228  16.673  0.00  0.00    +0.000 OA
ATOM      3  N   UNL     1       2.964   4.407  18.626  0.00  0.00    +0.000 N 
ATOM      4  H   UNL     1       3.716   4.748  19.219  0.00  0.00    +0.000 HD
ENDROOT
BRANCH   1   9
ATOM      5  C   UNL     1       6.787   4.326  13.345  0.00  0.00    +0.000 C 
ATOM      6  N   UNL     1       7.305   4.641  14.649  0.00  0.00    +0.000 N 
ATOM      7  C   UNL     1       6.526   4.552  15.747  0.00  0.00    +0.000 A 
ATOM      8  N   UNL     1       5.232   4.319  15.759  0.00  0.00    +0.000 NA
ATOM      9  C   UNL     1       4.766   4.234  17.080  0.00  0.00    +0.000 A 
ATOM     10  C   UNL     1       5.735   4.466  18.039  0.00  0.00    +0.000 A 
ATOM     11  S   UNL     1       7.249   4.743  17.300  0.00  0.00    +0.000 S 
ATOM     12  H   UNL     1       8.313   4.621  14.765  0.00  0.00    +0.000 HD
ENDBRANCH   1   9
BRANCH   3  13
ATOM     13  C   UNL     1       1.642   4.163  19.184  0.00  0.00    +0.000 C 
ATOM     14  C   UNL     1       1.308   5.064  20.376  0.00  0.00    +0.000 C 
ATOM     15  C   UNL     1       2.140   4.480  21.512  0.00  0.00    +0.000 C 
ATOM     16  C   UNL     1       2.190   2.973  21.232  0.00  0.00    +0.000 C 
ATOM     17  C   UNL     1       1.570   2.780  19.836  0.00  0.00    +0.000 C 
BRANCH  16  18
ATOM     18  N   UNL     1       1.478   2.195  22.240  0.00  0.00    +0.000 NA
ATOM     19  H   UNL     1       0.627   2.685  22.518  0.00  0.00    +0.000 HD
ATOM     20  H   UNL     1       2.047   2.141  23.086  0.00  0.00    +0.000 HD
ENDBRANCH  16  18
ENDBRANCH   3  13
TORSDOF 3
ENDMDL
MODEL 4
REMARK VINA RESULT:      -6.2      1.644      2.306
REMARK  Name = 
REMARK  4 active torsions:
REMARK  status: ('A' for Active; 'I' for Inactive)
REMARK    1  A    between atoms: C_1  and  N_2
REMARK    2  A    between atoms: C_5  and  C_6
REMARK    3  A    between atoms: N_8  and  C_9
REMARK    4  A    between atoms: C_12  and  N_13
REMARK                            x       y       z     vdW  Elec       q    Type
REMARK                         _______ _______ _______ _____ _____    ______ ____
ROOT
ATOM      1  C   UNL     1       3.487   5.238  17.930  0.00  0.00    +0.000 C 
ATOM      2  O   UNL     1       2.906   6.316  17.862  0.00  0.00    +0.000 OA
ATOM      3  N   UNL     1       2.968   4.125  18.560  0.00  0.00    +0.000 N 
ATOM      4  H   UNL     1       3.455   3.258  18.349  0.00  0.00    +0.000 HD
ENDROOT
BRANCH   1   9
ATOM      5  C   UNL     1       5.966   3.826  13.436  0.00  0.00    +0.000 C 
ATOM      6  N   UNL     1       6.809   4.137  14.561  0.00  0.00    +0.000 N 
ATOM      7  C   UNL     1       6.277   4.494  15.749  0.00  0.00    +0.000 A 
ATOM      8  N   UNL     1       5.007   4.731  15.987  0.00  0.00    +0.000 NA
ATOM      9  C   UNL     1       4.812   5.017  17.347  0.00  0.00    +0.000 A 
ATOM     10  C   UNL     1       5.976   5.040  18.093  0.00  0.00    +0.000 A 
ATOM     11  S   UNL     1       7.319   4.657  17.113  0.00  0.00    +0.000 S 
ATOM     12  H   UNL     1       7.759   3.785  14.539  0.00  0.00    +0.000 HD
ENDBRANCH   1   9
BRANCH   3  13
ATOM     13  C   UNL     1       1.647   4.097  19.171  0.00  0.00    +0.000 C 
ATOM     14  C   UNL     1       1.503   5.057  20.356  0.00  0.00    +0.000 C 
ATOM     15  C   UNL     1       2.279   4.369  21.472  0.00  0.00    +0.000 C 
ATOM     16  C   UNL     1       2.085   2.868  21.222  0.00  0.00    +0.000 C 
ATOM     17  C   UNL     1       1.388   2.752  19.854  0.00  0.00    +0.000 C 
BRANCH  16  18
ATOM     18  N   UNL     1       1.302   2.225  22.272  0.00  0.00    +0.000 NA
ATOM     19  H   UNL     1       1.576   2.594  23.184  0.00  0.00    +0.000 HD
ATOM     20  H   UNL     1       1.532   1.232  22.303  0.00  0.00    +0.000 HD
ENDBRANCH  16  18
ENDBRANCH   3  13
TORSDOF 3
ENDMDL
MODEL 5
REMARK VINA RESULT:      -6.1      2.184      5.766
REMARK  Name = 
REMARK  4 active torsions:
REMARK  status: ('A' for Active; 'I' for Inactive)
REMARK    1  A    between atoms: C_1  and  N_2
REMARK    2  A    between atoms: C_5  and  C_6
REMARK    3  A    between atoms: N_8  and  C_9
REMARK    4  A    between atoms: C_12  and  N_13
REMARK                            x       y       z     vdW  Elec       q    Type
REMARK                         _______ _______ _______ _____ _____    ______ ____
ROOT
ATOM      1  C   UNL     1       4.556   3.866  16.958  0.00  0.00    +0.000 C 
ATOM      2  O   UNL     1       4.549   3.897  15.732  0.00  0.00    +0.000 OA
ATOM      3  N   UNL     1       5.677   4.110  17.725  0.00  0.00    +0.000 N 
ATOM      4  H   UNL     1       5.486   4.264  18.711  0.00  0.00    +0.000 HD
ENDROOT
BRANCH   1   9
ATOM      5  C   UNL     1       1.507   5.677  20.927  0.00  0.00    +0.000 C 
ATOM      6  N   UNL     1       1.100   4.436  20.323  0.00  0.00    +0.000 N 
ATOM      7  C   UNL     1       1.812   3.887  19.317  0.00  0.00    +0.000 A 
ATOM      8  N   UNL     1       2.827   4.443  18.695  0.00  0.00    +0.000 NA
ATOM      9  C   UNL     1       3.361   3.558  17.747  0.00  0.00    +0.000 A 
ATOM     10  C   UNL     1       2.681   2.359  17.645  0.00  0.00    +0.000 A 
ATOM     11  S   UNL     1       1.397   2.306  18.768  0.00  0.00    +0.000 S 
ATOM     12  H   UNL     1       0.476   3.843  20.858  0.00  0.00    +0.000 HD
ENDBRANCH   1   9
BRANCH   3  13
ATOM     13  C   UNL     1       6.966   4.481  17.160  0.00  0.00    +0.000 C 
ATOM     14  C   UNL     1       8.046   4.727  18.218  0.00  0.00    +0.000 C 
ATOM     15  C   UNL     1       7.667   6.079  18.811  0.00  0.00    +0.000 C 
ATOM     16  C   UNL     1       7.045   6.861  17.646  0.00  0.00    +0.000 C 
ATOM     17  C   UNL     1       6.896   5.855  16.490  0.00  0.00    +0.000 C 
BRANCH  16  18
ATOM     18  N   UNL     1       7.856   8.007  17.250  0.00  0.00    +0.000 NA
ATOM     19  H   UNL     1       8.798   7.915  17.633  0.00  0.00    +0.000 HD
ATOM     20  H   UNL     1       7.473   8.853  17.675  0.00  0.00    +0.000 HD
ENDBRANCH  16  18
ENDBRANCH   3  13
TORSDOF 3
ENDMDL
MODEL 6
REMARK VINA RESULT:      -6.0      1.508      2.091
REMARK  Name = 
REMARK  4 active torsions:
REMARK  status: ('A' for Active; 'I' for Inactive)
REMARK    1  A    between atoms: C_1  and  N_2
REMARK    2  A    between atoms: C_5  and  C_6
REMARK    3  A    between atoms: N_8  and  C_9
REMARK    4  A    between atoms: C_12  and  N_13
REMARK                            x       y       z     vdW  Elec       q    Type
REMARK                         _______ _______ _______ _____ _____    ______ ____
ROOT
ATOM      1  C   UNL     1       3.491   3.538  17.377  0.00  0.00    +0.000 C 
ATOM      2  O   UNL     1       2.685   3.475  16.455  0.00  0.00    +0.000 OA
ATOM      3  N   UNL     1       3.239   3.067  18.650  0.00  0.00    +0.000 N 
ATOM      4  H   UNL     1       4.063   2.989  19.240  0.00  0.00    +0.000 HD
ENDROOT
BRANCH   1   9
ATOM      5  C   UNL     1       7.164   4.853  13.756  0.00  0.00    +0.000 C 
ATOM      6  N   UNL     1       7.482   5.151  15.128  0.00  0.00    +0.000 N 
ATOM      7  C   UNL     1       6.623   4.847  16.122  0.00  0.00    +0.000 A 
ATOM      8  N   UNL     1       5.397   4.395  15.974  0.00  0.00    +0.000 NA
ATOM      9  C   UNL     1       4.821   4.132  17.225  0.00  0.00    +0.000 A 
ATOM     10  C   UNL     1       5.630   4.451  18.300  0.00  0.00    +0.000 A 
ATOM     11  S   UNL     1       7.137   5.039  17.756  0.00  0.00    +0.000 S 
ATOM     12  H   UNL     1       8.460   5.295  15.356  0.00  0.00    +0.000 HD
ENDBRANCH   1   9
BRANCH   3  13
ATOM     13  C   UNL     1       2.002   2.397  19.024  0.00  0.00    +0.000 C 
ATOM     14  C   UNL     1       0.820   3.355  19.202  0.00  0.00    +0.000 C 
ATOM     15  C   UNL     1       1.111   4.041  20.532  0.00  0.00    +0.000 C 
ATOM     16  C   UNL     1       1.824   2.978  21.377  0.00  0.00    +0.000 C 
ATOM     17  C   UNL     1       2.105   1.799  20.429  0.00  0.00    +0.000 C 
BRANCH  16  18
ATOM     18  N   UNL     1       1.029   2.556  22.526  0.00  0.00    +0.000 NA
ATOM     19  H   UNL     1       0.469   3.339  22.867  0.00  0.00    +0.000 HD
ATOM     20  H   UNL     1       1.654   2.316  23.297  0.00  0.00    +0.000 HD
ENDBRANCH  16  18
ENDBRANCH   3  13
TORSDOF 3
ENDMDL
MODEL 7
REMARK VINA RESULT:      -6.0      1.912      2.469
REMARK  Name = 
REMARK  4 active torsions:
REMARK  status: ('A' for Active; 'I' for Inactive)
REMARK    1  A    between atoms: C_1  and  N_2
REMARK    2  A    between atoms: C_5  and  C_6
REMARK    3  A    between atoms: N_8  and  C_9
REMARK    4  A    between atoms: C_12  and  N_13
REMARK                            x       y       z     vdW  Elec       q    Type
REMARK                         _______ _______ _______ _____ _____    ______ ____
ROOT
ATOM      1  C   UNL     1       4.723   3.329  18.915  0.00  0.00    +0.000 C 
ATOM      2  O   UNL     1       5.099   2.511  19.747  0.00  0.00    +0.000 OA
ATOM      3  N   UNL     1       3.438   3.377  18.412  0.00  0.00    +0.000 N 
ATOM      4  H   UNL     1       3.217   4.230  17.905  0.00  0.00    +0.000 HD
ENDROOT
BRANCH   1   9
ATOM      5  C   UNL     1       7.076   4.909  14.410  0.00  0.00    +0.000 C 
ATOM      6  N   UNL     1       7.323   5.714  15.576  0.00  0.00    +0.000 N 
ATOM      7  C   UNL     1       6.782   5.392  16.770  0.00  0.00    +0.000 A 
ATOM      8  N   UNL     1       5.899   4.443  16.987  0.00  0.00    +0.000 NA
ATOM      9  C   UNL     1       5.609   4.353  18.357  0.00  0.00    +0.000 A 
ATOM     10  C   UNL     1       6.256   5.294  19.136  0.00  0.00    +0.000 A 
ATOM     11  S   UNL     1       7.271   6.269  18.171  0.00  0.00    +0.000 S 
ATOM     12  H   UNL     1       8.136   6.320  15.558  0.00  0.00    +0.000 HD
ENDBRANCH   1   9
BRANCH   3  13
ATOM     13  C   UNL     1       2.374   2.488  18.853  0.00  0.00    +0.000 C 
ATOM     14  C   UNL     1       1.002   3.165  18.919  0.00  0.00    +0.000 C 
ATOM     15  C   UNL     1       1.092   4.039  20.164  0.00  0.00    +0.000 C 
ATOM     16  C   UNL     1       2.001   3.264  21.127  0.00  0.00    +0.000 C 
ATOM     17  C   UNL     1       2.568   2.084  20.317  0.00  0.00    +0.000 C 
BRANCH  16  18
ATOM     18  N   UNL     1       1.289   2.800  22.313  0.00  0.00    +0.000 NA
ATOM     19  H   UNL     1       1.257   3.544  23.011  0.00  0.00    +0.000 HD
ATOM     20  H   UNL     1       1.818   2.044  22.748  0.00  0.00    +0.000 HD
ENDBRANCH  16  18
ENDBRANCH   3  13
TORSDOF 3
ENDMDL
MODEL 8
REMARK VINA RESULT:      -6.0      2.005      2.652
REMARK  Name = 
REMARK  4 active torsions:
REMARK  status: ('A' for Active; 'I' for Inactive)
REMARK    1  A    between atoms: C_1  and  N_2
REMARK    2  A    between atoms: C_5  and  C_6
REMARK    3  A    between atoms: N_8  and  C_9
REMARK    4  A    between atoms: C_12  and  N_13
REMARK                            x       y       z     vdW  Elec       q    Type
REMARK                         _______ _______ _______ _____ _____    ______ ____
ROOT
ATOM      1  C   UNL     1       3.994   5.747  18.731  0.00  0.00    +0.000 C 
ATOM      2  O   UNL     1       3.259   6.610  18.263  0.00  0.00    +0.000 OA
ATOM      3  N   UNL     1       3.627   4.899  19.757  0.00  0.00    +0.000 N 
ATOM      4  H   UNL     1       4.247   4.105  19.888  0.00  0.00    +0.000 HD
ENDROOT
BRANCH   1   9
ATOM      5  C   UNL     1       6.836   4.782  14.335  0.00  0.00    +0.000 C 
ATOM      6  N   UNL     1       7.576   4.894  15.563  0.00  0.00    +0.000 N 
ATOM      7  C   UNL     1       6.948   5.126  16.734  0.00  0.00    +0.000 A 
ATOM      8  N   UNL     1       5.672   5.405  16.885  0.00  0.00    +0.000 NA
ATOM      9  C   UNL     1       5.358   5.524  18.247  0.00  0.00    +0.000 A 
ATOM     10  C   UNL     1       6.442   5.382  19.093  0.00  0.00    +0.000 A 
ATOM     11  S   UNL     1       7.857   5.050  18.198  0.00  0.00    +0.000 S 
ATOM     12  H   UNL     1       8.507   4.493  15.581  0.00  0.00    +0.000 HD
ENDBRANCH   1   9
BRANCH   3  13
ATOM     13  C   UNL     1       2.304   4.906  20.363  0.00  0.00    +0.000 C 
ATOM     14  C   UNL     1       2.146   3.882  21.492  0.00  0.00    +0.000 C 
ATOM     15  C   UNL     1       2.046   2.550  20.757  0.00  0.00    +0.000 C 
ATOM     16  C   UNL     1       1.333   2.878  19.439  0.00  0.00    +0.000 C 
ATOM     17  C   UNL     1       1.245   4.414  19.374  0.00  0.00    +0.000 C 
BRANCH  16  18
ATOM     18  N   UNL     1       0.011   2.267  19.355  0.00  0.00    +0.000 NA
ATOM     19  H   UNL     1      -0.651   2.927  18.943  0.00  0.00    +0.000 HD
ATOM     20  H   UNL     1      -0.338   2.088  20.297  0.00  0.00    +0.000 HD
ENDBRANCH  16  18
ENDBRANCH   3  13
TORSDOF 3
ENDMDL
MODEL 9
REMARK VINA RESULT:      -5.9      2.865      6.090
REMARK  Name = 
REMARK  4 active torsions:
REMARK  status: ('A' for Active; 'I' for Inactive)
REMARK    1  A    between atoms: C_1  and  N_2
REMARK    2  A    between atoms: C_5  and  C_6
REMARK    3  A    between atoms: N_8  and  C_9
REMARK    4  A    between atoms: C_12  and  N_13
REMARK                            x       y       z     vdW  Elec       q    Type
REMARK                         _______ _______ _______ _____ _____    ______ ____
ROOT
ATOM      1  C   UNL     1       4.851   3.900  19.466  0.00  0.00    +0.000 C 
ATOM      2  O   UNL     1       5.321   2.782  19.644  0.00  0.00    +0.000 OA
ATOM      3  N   UNL     1       5.568   4.962  18.951  0.00  0.00    +0.000 N 
ATOM      4  H   UNL     1       4.999   5.751  18.659  0.00  0.00    +0.000 HD
ENDROOT
BRANCH   1   9
ATOM      5  C   UNL     1       1.669   7.930  20.870  0.00  0.00    +0.000 C 
ATOM      6  N   UNL     1       1.041   6.645  20.711  0.00  0.00    +0.000 N 
ATOM      7  C   UNL     1       1.763   5.557  20.369  0.00  0.00    +0.000 A 
ATOM      8  N   UNL     1       3.029   5.549  20.017  0.00  0.00    +0.000 NA
ATOM      9  C   UNL     1       3.462   4.234  19.789  0.00  0.00    +0.000 A 
ATOM     10  C   UNL     1       2.471   3.279  19.928  0.00  0.00    +0.000 A 
ATOM     11  S   UNL     1       1.001   4.011  20.392  0.00  0.00    +0.000 S 
ATOM     12  H   UNL     1       0.141   6.511  21.157  0.00  0.00    +0.000 HD
ENDBRANCH   1   9
BRANCH   3  13
ATOM     13  C   UNL     1       6.952   4.853  18.516  0.00  0.00    +0.000 C 
ATOM     14  C   UNL     1       7.666   6.205  18.412  0.00  0.00    +0.000 C 
ATOM     15  C   UNL     1       7.083   6.823  17.147  0.00  0.00    +0.000 C 
ATOM     16  C   UNL     1       6.804   5.634  16.218  0.00  0.00    +0.000 C 
ATOM     17  C   UNL     1       7.035   4.370  17.066  0.00  0.00    +0.000 C 
BRANCH  16  18
ATOM     18  N   UNL     1       7.656   5.641  15.034  0.00  0.00    +0.000 NA
ATOM     19  H   UNL     1       7.155   5.230  14.245  0.00  0.00    +0.000 HD
ATOM     20  H   UNL     1       8.457   5.030  15.192  0.00  0.00    +0.000 HD
ENDBRANCH  16  18
ENDBRANCH   3  13
TORSDOF 3
ENDMDL
