MODEL 1
REMARK VINA RESULT:      -6.3      0.000      0.000
REMARK  Name = 
REMARK  11 active torsions:
REMARK  status: ('A' for Active; 'I' for Inactive)
REMARK    1  A    between atoms: C_1  and  O_2
REMARK    2  A    between atoms: O_2  and  C_3
REMARK    3  A    between atoms: C_3  and  C_4
REMARK    4  A    between atoms: C_4  and  C_5
REMARK    5  A    between atoms: N_7  and  C_8
REMARK    6  A    between atoms: C_8  and  C_9
REMARK    7  A    between atoms: C_9  and  C_10
REMARK    8  A    between atoms: C_13  and  C_14
REMARK    9  A    between atoms: N_15  and  C_16
REMARK   10  A    between atoms: C_16  and  C_17
REMARK   11  A    between atoms: C_16  and  C_18
REMARK                            x       y       z     vdW  Elec       q    Type
REMARK                         _______ _______ _______ _____ _____    ______ ____
ROOT
ATOM      1  C   UNL     1       6.079   5.340  19.310  0.00  0.00    +0.000 C 
ENDROOT
BRANCH   1   2
ATOM      2  C   UNL     1       4.896   4.429  19.156  0.00  0.00    +0.000 A 
ATOM      3  N   UNL     1       4.932   3.140  19.448  0.00  0.00    +0.000 NA
ATOM      4  C   UNL     1       3.673   2.664  19.255  0.00  0.00    +0.000 A 
ATOM      5  C   UNL     1       2.835   3.658  18.808  0.00  0.00    +0.000 A 
ATOM      6  C   UNL     1       1.390   3.589  18.479  0.00  0.00    +0.000 C 
ATOM      7  N   UNL     1       3.626   4.793  18.735  0.00  0.00    +0.000 N 
BRANCH   7   8
ATOM      8  C   UNL     1       3.156   6.103  18.279  0.00  0.00    +0.000 C 
ATOM      9  C   UNL     1       2.678   7.012  19.411  0.00  0.00    +0.000 C 
ATOM     10  C   UNL     1       4.145   6.797  17.342  0.00  0.00    +0.000 C 
ENDBRANCH   7   8
ENDBRANCH   1   2
BRANCH   1  11
ATOM     11  C   UNL     1       7.163   5.079  18.256  0.00  0.00    +0.000 C 
BRANCH  11  14
ATOM     12  C   UNL     1       6.822   4.593  15.836  0.00  0.00    +0.000 C 
ATOM     13  O   UNL     1       7.430   5.587  15.451  0.00  0.00    +0.000 OA
ATOM     14  N   UNL     1       6.677   4.257  17.160  0.00  0.00    +0.000 N 
ATOM     15  H   UNL     1       6.203   3.399  17.429  0.00  0.00    +0.000 HD
BRANCH  12  16
ATOM     16  C   UNL     1       6.135   3.652  14.880  0.00  0.00    +0.000 C 
BRANCH  16  17
ATOM     17  C   UNL     1       6.462   4.047  13.450  0.00  0.00    +0.000 C 
BRANCH  17  19
ATOM     18  C   UNL     1       5.840   2.537  11.758  0.00  0.00    +0.000 C 
ATOM     19  O   UNL     1       5.413   3.611  12.587  0.00  0.00    +0.000 OA
ENDBRANCH  17  19
ENDBRANCH  16  17
ENDBRANCH  12  16
ENDBRANCH  11  14
ENDBRANCH   1  11
TORSDOF 7
ENDMDL
MODEL 2
REMARK VINA RESULT:      -6.0      2.953      5.913
REMARK  Name = 
REMARK  11 active torsions:
REMARK  status: ('A' for Active; 'I' for Inactive)
REMARK    1  A    between atoms: C_1  and  O_2
REMARK    2  A    between atoms: O_2  and  C_3
REMARK    3  A    between atoms: C_3  and  C_4
REMARK    4  A    between atoms: C_4  and  C_5
REMARK    5  A    between atoms: N_7  and  C_8
REMARK    6  A    between atoms: C_8  and  C_9
REMARK    7  A    between atoms: C_9  and  C_10
REMARK    8  A    between atoms: C_13  and  C_14
REMARK    9  A    between atoms: N_15  and  C_16
REMARK   10  A    between atoms: C_16  and  C_17
REMARK   11  A    between atoms: C_16  and  C_18
REMARK                            x       y       z     vdW  Elec       q    Type
REMARK                         _______ _______ _______ _____ _____    ______ ____
ROOT
ATOM      1  C   UNL     1       3.852   3.692  17.128  0.00  0.00    +0.000 C 
ENDROOT
BRANCH   1   2
ATOM      2  C   UNL     1       4.890   4.501  17.850  0.00  0.00    +0.000 A 
ATOM      3  N   UNL     1       5.017   4.507  19.166  0.00  0.00    +0.000 NA
ATOM      4  C   UNL     1       6.094   5.288  19.448  0.00  0.00    +0.000 A 
ATOM      5  C   UNL     1       6.639   5.806  18.297  0.00  0.00    +0.000 A 
ATOM      6  C   UNL     1       7.816   6.694  18.136  0.00  0.00    +0.000 C 
ATOM      7  N   UNL     1       5.856   5.308  17.268  0.00  0.00    +0.000 N 
BRANCH   7   8
ATOM      8  C   UNL     1       6.054   5.618  15.852  0.00  0.00    +0.000 C 
ATOM      9  C   UNL     1       6.192   4.381  14.964  0.00  0.00    +0.000 C 
ATOM     10  C   UNL     1       5.031   6.619  15.313  0.00  0.00    +0.000 C 
ENDBRANCH   7   8
ENDBRANCH   1   2
BRANCH   1  11
ATOM     11  C   UNL     1       3.606   2.328  17.787  0.00  0.00    +0.000 C 
BRANCH  11  14
ATOM     12  C   UNL     1       1.609   2.455  19.271  0.00  0.00    +0.000 C 
ATOM     13  O   UNL     1       0.802   2.287  18.362  0.00  0.00    +0.000 OA
ATOM     14  N   UNL     1       2.971   2.453  19.088  0.00  0.00    +0.000 N 
ATOM     15  H   UNL     1       3.601   2.552  19.878  0.00  0.00    +0.000 HD
BRANCH  12  16
ATOM     16  C   UNL     1       1.177   2.717  20.691  0.00  0.00    +0.000 C 
BRANCH  16  17
ATOM     17  C   UNL     1       1.694   4.074  21.141  0.00  0.00    +0.000 C 
BRANCH  17  19
ATOM     18  C   UNL     1       2.007   6.295  20.436  0.00  0.00    +0.000 C 
ATOM     19  O   UNL     1       1.714   4.965  20.027  0.00  0.00    +0.000 OA
ENDBRANCH  17  19
ENDBRANCH  16  17
ENDBRANCH  12  16
ENDBRANCH  11  14
ENDBRANCH   1  11
TORSDOF 7
ENDMDL
MODEL 3
REMARK VINA RESULT:      -6.0      1.541      2.174
REMARK  Name = 
REMARK  11 active torsions:
REMARK  status: ('A' for Active; 'I' for Inactive)
REMARK    1  A    between atoms: C_1  and  O_2
REMARK    2  A    between atoms: O_2  and  C_3
REMARK    3  A    between atoms: C_3  and  C_4
REMARK    4  A    between atoms: C_4  and  C_5
REMARK    5  A    between atoms: N_7  and  C_8
REMARK    6  A    between atoms: C_8  and  C_9
REMARK    7  A    between atoms: C_9  and  C_10
REMARK    8  A    between atoms: C_13  and  C_14
REMARK    9  A    between atoms: N_15  and  C_16
REMARK   10  A    between atoms: C_16  and  C_17
REMARK   11  A    between atoms: C_16  and  C_18
REMARK                            x       y       z     vdW  Elec       q    Type
REMARK                         _______ _______ _______ _____ _____    ______ ____
ROOT
ATOM      1  C   UNL     1       5.410   4.072  19.117  0.00  0.00    +0.000 C 
ENDROOT
BRANCH   1   2
ATOM      2  C   UNL     1       4.112   3.506  18.621  0.00  0.00    +0.000 A 
ATOM      3  N   UNL     1       3.977   2.934  17.437  0.00  0.00    +0.000 NA
ATOM      4  C   UNL     1       2.696   2.483  17.368  0.00  0.00    +0.000 A 
ATOM      5  C   UNL     1       2.002   2.799  18.512  0.00  0.00    +0.000 A 
ATOM      6  C   UNL     1       0.593   2.499  18.866  0.00  0.00    +0.000 C 
ATOM      7  N   UNL     1       2.912   3.467  19.315  0.00  0.00    +0.000 N 
BRANCH   7   8
ATOM      8  C   UNL     1       2.603   4.017  20.636  0.00  0.00    +0.000 C 
ATOM      9  C   UNL     1       1.631   5.197  20.599  0.00  0.00    +0.000 C 
ATOM     10  C   UNL     1       2.192   2.945  21.645  0.00  0.00    +0.000 C 
ENDBRANCH   7   8
ENDBRANCH   1   2
BRANCH   1  11
ATOM     11  C   UNL     1       5.734   5.435  18.492  0.00  0.00    +0.000 C 
BRANCH  11  14
ATOM     12  C   UNL     1       6.843   4.945  16.315  0.00  0.00    +0.000 C 
ATOM     13  O   UNL     1       7.866   4.498  16.826  0.00  0.00    +0.000 OA
ATOM     14  N   UNL     1       5.760   5.382  17.040  0.00  0.00    +0.000 N 
ATOM     15  H   UNL     1       4.918   5.702  16.571  0.00  0.00    +0.000 HD
BRANCH  12  16
ATOM     16  C   UNL     1       6.688   5.090  14.823  0.00  0.00    +0.000 C 
BRANCH  16  17
ATOM     17  C   UNL     1       6.321   3.747  14.214  0.00  0.00    +0.000 C 
BRANCH  17  19
ATOM     18  C   UNL     1       5.474   3.229  12.082  0.00  0.00    +0.000 C 
ATOM     19  O   UNL     1       5.238   3.922  13.301  0.00  0.00    +0.000 OA
ENDBRANCH  17  19
ENDBRANCH  16  17
ENDBRANCH  12  16
ENDBRANCH  11  14
ENDBRANCH   1  11
TORSDOF 7
ENDMDL
MODEL 4
REMARK VINA RESULT:      -5.9      2.999      5.491
REMARK  Name = 
REMARK  11 active torsions:
REMARK  status: ('A' for Active; 'I' for Inactive)
REMARK    1  A    between atoms: C_1  and  O_2
REMARK    2  A    between atoms: O_2  and  C_3
REMARK    3  A    between atoms: C_3  and  C_4
REMARK    4  A    between atoms: C_4  and  C_5
REMARK    5  A    between atoms: N_7  and  C_8
REMARK    6  A    between atoms: C_8  and  C_9
REMARK    7  A    between atoms: C_9  and  C_10
REMARK    8  A    between atoms: C_13  and  C_14
REMARK    9  A    between atoms: N_15  and  C_16
REMARK   10  A    between atoms: C_16  and  C_17
REMARK   11  A    between atoms: C_16  and  C_18
REMARK                            x       y       z     vdW  Elec       q    Type
REMARK                         _______ _______ _______ _____ _____    ______ ____
ROOT
ATOM      1  C   UNL     1       4.736   5.558  19.279  0.00  0.00    +0.000 C 
ENDROOT
BRANCH   1   2
ATOM      2  C   UNL     1       5.091   5.132  17.884  0.00  0.00    +0.000 A 
ATOM      3  N   UNL     1       4.270   4.451  17.104  0.00  0.00    +0.000 NA
ATOM      4  C   UNL     1       4.899   4.312  15.906  0.00  0.00    +0.000 A 
ATOM      5  C   UNL     1       6.146   4.889  15.937  0.00  0.00    +0.000 A 
ATOM      6  C   UNL     1       7.164   4.979  14.862  0.00  0.00    +0.000 C 
ATOM      7  N   UNL     1       6.274   5.409  17.215  0.00  0.00    +0.000 N 
BRANCH   7   8
ATOM      8  C   UNL     1       7.464   6.101  17.713  0.00  0.00    +0.000 C 
ATOM      9  C   UNL     1       7.412   7.618  17.535  0.00  0.00    +0.000 C 
ATOM     10  C   UNL     1       7.842   5.687  19.135  0.00  0.00    +0.000 C 
ENDBRANCH   7   8
ENDBRANCH   1   2
BRANCH   1  11
ATOM     11  C   UNL     1       3.329   6.163  19.369  0.00  0.00    +0.000 C 
BRANCH  11  14
ATOM     12  C   UNL     1       1.771   4.466  20.316  0.00  0.00    +0.000 C 
ATOM     13  O   UNL     1       2.092   4.679  21.482  0.00  0.00    +0.000 OA
ATOM     14  N   UNL     1       2.288   5.156  19.247  0.00  0.00    +0.000 N 
ATOM     15  H   UNL     1       1.958   4.975  18.304  0.00  0.00    +0.000 HD
BRANCH  12  16
ATOM     16  C   UNL     1       0.789   3.386  19.938  0.00  0.00    +0.000 C 
BRANCH  16  17
ATOM     17  C   UNL     1       1.439   2.424  18.959  0.00  0.00    +0.000 C 
BRANCH  17  19
ATOM     18  C   UNL     1       3.542   1.509  18.438  0.00  0.00    +0.000 C 
ATOM     19  O   UNL     1       2.703   2.009  19.473  0.00  0.00    +0.000 OA
ENDBRANCH  17  19
ENDBRANCH  16  17
ENDBRANCH  12  16
ENDBRANCH  11  14
ENDBRANCH   1  11
TORSDOF 7
ENDMDL
MODEL 5
REMARK VINA RESULT:      -5.8      1.146      1.268
REMARK  Name = 
REMARK  11 active torsions:
REMARK  status: ('A' for Active; 'I' for Inactive)
REMARK    1  A    between atoms: C_1  and  O_2
REMARK    2  A    between atoms: O_2  and  C_3
REMARK    3  A    between atoms: C_3  and  C_4
REMARK    4  A    between atoms: C_4  and  C_5
REMARK    5  A    between atoms: N_7  and  C_8
REMARK    6  A    between atoms: C_8  and  C_9
REMARK    7  A    between atoms: C_9  and  C_10
REMARK    8  A    between atoms: C_13  and  C_14
REMARK    9  A    between atoms: N_15  and  C_16
REMARK   10  A    between atoms: C_16  and  C_17
REMARK   11  A    between atoms: C_16  and  C_18
REMARK                            x       y       z     vdW  Elec       q    Type
REMARK                         _______ _______ _______ _____ _____    ______ ____
ROOT
ATOM      1  C   UNL     1       5.336   5.224  18.705  0.00  0.00    +0.000 C 
ENDROOT
BRANCH   1   2
ATOM      2  C   UNL     1       4.558   4.114  19.349  0.00  0.00    +0.000 A 
ATOM      3  N   UNL     1       5.112   2.990  19.768  0.00  0.00    +0.000 NA
ATOM      4  C   UNL     1       4.122   2.264  20.353  0.00  0.00    +0.000 A 
ATOM      5  C   UNL     1       2.919   2.925  20.279  0.00  0.00    +0.000 A 
ATOM      6  C   UNL     1       1.589   2.511  20.788  0.00  0.00    +0.000 C 
ATOM      7  N   UNL     1       3.198   4.113  19.622  0.00  0.00    +0.000 N 
BRANCH   7   8
ATOM      8  C   UNL     1       2.200   5.133  19.296  0.00  0.00    +0.000 C 
ATOM      9  C   UNL     1       2.477   6.492  19.939  0.00  0.00    +0.000 C 
ATOM     10  C   UNL     1       1.924   5.236  17.795  0.00  0.00    +0.000 C 
ENDBRANCH   7   8
ENDBRANCH   1   2
BRANCH   1  11
ATOM     11  C   UNL     1       6.584   4.718  17.971  0.00  0.00    +0.000 C 
BRANCH  11  14
ATOM     12  C   UNL     1       6.713   4.586  15.486  0.00  0.00    +0.000 C 
ATOM     13  O   UNL     1       7.486   5.533  15.378  0.00  0.00    +0.000 OA
ATOM     14  N   UNL     1       6.260   4.108  16.692  0.00  0.00    +0.000 N 
ATOM     15  H   UNL     1       5.657   3.292  16.733  0.00  0.00    +0.000 HD
BRANCH  12  16
ATOM     16  C   UNL     1       6.152   3.867  14.286  0.00  0.00    +0.000 C 
BRANCH  16  17
ATOM     17  C   UNL     1       7.097   4.028  13.106  0.00  0.00    +0.000 C 
BRANCH  17  19
ATOM     18  C   UNL     1       5.216   3.101  12.042  0.00  0.00    +0.000 C 
ATOM     19  O   UNL     1       6.354   3.940  11.891  0.00  0.00    +0.000 OA
ENDBRANCH  17  19
ENDBRANCH  16  17
ENDBRANCH  12  16
ENDBRANCH  11  14
ENDBRANCH   1  11
TORSDOF 7
ENDMDL
MODEL 6
REMARK VINA RESULT:      -5.8      3.101      5.920
REMARK  Name = 
REMARK  11 active torsions:
REMARK  status: ('A' for Active; 'I' for Inactive)
REMARK    1  A    between atoms: C_1  and  O_2
REMARK    2  A    between atoms: O_2  and  C_3
REMARK    3  A    between atoms: C_3  and  C_4
REMARK    4  A    between atoms: C_4  and  C_5
REMARK    5  A    between atoms: N_7  and  C_8
REMARK    6  A    between atoms: C_8  and  C_9
REMARK    7  A    between atoms: C_9  and  C_10
REMARK    8  A    between atoms: C_13  and  C_14
REMARK    9  A    between atoms: N_15  and  C_16
REMARK   10  A    between atoms: C_16  and  C_17
REMARK   11  A    between atoms: C_16  and  C_18
REMARK                            x       y       z     vdW  Elec       q    Type
REMARK                         _______ _______ _______ _____ _____    ______ ____
ROOT
ATOM      1  C   UNL     1       4.307   2.828  17.324  0.00  0.00    +0.000 C 
ENDROOT
BRANCH   1   2
ATOM      2  C   UNL     1       5.128   3.960  17.871  0.00  0.00    +0.000 A 
ATOM      3  N   UNL     1       5.390   4.108  19.157  0.00  0.00    +0.000 NA
ATOM      4  C   UNL     1       6.209   5.189  19.264  0.00  0.00    +0.000 A 
ATOM      5  C   UNL     1       6.445   5.749  18.031  0.00  0.00    +0.000 A 
ATOM      6  C   UNL     1       7.278   6.925  17.681  0.00  0.00    +0.000 C 
ATOM      7  N   UNL     1       5.740   4.963  17.134  0.00  0.00    +0.000 N 
BRANCH   7   8
ATOM      8  C   UNL     1       5.681   5.203  15.691  0.00  0.00    +0.000 C 
ATOM      9  C   UNL     1       5.182   6.599  15.320  0.00  0.00    +0.000 C 
ATOM     10  C   UNL     1       6.977   4.829  14.972  0.00  0.00    +0.000 C 
ENDBRANCH   7   8
ENDBRANCH   1   2
BRANCH   1  11
ATOM     11  C   UNL     1       2.802   3.123  17.358  0.00  0.00    +0.000 C 
BRANCH  11  14
ATOM     12  C   UNL     1       1.178   3.182  19.246  0.00  0.00    +0.000 C 
ATOM     13  O   UNL     1       0.415   2.363  18.744  0.00  0.00    +0.000 OA
ATOM     14  N   UNL     1       2.360   3.576  18.666  0.00  0.00    +0.000 N 
ATOM     15  H   UNL     1       2.981   4.224  19.142  0.00  0.00    +0.000 HD
BRANCH  12  16
ATOM     16  C   UNL     1       0.871   3.872  20.551  0.00  0.00    +0.000 C 
BRANCH  16  17
ATOM     17  C   UNL     1       2.026   4.782  20.934  0.00  0.00    +0.000 C 
BRANCH  17  19
ATOM     18  C   UNL     1       2.457   6.731  19.692  0.00  0.00    +0.000 C 
ATOM     19  O   UNL     1       1.654   6.140  20.706  0.00  0.00    +0.000 OA
ENDBRANCH  17  19
ENDBRANCH  16  17
ENDBRANCH  12  16
ENDBRANCH  11  14
ENDBRANCH   1  11
TORSDOF 7
ENDMDL
MODEL 7
REMARK VINA RESULT:      -5.8      2.386      4.325
REMARK  Name = 
REMARK  11 active torsions:
REMARK  status: ('A' for Active; 'I' for Inactive)
REMARK    1  A    between atoms: C_1  and  O_2
REMARK    2  A    between atoms: O_2  and  C_3
REMARK    3  A    between atoms: C_3  and  C_4
REMARK    4  A    between atoms: C_4  and  C_5
REMARK    5  A    between atoms: N_7  and  C_8
REMARK    6  A    between atoms: C_8  and  C_9
REMARK    7  A    between atoms: C_9  and  C_10
REMARK    8  A    between atoms: C_13  and  C_14
REMARK    9  A    between atoms: N_15  and  C_16
REMARK   10  A    between atoms: C_16  and  C_17
REMARK   11  A    between atoms: C_16  and  C_18
REMARK                            x       y       z     vdW  Elec       q    Type
REMARK                         _______ _______ _______ _____ _____    ______ ____
ROOT
ATOM      1  C   UNL     1       4.124   3.901  16.604  0.00  0.00    +0.000 C 
ENDROOT
BRANCH   1   2
ATOM      2  C   UNL     1       3.485   4.755  17.661  0.00  0.00    +0.000 A 
ATOM      3  N   UNL     1       3.497   6.076  17.629  0.00  0.00    +0.000 NA
ATOM      4  C   UNL     1       2.768   6.496  18.698  0.00  0.00    +0.000 A 
ATOM      5  C   UNL     1       2.312   5.426  19.432  0.00  0.00    +0.000 A 
ATOM      6  C   UNL     1       1.481   5.419  20.660  0.00  0.00    +0.000 C 
ATOM      7  N   UNL     1       2.783   4.305  18.769  0.00  0.00    +0.000 N 
BRANCH   7   8
ATOM      8  C   UNL     1       2.559   2.927  19.210  0.00  0.00    +0.000 C 
ATOM      9  C   UNL     1       3.025   2.656  20.640  0.00  0.00    +0.000 C 
ATOM     10  C   UNL     1       1.130   2.445  18.954  0.00  0.00    +0.000 C 
ENDBRANCH   7   8
ENDBRANCH   1   2
BRANCH   1  11
ATOM     11  C   UNL     1       5.618   4.204  16.428  0.00  0.00    +0.000 C 
BRANCH  11  14
ATOM     12  C   UNL     1       7.456   4.871  17.971  0.00  0.00    +0.000 C 
ATOM     13  O   UNL     1       8.301   4.167  17.426  0.00  0.00    +0.000 OA
ATOM     14  N   UNL     1       6.157   4.974  17.536  0.00  0.00    +0.000 N 
ATOM     15  H   UNL     1       5.505   5.605  17.993  0.00  0.00    +0.000 HD
BRANCH  12  16
ATOM     16  C   UNL     1       7.759   5.676  19.210  0.00  0.00    +0.000 C 
BRANCH  16  17
ATOM     17  C   UNL     1       8.365   7.012  18.816  0.00  0.00    +0.000 C 
BRANCH  17  19
ATOM     18  C   UNL     1       7.835   8.994  17.667  0.00  0.00    +0.000 C 
ATOM     19  O   UNL     1       7.584   7.598  17.776  0.00  0.00    +0.000 OA
ENDBRANCH  17  19
ENDBRANCH  16  17
ENDBRANCH  12  16
ENDBRANCH  11  14
ENDBRANCH   1  11
TORSDOF 7
ENDMDL
MODEL 8
REMARK VINA RESULT:      -5.7      2.769      5.786
REMARK  Name = 
REMARK  11 active torsions:
REMARK  status: ('A' for Active; 'I' for Inactive)
REMARK    1  A    between atoms: C_1  and  O_2
REMARK    2  A    between atoms: O_2  and  C_3
REMARK    3  A    between atoms: C_3  and  C_4
REMARK    4  A    between atoms: C_4  and  C_5
REMARK    5  A    between atoms: N_7  and  C_8
REMARK    6  A    between atoms: C_8  and  C_9
REMARK    7  A    between atoms: C_9  and  C_10
REMARK    8  A    between atoms: C_13  and  C_14
REMARK    9  A    between atoms: N_15  and  C_16
REMARK   10  A    between atoms: C_16  and  C_17
REMARK   11  A    between atoms: C_16  and  C_18
REMARK                            x       y       z     vdW  Elec       q    Type
REMARK                         _______ _______ _______ _____ _____    ______ ____
ROOT
ATOM      1  C   UNL     1       4.554   3.369  17.265  0.00  0.00    +0.000 C 
ENDROOT
BRANCH   1   2
ATOM      2  C   UNL     1       5.468   4.356  17.933  0.00  0.00    +0.000 A 
ATOM      3  N   UNL     1       5.678   4.379  19.237  0.00  0.00    +0.000 NA
ATOM      4  C   UNL     1       6.607   5.347  19.463  0.00  0.00    +0.000 A 
ATOM      5  C   UNL     1       6.968   5.963  18.289  0.00  0.00    +0.000 A 
ATOM      6  C   UNL     1       7.946   7.056  18.067  0.00  0.00    +0.000 C 
ATOM      7  N   UNL     1       6.226   5.331  17.304  0.00  0.00    +0.000 N 
BRANCH   7   8
ATOM      8  C   UNL     1       6.270   5.679  15.882  0.00  0.00    +0.000 C 
ATOM      9  C   UNL     1       6.494   4.479  14.962  0.00  0.00    +0.000 C 
ATOM     10  C   UNL     1       5.087   6.544  15.446  0.00  0.00    +0.000 C 
ENDBRANCH   7   8
ENDBRANCH   1   2
BRANCH   1  11
ATOM     11  C   UNL     1       3.118   3.894  17.132  0.00  0.00    +0.000 C 
BRANCH  11  14
ATOM     12  C   UNL     1       2.409   5.656  18.745  0.00  0.00    +0.000 C 
ATOM     13  O   UNL     1       2.646   6.587  17.982  0.00  0.00    +0.000 OA
ATOM     14  N   UNL     1       2.574   4.335  18.405  0.00  0.00    +0.000 N 
ATOM     15  H   UNL     1       2.321   3.596  19.055  0.00  0.00    +0.000 HD
BRANCH  12  16
ATOM     16  C   UNL     1       1.940   5.876  20.161  0.00  0.00    +0.000 C 
BRANCH  16  17
ATOM     17  C   UNL     1       1.305   4.603  20.693  0.00  0.00    +0.000 C 
BRANCH  17  19
ATOM     18  C   UNL     1       1.776   2.534  21.707  0.00  0.00    +0.000 C 
ATOM     19  O   UNL     1       2.329   3.708  21.126  0.00  0.00    +0.000 OA
ENDBRANCH  17  19
ENDBRANCH  16  17
ENDBRANCH  12  16
ENDBRANCH  11  14
ENDBRANCH   1  11
TORSDOF 7
ENDMDL
MODEL 9
REMARK VINA RESULT:      -5.7      1.927      2.699
REMARK  Name = 
REMARK  11 active torsions:
REMARK  status: ('A' for Active; 'I' for Inactive)
REMARK    1  A    between atoms: C_1  and  O_2
REMARK    2  A    between atoms: O_2  and  C_3
REMARK    3  A    between atoms: C_3  and  C_4
REMARK    4  A    between atoms: C_4  and  C_5
REMARK    5  A    between atoms: N_7  and  C_8
REMARK    6  A    between atoms: C_8  and  C_9
REMARK    7  A    between atoms: C_9  and  C_10
REMARK    8  A    between atoms: C_13  and  C_14
REMARK    9  A    between atoms: N_15  and  C_16
REMARK   10  A    between atoms: C_16  and  C_17
REMARK   11  A    between atoms: C_16  and  C_18
REMARK                            x       y       z     vdW  Elec       q    Type
REMARK                         _______ _______ _______ _____ _____    ______ ____
ROOT
ATOM      1  C   UNL     1       5.297   3.725  19.476  0.00  0.00    +0.000 C 
ENDROOT
BRANCH   1   2
ATOM      2  C   UNL     1       4.008   3.258  18.867  0.00  0.00    +0.000 A 
ATOM      3  N   UNL     1       3.929   2.721  17.662  0.00  0.00    +0.000 NA
ATOM      4  C   UNL     1       2.630   2.359  17.483  0.00  0.00    +0.000 A 
ATOM      5  C   UNL     1       1.871   2.697  18.578  0.00  0.00    +0.000 A 
ATOM      6  C   UNL     1       0.423   2.484  18.816  0.00  0.00    +0.000 C 
ATOM      7  N   UNL     1       2.758   3.285  19.466  0.00  0.00    +0.000 N 
BRANCH   7   8
ATOM      8  C   UNL     1       2.383   3.826  20.774  0.00  0.00    +0.000 C 
ATOM      9  C   UNL     1       1.559   5.112  20.694  0.00  0.00    +0.000 C 
ATOM     10  C   UNL     1       1.755   2.779  21.693  0.00  0.00    +0.000 C 
ENDBRANCH   7   8
ENDBRANCH   1   2
BRANCH   1  11
ATOM     11  C   UNL     1       5.606   5.192  19.147  0.00  0.00    +0.000 C 
BRANCH  11  14
ATOM     12  C   UNL     1       4.987   6.043  16.888  0.00  0.00    +0.000 C 
ATOM     13  O   UNL     1       3.943   6.567  17.265  0.00  0.00    +0.000 OA
ATOM     14  N   UNL     1       5.859   5.396  17.730  0.00  0.00    +0.000 N 
ATOM     15  H   UNL     1       6.734   5.017  17.379  0.00  0.00    +0.000 HD
BRANCH  12  16
ATOM     16  C   UNL     1       5.402   6.031  15.439  0.00  0.00    +0.000 C 
BRANCH  16  17
ATOM     17  C   UNL     1       6.624   5.145  15.265  0.00  0.00    +0.000 C 
BRANCH  17  19
ATOM     18  C   UNL     1       6.112   3.707  13.476  0.00  0.00    +0.000 C 
ATOM     19  O   UNL     1       6.208   3.833  14.890  0.00  0.00    +0.000 OA
ENDBRANCH  17  19
ENDBRANCH  16  17
ENDBRANCH  12  16
ENDBRANCH  11  14
ENDBRANCH   1  11
TORSDOF 7
ENDMDL
