MODEL 1
REMARK VINA RESULT:      -6.8      0.000      0.000
REMARK  Name = 
REMARK  3 active torsions:
REMARK  status: ('A' for Active; 'I' for Inactive)
REMARK    1  A    between atoms: C_1  and  C_2
REMARK    2  A    between atoms: C_2  and  C_4
REMARK    3  A    between atoms: N_20  and  C_21
REMARK                            x       y       z     vdW  Elec       q    Type
REMARK                         _______ _______ _______ _____ _____    ______ ____
ROOT
ATOM      1  C   UNL     1       0.750   9.506  19.820  0.00  0.00    +0.000 A 
ATOM      2  C   UNL     1       1.428   9.004  18.723  0.00  0.00    +0.000 A 
ATOM      3  C   UNL     1       2.077   7.767  19.006  0.00  0.00    +0.000 A 
ATOM      4  C   UNL     1       1.883   7.362  20.310  0.00  0.00    +0.000 A 
ATOM      5  S   UNL     1       1.009   8.524  21.201  0.00  0.00    +0.000 S 
ATOM      6  N   UNL     1       2.228   6.178  20.886  0.00  0.00    +0.000 N 
ATOM      7  C   UNL     1       1.851   5.023  20.160  0.00  0.00    +0.000 A 
ATOM      8  C   UNL     1       1.062   4.050  20.797  0.00  0.00    +0.000 A 
ATOM      9  C   UNL     1       0.535   2.972  20.084  0.00  0.00    +0.000 A 
ATOM     10  C   UNL     1       0.795   2.843  18.724  0.00  0.00    +0.000 A 
ATOM     11  C   UNL     1       1.586   3.792  18.079  0.00  0.00    +0.000 A 
ATOM     12  C   UNL     1       2.122   4.881  18.790  0.00  0.00    +0.000 A 
ATOM     13  C   UNL     1       3.011   5.839  18.026  0.00  0.00    +0.000 C 
ATOM     14  N   UNL     1       3.970   5.254  17.190  0.00  0.00    +0.000 N 
ATOM     15  C   UNL     1       4.734   4.056  17.581  0.00  0.00    +0.000 C 
ATOM     16  C   UNL     1       6.251   4.335  17.563  0.00  0.00    +0.000 C 
ATOM     17  N   UNL     1       6.696   4.791  16.232  0.00  0.00    +0.000 NA
ATOM     18  C   UNL     1       8.142   5.000  16.210  0.00  0.00    +0.000 C 
ATOM     19  C   UNL     1       5.972   6.041  15.901  0.00  0.00    +0.000 C 
ATOM     20  C   UNL     1       4.434   5.881  15.945  0.00  0.00    +0.000 C 
ATOM     21  N   UNL     1       2.916   7.148  18.060  0.00  0.00    +0.000 NA
ATOM     22  H   UNL     1       1.994   6.101  21.871  0.00  0.00    +0.000 HD
ENDROOT
BRANCH   1  24
ATOM     23  C   UNL     1      -1.224  10.852  18.982  0.00  0.00    +0.000 C 
ATOM     24  C   UNL     1      -0.091  10.688  19.965  0.00  0.00    +0.000 C 
ATOM     25  O   UNL     1       0.059  11.537  20.845  0.00  0.00    +0.000 OA
ENDBRANCH   1  24
TORSDOF 1
ENDMDL
MODEL 2
REMARK VINA RESULT:      -6.4      6.705     11.810
REMARK  Name = 
REMARK  3 active torsions:
REMARK  status: ('A' for Active; 'I' for Inactive)
REMARK    1  A    between atoms: C_1  and  C_2
REMARK    2  A    between atoms: C_2  and  C_4
REMARK    3  A    between atoms: N_20  and  C_21
REMARK                            x       y       z     vdW  Elec       q    Type
REMARK                         _______ _______ _______ _____ _____    ______ ____
ROOT
ATOM      1  C   UNL     1      -0.847  10.904  22.245  0.00  0.00    +0.000 A 
ATOM      2  C   UNL     1      -1.867  11.536  22.934  0.00  0.00    +0.000 A 
ATOM      3  C   UNL     1      -2.700  12.313  22.076  0.00  0.00    +0.000 A 
ATOM      4  C   UNL     1      -2.292  12.256  20.760  0.00  0.00    +0.000 A 
ATOM      5  S   UNL     1      -0.855  11.353  20.590  0.00  0.00    +0.000 S 
ATOM      6  N   UNL     1      -2.923  12.748  19.659  0.00  0.00    +0.000 N 
ATOM      7  C   UNL     1      -4.296  12.420  19.555  0.00  0.00    +0.000 A 
ATOM      8  C   UNL     1      -4.751  11.770  18.394  0.00  0.00    +0.000 A 
ATOM      9  C   UNL     1      -6.058  11.288  18.306  0.00  0.00    +0.000 A 
ATOM     10  C   UNL     1      -6.935  11.453  19.373  0.00  0.00    +0.000 A 
ATOM     11  C   UNL     1      -6.503  12.105  20.527  0.00  0.00    +0.000 A 
ATOM     12  C   UNL     1      -5.188  12.596  20.623  0.00  0.00    +0.000 A 
ATOM     13  C   UNL     1      -4.815  13.335  21.891  0.00  0.00    +0.000 C 
ATOM     14  N   UNL     1      -5.745  14.275  22.351  0.00  0.00    +0.000 N 
ATOM     15  C   UNL     1      -6.481  15.170  21.441  0.00  0.00    +0.000 C 
ATOM     16  C   UNL     1      -6.220  16.650  21.786  0.00  0.00    +0.000 C 
ATOM     17  N   UNL     1      -6.594  16.950  23.182  0.00  0.00    +0.000 NA
ATOM     18  C   UNL     1      -6.395  18.365  23.482  0.00  0.00    +0.000 C 
ATOM     19  C   UNL     1      -5.779  16.095  24.076  0.00  0.00    +0.000 C 
ATOM     20  C   UNL     1      -5.930  14.585  23.775  0.00  0.00    +0.000 C 
ATOM     21  N   UNL     1      -3.725  13.128  22.593  0.00  0.00    +0.000 NA
ATOM     22  H   UNL     1      -2.429  12.597  18.784  0.00  0.00    +0.000 HD
ENDROOT
BRANCH   1  24
ATOM     23  C   UNL     1       1.033   9.319  21.641  0.00  0.00    +0.000 C 
ATOM     24  C   UNL     1       0.181   9.975  22.700  0.00  0.00    +0.000 C 
ATOM     25  O   UNL     1       0.400   9.716  23.884  0.00  0.00    +0.000 OA
ENDBRANCH   1  24
TORSDOF 1
ENDMDL
MODEL 3
REMARK VINA RESULT:      -6.4      6.023     10.989
REMARK  Name = 
REMARK  3 active torsions:
REMARK  status: ('A' for Active; 'I' for Inactive)
REMARK    1  A    between atoms: C_1  and  C_2
REMARK    2  A    between atoms: C_2  and  C_4
REMARK    3  A    between atoms: N_20  and  C_21
REMARK                            x       y       z     vdW  Elec       q    Type
REMARK                         _______ _______ _______ _____ _____    ______ ____
ROOT
ATOM      1  C   UNL     1      -0.381  10.493  19.301  0.00  0.00    +0.000 A 
ATOM      2  C   UNL     1      -0.886  11.357  20.256  0.00  0.00    +0.000 A 
ATOM      3  C   UNL     1      -2.052  12.043  19.803  0.00  0.00    +0.000 A 
ATOM      4  C   UNL     1      -2.400  11.689  18.517  0.00  0.00    +0.000 A 
ATOM      5  S   UNL     1      -1.263  10.614  17.836  0.00  0.00    +0.000 S 
ATOM      6  N   UNL     1      -3.520  12.027  17.822  0.00  0.00    +0.000 N 
ATOM      7  C   UNL     1      -4.738  11.843  18.518  0.00  0.00    +0.000 A 
ATOM      8  C   UNL     1      -5.734  11.038  17.936  0.00  0.00    +0.000 A 
ATOM      9  C   UNL     1      -6.888  10.698  18.645  0.00  0.00    +0.000 A 
ATOM     10  C   UNL     1      -7.069  11.162  19.944  0.00  0.00    +0.000 A 
ATOM     11  C   UNL     1      -6.097  11.971  20.530  0.00  0.00    +0.000 A 
ATOM     12  C   UNL     1      -4.933  12.320  19.822  0.00  0.00    +0.000 A 
ATOM     13  C   UNL     1      -3.951  13.241  20.514  0.00  0.00    +0.000 C 
ATOM     14  N   UNL     1      -4.504  14.351  21.166  0.00  0.00    +0.000 N 
ATOM     15  C   UNL     1      -5.615  15.131  20.593  0.00  0.00    +0.000 C 
ATOM     16  C   UNL     1      -5.220  16.611  20.414  0.00  0.00    +0.000 C 
ATOM     17  N   UNL     1      -4.802  17.214  21.696  0.00  0.00    +0.000 NA
ATOM     18  C   UNL     1      -4.483  18.629  21.526  0.00  0.00    +0.000 C 
ATOM     19  C   UNL     1      -3.633  16.460  22.206  0.00  0.00    +0.000 C 
ATOM     20  C   UNL     1      -3.911  14.947  22.370  0.00  0.00    +0.000 C 
ATOM     21  N   UNL     1      -2.654  13.052  20.579  0.00  0.00    +0.000 NA
ATOM     22  H   UNL     1      -3.561  11.657  16.877  0.00  0.00    +0.000 HD
ENDROOT
BRANCH   1  24
ATOM     23  C   UNL     1       1.461   9.278  18.059  0.00  0.00    +0.000 C 
ATOM     24  C   UNL     1       0.738   9.559  19.353  0.00  0.00    +0.000 C 
ATOM     25  O   UNL     1       1.130   9.011  20.385  0.00  0.00    +0.000 OA
ENDBRANCH   1  24
TORSDOF 1
ENDMDL
MODEL 4
REMARK VINA RESULT:      -6.4      6.615      8.702
REMARK  Name = 
REMARK  3 active torsions:
REMARK  status: ('A' for Active; 'I' for Inactive)
REMARK    1  A    between atoms: C_1  and  C_2
REMARK    2  A    between atoms: C_2  and  C_4
REMARK    3  A    between atoms: N_20  and  C_21
REMARK                            x       y       z     vdW  Elec       q    Type
REMARK                         _______ _______ _______ _____ _____    ______ ____
ROOT
ATOM      1  C   UNL     1      -5.142  12.980  22.834  0.00  0.00    +0.000 A 
ATOM      2  C   UNL     1      -4.422  13.340  21.709  0.00  0.00    +0.000 A 
ATOM      3  C   UNL     1      -3.025  13.099  21.859  0.00  0.00    +0.000 A 
ATOM      4  C   UNL     1      -2.716  12.568  23.093  0.00  0.00    +0.000 A 
ATOM      5  S   UNL     1      -4.096  12.461  24.090  0.00  0.00    +0.000 S 
ATOM      6  N   UNL     1      -1.521  12.084  23.528  0.00  0.00    +0.000 N 
ATOM      7  C   UNL     1      -0.883  11.177  22.649  0.00  0.00    +0.000 A 
ATOM      8  C   UNL     1      -0.530   9.903  23.130  0.00  0.00    +0.000 A 
ATOM      9  C   UNL     1      -0.042   8.920  22.267  0.00  0.00    +0.000 A 
ATOM     10  C   UNL     1       0.110   9.195  20.913  0.00  0.00    +0.000 A 
ATOM     11  C   UNL     1      -0.223  10.456  20.422  0.00  0.00    +0.000 A 
ATOM     12  C   UNL     1      -0.714  11.453  21.284  0.00  0.00    +0.000 A 
ATOM     13  C   UNL     1      -1.006  12.811  20.679  0.00  0.00    +0.000 C 
ATOM     14  N   UNL     1      -0.030  13.320  19.814  0.00  0.00    +0.000 N 
ATOM     15  C   UNL     1       1.412  13.183  20.080  0.00  0.00    +0.000 C 
ATOM     16  C   UNL     1       2.097  14.563  20.153  0.00  0.00    +0.000 C 
ATOM     17  N   UNL     1       1.896  15.329  18.908  0.00  0.00    +0.000 NA
ATOM     18  C   UNL     1       2.593  16.610  18.966  0.00  0.00    +0.000 C 
ATOM     19  C   UNL     1       0.440  15.522  18.710  0.00  0.00    +0.000 C 
ATOM     20  C   UNL     1      -0.350  14.193  18.675  0.00  0.00    +0.000 C 
ATOM     21  N   UNL     1      -2.103  13.504  20.874  0.00  0.00    +0.000 NA
ATOM     22  H   UNL     1      -1.523  11.748  24.487  0.00  0.00    +0.000 HD
ENDROOT
BRANCH   1  24
ATOM     23  C   UNL     1      -7.341  14.225  22.689  0.00  0.00    +0.000 C 
ATOM     24  C   UNL     1      -6.577  12.989  23.095  0.00  0.00    +0.000 C 
ATOM     25  O   UNL     1      -7.191  12.050  23.603  0.00  0.00    +0.000 OA
ENDBRANCH   1  24
TORSDOF 1
ENDMDL
MODEL 5
REMARK VINA RESULT:      -6.3      6.221      9.836
REMARK  Name = 
REMARK  3 active torsions:
REMARK  status: ('A' for Active; 'I' for Inactive)
REMARK    1  A    between atoms: C_1  and  C_2
REMARK    2  A    between atoms: C_2  and  C_4
REMARK    3  A    between atoms: N_20  and  C_21
REMARK                            x       y       z     vdW  Elec       q    Type
REMARK                         _______ _______ _______ _____ _____    ______ ____
ROOT
ATOM      1  C   UNL     1       2.861  14.136  19.587  0.00  0.00    +0.000 A 
ATOM      2  C   UNL     1       2.120  14.430  20.718  0.00  0.00    +0.000 A 
ATOM      3  C   UNL     1       0.924  13.658  20.798  0.00  0.00    +0.000 A 
ATOM      4  C   UNL     1       0.782  12.803  19.725  0.00  0.00    +0.000 A 
ATOM      5  S   UNL     1       2.036  13.012  18.589  0.00  0.00    +0.000 S 
ATOM      6  N   UNL     1      -0.149  11.827  19.542  0.00  0.00    +0.000 N 
ATOM      7  C   UNL     1      -0.331  10.954  20.641  0.00  0.00    +0.000 A 
ATOM      8  C   UNL     1      -0.180   9.571  20.438  0.00  0.00    +0.000 A 
ATOM      9  C   UNL     1      -0.195   8.681  21.514  0.00  0.00    +0.000 A 
ATOM     10  C   UNL     1      -0.369   9.157  22.809  0.00  0.00    +0.000 A 
ATOM     11  C   UNL     1      -0.531  10.525  23.026  0.00  0.00    +0.000 A 
ATOM     12  C   UNL     1      -0.519  11.428  21.948  0.00  0.00    +0.000 A 
ATOM     13  C   UNL     1      -0.751  12.890  22.265  0.00  0.00    +0.000 C 
ATOM     14  N   UNL     1      -1.800  13.167  23.151  0.00  0.00    +0.000 N 
ATOM     15  C   UNL     1      -3.085  12.448  23.105  0.00  0.00    +0.000 C 
ATOM     16  C   UNL     1      -4.260  13.423  22.886  0.00  0.00    +0.000 C 
ATOM     17  N   UNL     1      -4.307  14.452  23.942  0.00  0.00    +0.000 NA
ATOM     18  C   UNL     1      -5.455  15.337  23.756  0.00  0.00    +0.000 C 
ATOM     19  C   UNL     1      -3.036  15.213  23.910  0.00  0.00    +0.000 C 
ATOM     20  C   UNL     1      -1.787  14.315  24.069  0.00  0.00    +0.000 C 
ATOM     21  N   UNL     1      -0.027  13.886  21.810  0.00  0.00    +0.000 NA
ATOM     22  H   UNL     1      -0.067  11.322  18.664  0.00  0.00    +0.000 HD
ENDROOT
BRANCH   1  24
ATOM     23  C   UNL     1       5.027  15.311  20.169  0.00  0.00    +0.000 C 
ATOM     24  C   UNL     1       4.160  14.627  19.141  0.00  0.00    +0.000 C 
ATOM     25  O   UNL     1       4.589  14.497  17.994  0.00  0.00    +0.000 OA
ENDBRANCH   1  24
TORSDOF 1
ENDMDL
MODEL 6
REMARK VINA RESULT:      -6.3      3.879      8.389
REMARK  Name = 
REMARK  3 active torsions:
REMARK  status: ('A' for Active; 'I' for Inactive)
REMARK    1  A    between atoms: C_1  and  C_2
REMARK    2  A    between atoms: C_2  and  C_4
REMARK    3  A    between atoms: N_20  and  C_21
REMARK                            x       y       z     vdW  Elec       q    Type
REMARK                         _______ _______ _______ _____ _____    ______ ____
ROOT
ATOM      1  C   UNL     1       2.111   7.344  19.722  0.00  0.00    +0.000 A 
ATOM      2  C   UNL     1       1.447   8.184  20.598  0.00  0.00    +0.000 A 
ATOM      3  C   UNL     1       0.846   9.294  19.934  0.00  0.00    +0.000 A 
ATOM      4  C   UNL     1       1.071   9.273  18.574  0.00  0.00    +0.000 A 
ATOM      5  S   UNL     1       2.086   7.976  18.129  0.00  0.00    +0.000 S 
ATOM      6  N   UNL     1       0.536  10.080  17.617  0.00  0.00    +0.000 N 
ATOM      7  C   UNL     1      -0.869  10.239  17.681  0.00  0.00    +0.000 A 
ATOM      8  C   UNL     1      -1.637   9.928  16.545  0.00  0.00    +0.000 A 
ATOM      9  C   UNL     1      -3.033   9.918  16.602  0.00  0.00    +0.000 A 
ATOM     10  C   UNL     1      -3.683  10.226  17.792  0.00  0.00    +0.000 A 
ATOM     11  C   UNL     1      -2.937  10.548  18.924  0.00  0.00    +0.000 A 
ATOM     12  C   UNL     1      -1.531  10.562  18.875  0.00  0.00    +0.000 A 
ATOM     13  C   UNL     1      -0.797  10.970  20.135  0.00  0.00    +0.000 C 
ATOM     14  N   UNL     1      -1.296  12.098  20.799  0.00  0.00    +0.000 N 
ATOM     15  C   UNL     1      -1.771  13.293  20.079  0.00  0.00    +0.000 C 
ATOM     16  C   UNL     1      -0.984  14.548  20.507  0.00  0.00    +0.000 C 
ATOM     17  N   UNL     1      -1.086  14.775  21.962  0.00  0.00    +0.000 NA
ATOM     18  C   UNL     1      -0.383  15.996  22.349  0.00  0.00    +0.000 C 
ATOM     19  C   UNL     1      -0.525  13.594  22.658  0.00  0.00    +0.000 C 
ATOM     20  C   UNL     1      -1.214  12.269  22.256  0.00  0.00    +0.000 C 
ATOM     21  N   UNL     1       0.222  10.329  20.657  0.00  0.00    +0.000 NA
ATOM     22  H   UNL     1       0.855   9.887  16.673  0.00  0.00    +0.000 HD
ENDROOT
BRANCH   1  24
ATOM     23  C   UNL     1       2.084   5.046  20.785  0.00  0.00    +0.000 C 
ATOM     24  C   UNL     1       2.799   6.078  19.949  0.00  0.00    +0.000 C 
ATOM     25  O   UNL     1       3.907   5.805  19.485  0.00  0.00    +0.000 OA
ENDBRANCH   1  24
TORSDOF 1
ENDMDL
MODEL 7
REMARK VINA RESULT:      -6.2      1.268      1.268
REMARK  Name = 
REMARK  3 active torsions:
REMARK  status: ('A' for Active; 'I' for Inactive)
REMARK    1  A    between atoms: C_1  and  C_2
REMARK    2  A    between atoms: C_2  and  C_4
REMARK    3  A    between atoms: N_20  and  C_21
REMARK                            x       y       z     vdW  Elec       q    Type
REMARK                         _______ _______ _______ _____ _____    ______ ____
ROOT
ATOM      1  C   UNL     1      -0.036   9.726  20.010  0.00  0.00    +0.000 A 
ATOM      2  C   UNL     1       0.977   9.420  19.119  0.00  0.00    +0.000 A 
ATOM      3  C   UNL     1       1.690   8.242  19.492  0.00  0.00    +0.000 A 
ATOM      4  C   UNL     1       1.206   7.686  20.658  0.00  0.00    +0.000 A 
ATOM      5  S   UNL     1      -0.031   8.643  21.340  0.00  0.00    +0.000 S 
ATOM      6  N   UNL     1       1.541   6.497  21.228  0.00  0.00    +0.000 N 
ATOM      7  C   UNL     1       1.540   5.387  20.350  0.00  0.00    +0.000 A 
ATOM      8  C   UNL     1       0.749   4.270  20.672  0.00  0.00    +0.000 A 
ATOM      9  C   UNL     1       0.591   3.217  19.769  0.00  0.00    +0.000 A 
ATOM     10  C   UNL     1       1.227   3.258  18.533  0.00  0.00    +0.000 A 
ATOM     11  C   UNL     1       2.025   4.353  18.203  0.00  0.00    +0.000 A 
ATOM     12  C   UNL     1       2.191   5.417  19.107  0.00  0.00    +0.000 A 
ATOM     13  C   UNL     1       3.112   6.544  18.691  0.00  0.00    +0.000 C 
ATOM     14  N   UNL     1       4.334   6.161  18.125  0.00  0.00    +0.000 N 
ATOM     15  C   UNL     1       5.121   5.025  18.636  0.00  0.00    +0.000 C 
ATOM     16  C   UNL     1       6.532   5.476  19.066  0.00  0.00    +0.000 C 
ATOM     17  N   UNL     1       7.256   6.114  17.949  0.00  0.00    +0.000 NA
ATOM     18  C   UNL     1       8.609   6.488  18.351  0.00  0.00    +0.000 C 
ATOM     19  C   UNL     1       6.483   7.300  17.511  0.00  0.00    +0.000 C 
ATOM     20  C   UNL     1       5.029   6.961  17.107  0.00  0.00    +0.000 C 
ATOM     21  N   UNL     1       2.832   7.823  18.784  0.00  0.00    +0.000 NA
ATOM     22  H   UNL     1       1.060   6.294  22.099  0.00  0.00    +0.000 HD
ENDROOT
BRANCH   1  24
ATOM     23  C   UNL     1      -1.720  11.060  18.670  0.00  0.00    +0.000 C 
ATOM     24  C   UNL     1      -1.041  10.783  19.989  0.00  0.00    +0.000 C 
ATOM     25  O   UNL     1      -1.373  11.437  20.978  0.00  0.00    +0.000 OA
ENDBRANCH   1  24
TORSDOF 1
ENDMDL
MODEL 8
REMARK VINA RESULT:      -6.2      6.554      7.799
REMARK  Name = 
REMARK  3 active torsions:
REMARK  status: ('A' for Active; 'I' for Inactive)
REMARK    1  A    between atoms: C_1  and  C_2
REMARK    2  A    between atoms: C_2  and  C_4
REMARK    3  A    between atoms: N_20  and  C_21
REMARK                            x       y       z     vdW  Elec       q    Type
REMARK                         _______ _______ _______ _____ _____    ______ ____
ROOT
ATOM      1  C   UNL     1      -4.362  11.971  18.733  0.00  0.00    +0.000 A 
ATOM      2  C   UNL     1      -3.068  12.039  18.248  0.00  0.00    +0.000 A 
ATOM      3  C   UNL     1      -2.116  12.298  19.278  0.00  0.00    +0.000 A 
ATOM      4  C   UNL     1      -2.709  12.427  20.517  0.00  0.00    +0.000 A 
ATOM      5  S   UNL     1      -4.408  12.335  20.408  0.00  0.00    +0.000 S 
ATOM      6  N   UNL     1      -2.107  12.532  21.733  0.00  0.00    +0.000 N 
ATOM      7  C   UNL     1      -1.095  11.576  21.988  0.00  0.00    +0.000 A 
ATOM      8  C   UNL     1      -1.200  10.769  23.135  0.00  0.00    +0.000 A 
ATOM      9  C   UNL     1      -0.316   9.710  23.352  0.00  0.00    +0.000 A 
ATOM     10  C   UNL     1       0.692   9.445  22.431  0.00  0.00    +0.000 A 
ATOM     11  C   UNL     1       0.817  10.242  21.295  0.00  0.00    +0.000 A 
ATOM     12  C   UNL     1      -0.067  11.313  21.070  0.00  0.00    +0.000 A 
ATOM     13  C   UNL     1       0.168  12.159  19.837  0.00  0.00    +0.000 C 
ATOM     14  N   UNL     1       1.495  12.535  19.594  0.00  0.00    +0.000 N 
ATOM     15  C   UNL     1       2.411  12.945  20.673  0.00  0.00    +0.000 C 
ATOM     16  C   UNL     1       2.949  14.370  20.435  0.00  0.00    +0.000 C 
ATOM     17  N   UNL     1       3.641  14.472  19.135  0.00  0.00    +0.000 NA
ATOM     18  C   UNL     1       4.193  15.810  18.942  0.00  0.00    +0.000 C 
ATOM     19  C   UNL     1       2.673  14.135  18.064  0.00  0.00    +0.000 C 
ATOM     20  C   UNL     1       2.033  12.739  18.242  0.00  0.00    +0.000 C 
ATOM     21  N   UNL     1      -0.758  12.520  18.979  0.00  0.00    +0.000 NA
ATOM     22  H   UNL     1      -2.747  12.627  22.516  0.00  0.00    +0.000 HD
ENDROOT
BRANCH   1  24
ATOM     23  C   UNL     1      -6.517  10.642  18.711  0.00  0.00    +0.000 C 
ATOM     24  C   UNL     1      -5.620  11.667  18.061  0.00  0.00    +0.000 C 
ATOM     25  O   UNL     1      -5.993  12.208  17.019  0.00  0.00    +0.000 OA
ENDBRANCH   1  24
TORSDOF 1
ENDMDL
MODEL 9
REMARK VINA RESULT:      -6.2      6.665     11.726
REMARK  Name = 
REMARK  3 active torsions:
REMARK  status: ('A' for Active; 'I' for Inactive)
REMARK    1  A    between atoms: C_1  and  C_2
REMARK    2  A    between atoms: C_2  and  C_4
REMARK    3  A    between atoms: N_20  and  C_21
REMARK                            x       y       z     vdW  Elec       q    Type
REMARK                         _______ _______ _______ _____ _____    ______ ____
ROOT
ATOM      1  C   UNL     1      -0.721  11.281  20.818  0.00  0.00    +0.000 A 
ATOM      2  C   UNL     1      -1.553  11.872  21.751  0.00  0.00    +0.000 A 
ATOM      3  C   UNL     1      -2.711  12.453  21.155  0.00  0.00    +0.000 A 
ATOM      4  C   UNL     1      -2.728  12.295  19.785  0.00  0.00    +0.000 A 
ATOM      5  S   UNL     1      -1.304  11.540  19.226  0.00  0.00    +0.000 S 
ATOM      6  N   UNL     1      -3.731  12.589  18.913  0.00  0.00    +0.000 N 
ATOM      7  C   UNL     1      -5.009  12.104  19.281  0.00  0.00    +0.000 A 
ATOM      8  C   UNL     1      -5.707  11.284  18.378  0.00  0.00    +0.000 A 
ATOM      9  C   UNL     1      -6.897  10.655  18.750  0.00  0.00    +0.000 A 
ATOM     10  C   UNL     1      -7.413  10.842  20.028  0.00  0.00    +0.000 A 
ATOM     11  C   UNL     1      -6.739  11.662  20.932  0.00  0.00    +0.000 A 
ATOM     12  C   UNL     1      -5.541  12.301  20.565  0.00  0.00    +0.000 A 
ATOM     13  C   UNL     1      -4.898  13.212  21.589  0.00  0.00    +0.000 C 
ATOM     14  N   UNL     1      -5.761  14.091  22.256  0.00  0.00    +0.000 N 
ATOM     15  C   UNL     1      -6.860  14.793  21.570  0.00  0.00    +0.000 C 
ATOM     16  C   UNL     1      -6.712  16.322  21.706  0.00  0.00    +0.000 C 
ATOM     17  N   UNL     1      -6.672  16.733  23.123  0.00  0.00    +0.000 NA
ATOM     18  C   UNL     1      -6.588  18.187  23.241  0.00  0.00    +0.000 C 
ATOM     19  C   UNL     1      -5.510  16.077  23.766  0.00  0.00    +0.000 C 
ATOM     20  C   UNL     1      -5.536  14.536  23.638  0.00  0.00    +0.000 C 
ATOM     21  N   UNL     1      -3.627  13.204  21.915  0.00  0.00    +0.000 NA
ATOM     22  H   UNL     1      -3.517  12.396  17.940  0.00  0.00    +0.000 HD
ENDROOT
BRANCH   1  24
ATOM     23  C   UNL     1       0.905   9.592  19.863  0.00  0.00    +0.000 C 
ATOM     24  C   UNL     1       0.516  10.526  20.982  0.00  0.00    +0.000 C 
ATOM     25  O   UNL     1       1.257  10.623  21.961  0.00  0.00    +0.000 OA
ENDBRANCH   1  24
TORSDOF 1
ENDMDL
