MODEL 1
REMARK VINA RESULT:      -7.6      0.000      0.000
REMARK  Name = 
REMARK  8 active torsions:
REMARK  status: ('A' for Active; 'I' for Inactive)
REMARK    1  A    between atoms: C_1  and  S_2
REMARK    2  A    between atoms: S_2  and  C_3
REMARK    3  A    between atoms: C_6  and  C_7
REMARK    4  A    between atoms: C_8  and  O_9
REMARK    5  A    between atoms: O_9  and  C_10
REMARK    6  A    between atoms: C_16  and  C_17
REMARK    7  A    between atoms: C_20  and  S_21
REMARK    8  A    between atoms: S_21  and  C_24
REMARK                            x       y       z     vdW  Elec       q    Type
REMARK                         _______ _______ _______ _____ _____    ______ ____
ROOT
ATOM      1  C   UNL     1       2.295   5.013  20.687  0.00  0.00    +0.000 A 
ATOM      2  N   UNL     1       1.507   5.939  21.276  0.00  0.00    +0.000 NA
ATOM      3  N   UNL     1       1.530   7.015  20.434  0.00  0.00    +0.000 N 
ATOM      4  C   UNL     1       0.901   8.284  20.555  0.00  0.00    +0.000 A 
ATOM      5  C   UNL     1      -0.013   8.537  21.722  0.00  0.00    +0.000 C 
ATOM      6  C   UNL     1       1.110   9.243  19.613  0.00  0.00    +0.000 A 
ATOM      7  C   UNL     1       2.098   8.844  18.519  0.00  0.00    +0.000 A 
ATOM      8  C   UNL     1       2.732   9.805  17.547  0.00  0.00    +0.000 C 
ATOM      9  N   UNL     1       2.518   7.639  18.338  0.00  0.00    +0.000 NA
ATOM     10  C   UNL     1       2.295   6.725  19.310  0.00  0.00    +0.000 A 
ATOM     11  C   UNL     1       2.816   5.470  19.464  0.00  0.00    +0.000 A 
ENDROOT
BRANCH  11  12
ATOM     12  S   UNL     1       3.893   4.736  18.354  0.00  0.00    +0.000 S 
ATOM     13  O   UNL     1       4.203   3.413  18.880  0.00  0.00    +0.000 OA
ATOM     14  O   UNL     1       3.291   4.865  17.050  0.00  0.00    +0.000 OA
BRANCH  12  15
ATOM     15  C   UNL     1       5.409   5.670  18.379  0.00  0.00    +0.000 A 
ATOM     16  C   UNL     1       6.438   5.328  19.259  0.00  0.00    +0.000 A 
ATOM     17  C   UNL     1       7.681   5.962  19.153  0.00  0.00    +0.000 A 
ATOM     18  C   UNL     1       7.888   6.931  18.166  0.00  0.00    +0.000 A 
ATOM     19  C   UNL     1       6.852   7.284  17.302  0.00  0.00    +0.000 A 
ATOM     20  C   UNL     1       5.616   6.644  17.397  0.00  0.00    +0.000 A 
ENDBRANCH  12  15
ENDBRANCH  11  12
BRANCH   1  22
ATOM     21  C   UNL     1       1.383   2.348  20.398  0.00  0.00    +0.000 C 
ATOM     22  S   UNL     1       2.480   3.407  21.367  0.00  0.00    +0.000 S 
ENDBRANCH   1  22
BRANCH   6  23
ATOM     23  O   UNL     1       0.479  10.493  19.712  0.00  0.00    +0.000 OA
BRANCH  23  24
ATOM     24  C   UNL     1      -0.682  10.761  19.032  0.00  0.00    +0.000 A 
ATOM     25  C   UNL     1      -0.970  10.019  17.885  0.00  0.00    +0.000 A 
ATOM     26  C   UNL     1      -2.235  10.124  17.302  0.00  0.00    +0.000 A 
ATOM     27  C   UNL     1      -3.151  10.992  17.873  0.00  0.00    +0.000 A 
ATOM     28  N   UNL     1      -2.868  11.798  18.916  0.00  0.00    +0.000 NA
ATOM     29  C   UNL     1      -1.630  11.687  19.448  0.00  0.00    +0.000 A 
ENDBRANCH  23  24
ENDBRANCH   6  23
TORSDOF 5
ENDMDL
MODEL 2
REMARK VINA RESULT:      -7.4      0.464      1.010
REMARK  Name = 
REMARK  8 active torsions:
REMARK  status: ('A' for Active; 'I' for Inactive)
REMARK    1  A    between atoms: C_1  and  S_2
REMARK    2  A    between atoms: S_2  and  C_3
REMARK    3  A    between atoms: C_6  and  C_7
REMARK    4  A    between atoms: C_8  and  O_9
REMARK    5  A    between atoms: O_9  and  C_10
REMARK    6  A    between atoms: C_16  and  C_17
REMARK    7  A    between atoms: C_20  and  S_21
REMARK    8  A    between atoms: S_21  and  C_24
REMARK                            x       y       z     vdW  Elec       q    Type
REMARK                         _______ _______ _______ _____ _____    ______ ____
ROOT
ATOM      1  C   UNL     1       2.663   4.751  20.379  0.00  0.00    +0.000 A 
ATOM      2  N   UNL     1       1.896   5.621  21.071  0.00  0.00    +0.000 NA
ATOM      3  N   UNL     1       1.839   6.744  20.294  0.00  0.00    +0.000 N 
ATOM      4  C   UNL     1       1.192   7.987  20.530  0.00  0.00    +0.000 A 
ATOM      5  C   UNL     1       0.353   8.149  21.767  0.00  0.00    +0.000 C 
ATOM      6  C   UNL     1       1.316   9.002  19.633  0.00  0.00    +0.000 A 
ATOM      7  C   UNL     1       2.237   8.692  18.456  0.00  0.00    +0.000 A 
ATOM      8  C   UNL     1       2.783   9.722  17.502  0.00  0.00    +0.000 C 
ATOM      9  N   UNL     1       2.670   7.510  18.177  0.00  0.00    +0.000 NA
ATOM     10  C   UNL     1       2.533   6.538  19.107  0.00  0.00    +0.000 A 
ATOM     11  C   UNL     1       3.091   5.290  19.153  0.00  0.00    +0.000 A 
ENDROOT
BRANCH  11  12
ATOM     12  S   UNL     1       4.107   4.648  17.934  0.00  0.00    +0.000 S 
ATOM     13  O   UNL     1       4.351   3.253  18.279  0.00  0.00    +0.000 OA
ATOM     14  O   UNL     1       3.492   4.975  16.671  0.00  0.00    +0.000 OA
BRANCH  12  15
ATOM     15  C   UNL     1       5.673   5.488  18.042  0.00  0.00    +0.000 A 
ATOM     16  C   UNL     1       5.961   6.564  17.199  0.00  0.00    +0.000 A 
ATOM     17  C   UNL     1       7.122   7.316  17.406  0.00  0.00    +0.000 A 
ATOM     18  C   UNL     1       7.987   6.990  18.456  0.00  0.00    +0.000 A 
ATOM     19  C   UNL     1       7.706   5.904  19.282  0.00  0.00    +0.000 A 
ATOM     20  C   UNL     1       6.542   5.159  19.086  0.00  0.00    +0.000 A 
ENDBRANCH  12  15
ENDBRANCH  11  12
BRANCH   1  22
ATOM     21  C   UNL     1       1.377   2.624  21.735  0.00  0.00    +0.000 C 
ATOM     22  S   UNL     1       2.929   3.114  20.951  0.00  0.00    +0.000 S 
ENDBRANCH   1  22
BRANCH   6  23
ATOM     23  O   UNL     1       0.666  10.229  19.847  0.00  0.00    +0.000 OA
BRANCH  23  24
ATOM     24  C   UNL     1      -0.466  10.565  19.147  0.00  0.00    +0.000 A 
ATOM     25  C   UNL     1      -0.739   9.892  17.955  0.00  0.00    +0.000 A 
ATOM     26  C   UNL     1      -1.981  10.065  17.341  0.00  0.00    +0.000 A 
ATOM     27  C   UNL     1      -2.889  10.930  17.929  0.00  0.00    +0.000 A 
ATOM     28  N   UNL     1      -2.616  11.673  19.020  0.00  0.00    +0.000 NA
ATOM     29  C   UNL     1      -1.399  11.498  19.582  0.00  0.00    +0.000 A 
ENDBRANCH  23  24
ENDBRANCH   6  23
TORSDOF 5
ENDMDL
MODEL 3
REMARK VINA RESULT:      -7.2      2.494      7.711
REMARK  Name = 
REMARK  8 active torsions:
REMARK  status: ('A' for Active; 'I' for Inactive)
REMARK    1  A    between atoms: C_1  and  S_2
REMARK    2  A    between atoms: S_2  and  C_3
REMARK    3  A    between atoms: C_6  and  C_7
REMARK    4  A    between atoms: C_8  and  O_9
REMARK    5  A    between atoms: O_9  and  C_10
REMARK    6  A    between atoms: C_16  and  C_17
REMARK    7  A    between atoms: C_20  and  S_21
REMARK    8  A    between atoms: S_21  and  C_24
REMARK                            x       y       z     vdW  Elec       q    Type
REMARK                         _______ _______ _______ _____ _____    ______ ____
ROOT
ATOM      1  C   UNL     1       0.460   8.747  21.066  0.00  0.00    +0.000 A 
ATOM      2  N   UNL     1       0.829   7.464  21.272  0.00  0.00    +0.000 NA
ATOM      3  N   UNL     1       1.703   7.176  20.262  0.00  0.00    +0.000 N 
ATOM      4  C   UNL     1       2.388   5.967  19.964  0.00  0.00    +0.000 A 
ATOM      5  C   UNL     1       2.247   4.798  20.899  0.00  0.00    +0.000 C 
ATOM      6  C   UNL     1       3.177   5.884  18.858  0.00  0.00    +0.000 A 
ATOM      7  C   UNL     1       3.176   7.141  17.990  0.00  0.00    +0.000 A 
ATOM      8  C   UNL     1       3.706   7.208  16.582  0.00  0.00    +0.000 C 
ATOM      9  N   UNL     1       2.689   8.273  18.369  0.00  0.00    +0.000 NA
ATOM     10  C   UNL     1       1.901   8.300  19.469  0.00  0.00    +0.000 A 
ATOM     11  C   UNL     1       1.098   9.300  19.942  0.00  0.00    +0.000 A 
ENDROOT
BRANCH  11  12
ATOM     12  S   UNL     1       0.958  10.843  19.213  0.00  0.00    +0.000 S 
ATOM     13  O   UNL     1       1.076  11.827  20.282  0.00  0.00    +0.000 OA
ATOM     14  O   UNL     1       1.891  10.866  18.114  0.00  0.00    +0.000 OA
BRANCH  12  15
ATOM     15  C   UNL     1      -0.694  10.982  18.563  0.00  0.00    +0.000 A 
ATOM     16  C   UNL     1      -1.163  10.068  17.617  0.00  0.00    +0.000 A 
ATOM     17  C   UNL     1      -2.511  10.088  17.241  0.00  0.00    +0.000 A 
ATOM     18  C   UNL     1      -3.381  11.021  17.815  0.00  0.00    +0.000 A 
ATOM     19  C   UNL     1      -2.905  11.944  18.744  0.00  0.00    +0.000 A 
ATOM     20  C   UNL     1      -1.564  11.917  19.131  0.00  0.00    +0.000 A 
ENDBRANCH  12  15
ENDBRANCH  11  12
BRANCH   1  22
ATOM     21  C   UNL     1       0.237   9.460  23.797  0.00  0.00    +0.000 C 
ATOM     22  S   UNL     1      -0.586   9.589  22.194  0.00  0.00    +0.000 S 
ENDBRANCH   1  22
BRANCH   6  23
ATOM     23  O   UNL     1       3.874   4.701  18.563  0.00  0.00    +0.000 OA
BRANCH  23  24
ATOM     24  C   UNL     1       5.241   4.691  18.450  0.00  0.00    +0.000 A 
ATOM     25  C   UNL     1       5.808   4.294  17.238  0.00  0.00    +0.000 A 
ATOM     26  C   UNL     1       7.176   4.477  17.030  0.00  0.00    +0.000 A 
ATOM     27  C   UNL     1       7.929   5.022  18.057  0.00  0.00    +0.000 A 
ATOM     28  N   UNL     1       7.431   5.317  19.275  0.00  0.00    +0.000 NA
ATOM     29  C   UNL     1       6.106   5.112  19.452  0.00  0.00    +0.000 A 
ENDBRANCH  23  24
ENDBRANCH   6  23
TORSDOF 5
ENDMDL
MODEL 4
REMARK VINA RESULT:      -7.2      0.897      1.333
REMARK  Name = 
REMARK  8 active torsions:
REMARK  status: ('A' for Active; 'I' for Inactive)
REMARK    1  A    between atoms: C_1  and  S_2
REMARK    2  A    between atoms: S_2  and  C_3
REMARK    3  A    between atoms: C_6  and  C_7
REMARK    4  A    between atoms: C_8  and  O_9
REMARK    5  A    between atoms: O_9  and  C_10
REMARK    6  A    between atoms: C_16  and  C_17
REMARK    7  A    between atoms: C_20  and  S_21
REMARK    8  A    between atoms: S_21  and  C_24
REMARK                            x       y       z     vdW  Elec       q    Type
REMARK                         _______ _______ _______ _____ _____    ______ ____
ROOT
ATOM      1  C   UNL     1       2.654   5.478  19.886  0.00  0.00    +0.000 A 
ATOM      2  N   UNL     1       1.833   6.153  20.720  0.00  0.00    +0.000 NA
ATOM      3  N   UNL     1       1.646   7.371  20.129  0.00  0.00    +0.000 N 
ATOM      4  C   UNL     1       0.895   8.494  20.568  0.00  0.00    +0.000 A 
ATOM      5  C   UNL     1       0.085   8.382  21.830  0.00  0.00    +0.000 C 
ATOM      6  C   UNL     1       0.895   9.644  19.840  0.00  0.00    +0.000 A 
ATOM      7  C   UNL     1       1.804   9.610  18.613  0.00  0.00    +0.000 A 
ATOM      8  C   UNL     1       2.221  10.823  17.823  0.00  0.00    +0.000 C 
ATOM      9  N   UNL     1       2.335   8.532  18.145  0.00  0.00    +0.000 NA
ATOM     10  C   UNL     1       2.319   7.419  18.913  0.00  0.00    +0.000 A 
ATOM     11  C   UNL     1       2.991   6.239  18.753  0.00  0.00    +0.000 A 
ENDROOT
BRANCH  11  12
ATOM     12  S   UNL     1       4.023   5.895  17.431  0.00  0.00    +0.000 S 
ATOM     13  O   UNL     1       3.808   4.496  17.081  0.00  0.00    +0.000 OA
ATOM     14  O   UNL     1       3.787   6.922  16.446  0.00  0.00    +0.000 OA
BRANCH  12  15
ATOM     15  C   UNL     1       5.701   6.030  18.009  0.00  0.00    +0.000 A 
ATOM     16  C   UNL     1       6.572   6.965  17.446  0.00  0.00    +0.000 A 
ATOM     17  C   UNL     1       7.831   7.174  18.019  0.00  0.00    +0.000 A 
ATOM     18  C   UNL     1       8.210   6.449  19.154  0.00  0.00    +0.000 A 
ATOM     19  C   UNL     1       7.346   5.503  19.701  0.00  0.00    +0.000 A 
ATOM     20  C   UNL     1       6.084   5.302  19.139  0.00  0.00    +0.000 A 
ENDBRANCH  12  15
ENDBRANCH  11  12
BRANCH   1  22
ATOM     21  C   UNL     1       1.854   3.196  21.358  0.00  0.00    +0.000 C 
ATOM     22  S   UNL     1       3.089   3.806  20.190  0.00  0.00    +0.000 S 
ENDBRANCH   1  22
BRANCH   6  23
ATOM     23  O   UNL     1       0.142  10.754  20.254  0.00  0.00    +0.000 OA
BRANCH  23  24
ATOM     24  C   UNL     1      -1.021  11.103  19.614  0.00  0.00    +0.000 A 
ATOM     25  C   UNL     1      -1.407  10.376  18.487  0.00  0.00    +0.000 A 
ATOM     26  C   UNL     1      -2.681  10.572  17.950  0.00  0.00    +0.000 A 
ATOM     27  C   UNL     1      -3.507  11.511  18.546  0.00  0.00    +0.000 A 
ATOM     28  N   UNL     1      -3.125  12.302  19.568  0.00  0.00    +0.000 NA
ATOM     29  C   UNL     1      -1.880  12.102  20.055  0.00  0.00    +0.000 A 
ENDBRANCH  23  24
ENDBRANCH   6  23
TORSDOF 5
ENDMDL
MODEL 5
REMARK VINA RESULT:      -7.1      1.046      1.227
REMARK  Name = 
REMARK  8 active torsions:
REMARK  status: ('A' for Active; 'I' for Inactive)
REMARK    1  A    between atoms: C_1  and  S_2
REMARK    2  A    between atoms: S_2  and  C_3
REMARK    3  A    between atoms: C_6  and  C_7
REMARK    4  A    between atoms: C_8  and  O_9
REMARK    5  A    between atoms: O_9  and  C_10
REMARK    6  A    between atoms: C_16  and  C_17
REMARK    7  A    between atoms: C_20  and  S_21
REMARK    8  A    between atoms: S_21  and  C_24
REMARK                            x       y       z     vdW  Elec       q    Type
REMARK                         _______ _______ _______ _____ _____    ______ ____
ROOT
ATOM      1  C   UNL     1       2.357   5.880  19.992  0.00  0.00    +0.000 A 
ATOM      2  N   UNL     1       1.552   6.607  20.797  0.00  0.00    +0.000 NA
ATOM      3  N   UNL     1       1.444   7.826  20.188  0.00  0.00    +0.000 N 
ATOM      4  C   UNL     1       0.742   8.992  20.595  0.00  0.00    +0.000 A 
ATOM      5  C   UNL     1      -0.102   8.939  21.839  0.00  0.00    +0.000 C 
ATOM      6  C   UNL     1       0.820  10.130  19.854  0.00  0.00    +0.000 A 
ATOM      7  C   UNL     1       1.753  10.033  18.650  0.00  0.00    +0.000 A 
ATOM      8  C   UNL     1       2.251  11.212  17.856  0.00  0.00    +0.000 C 
ATOM      9  N   UNL     1       2.238   8.923  18.207  0.00  0.00    +0.000 NA
ATOM     10  C   UNL     1       2.146   7.823  18.988  0.00  0.00    +0.000 A 
ATOM     11  C   UNL     1       2.759   6.607  18.858  0.00  0.00    +0.000 A 
ENDROOT
BRANCH  11  12
ATOM     12  S   UNL     1       3.802   6.192  17.565  0.00  0.00    +0.000 S 
ATOM     13  O   UNL     1       3.569   4.784  17.270  0.00  0.00    +0.000 OA
ATOM     14  O   UNL     1       3.595   7.182  16.536  0.00  0.00    +0.000 OA
BRANCH  12  15
ATOM     15  C   UNL     1       5.475   6.326  18.160  0.00  0.00    +0.000 A 
ATOM     16  C   UNL     1       5.944   5.468  19.157  0.00  0.00    +0.000 A 
ATOM     17  C   UNL     1       7.301   5.474  19.495  0.00  0.00    +0.000 A 
ATOM     18  C   UNL     1       8.182   6.335  18.832  0.00  0.00    +0.000 A 
ATOM     19  C   UNL     1       7.706   7.204  17.851  0.00  0.00    +0.000 A 
ATOM     20  C   UNL     1       6.355   7.191  17.503  0.00  0.00    +0.000 A 
ENDBRANCH  12  15
ENDBRANCH  11  12
BRANCH   1  22
ATOM     21  C   UNL     1       1.092   3.362  20.273  0.00  0.00    +0.000 C 
ATOM     22  S   UNL     1       2.696   4.191  20.325  0.00  0.00    +0.000 S 
ENDBRANCH   1  22
BRANCH   6  23
ATOM     23  O   UNL     1       0.116  11.283  20.237  0.00  0.00    +0.000 OA
BRANCH  23  24
ATOM     24  C   UNL     1      -1.105  11.586  19.689  0.00  0.00    +0.000 A 
ATOM     25  C   UNL     1      -1.425  11.059  18.437  0.00  0.00    +0.000 A 
ATOM     26  C   UNL     1      -2.731  11.176  17.958  0.00  0.00    +0.000 A 
ATOM     27  C   UNL     1      -3.659  11.845  18.740  0.00  0.00    +0.000 A 
ATOM     28  N   UNL     1      -3.356  12.456  19.902  0.00  0.00    +0.000 NA
ATOM     29  C   UNL     1      -2.079  12.340  20.332  0.00  0.00    +0.000 A 
ENDBRANCH  23  24
ENDBRANCH   6  23
TORSDOF 5
ENDMDL
MODEL 6
REMARK VINA RESULT:      -7.0      2.488      7.635
REMARK  Name = 
REMARK  8 active torsions:
REMARK  status: ('A' for Active; 'I' for Inactive)
REMARK    1  A    between atoms: C_1  and  S_2
REMARK    2  A    between atoms: S_2  and  C_3
REMARK    3  A    between atoms: C_6  and  C_7
REMARK    4  A    between atoms: C_8  and  O_9
REMARK    5  A    between atoms: O_9  and  C_10
REMARK    6  A    between atoms: C_16  and  C_17
REMARK    7  A    between atoms: C_20  and  S_21
REMARK    8  A    between atoms: S_21  and  C_24
REMARK                            x       y       z     vdW  Elec       q    Type
REMARK                         _______ _______ _______ _____ _____    ______ ____
ROOT
ATOM      1  C   UNL     1       0.723   8.195  20.661  0.00  0.00    +0.000 A 
ATOM      2  N   UNL     1       1.184   6.950  20.913  0.00  0.00    +0.000 NA
ATOM      3  N   UNL     1       2.146   6.727  19.970  0.00  0.00    +0.000 N 
ATOM      4  C   UNL     1       2.950   5.578  19.738  0.00  0.00    +0.000 A 
ATOM      5  C   UNL     1       2.845   4.412  20.681  0.00  0.00    +0.000 C 
ATOM      6  C   UNL     1       3.817   5.551  18.690  0.00  0.00    +0.000 A 
ATOM      7  C   UNL     1       3.770   6.793  17.803  0.00  0.00    +0.000 A 
ATOM      8  C   UNL     1       4.387   6.890  16.433  0.00  0.00    +0.000 C 
ATOM      9  N   UNL     1       3.163   7.883  18.129  0.00  0.00    +0.000 NA
ATOM     10  C   UNL     1       2.303   7.855  19.172  0.00  0.00    +0.000 A 
ATOM     11  C   UNL     1       1.388   8.788  19.573  0.00  0.00    +0.000 A 
ENDROOT
BRANCH  11  12
ATOM     12  S   UNL     1       1.167  10.305  18.811  0.00  0.00    +0.000 S 
ATOM     13  O   UNL     1       1.503  11.326  19.795  0.00  0.00    +0.000 OA
ATOM     14  O   UNL     1       1.891  10.248  17.564  0.00  0.00    +0.000 OA
BRANCH  12  15
ATOM     15  C   UNL     1      -0.569  10.481  18.456  0.00  0.00    +0.000 A 
ATOM     16  C   UNL     1      -1.320  11.486  19.070  0.00  0.00    +0.000 A 
ATOM     17  C   UNL     1      -2.637  11.717  18.659  0.00  0.00    +0.000 A 
ATOM     18  C   UNL     1      -3.194  10.943  17.635  0.00  0.00    +0.000 A 
ATOM     19  C   UNL     1      -2.448   9.928  17.039  0.00  0.00    +0.000 A 
ATOM     20  C   UNL     1      -1.130   9.704  17.438  0.00  0.00    +0.000 A 
ENDBRANCH  12  15
ENDBRANCH  11  12
BRANCH   1  22
ATOM     21  C   UNL     1       0.447   9.472  23.173  0.00  0.00    +0.000 C 
ATOM     22  S   UNL     1      -0.465   8.957  21.702  0.00  0.00    +0.000 S 
ENDBRANCH   1  22
BRANCH   6  23
ATOM     23  O   UNL     1       4.630   4.429  18.463  0.00  0.00    +0.000 OA
BRANCH  23  24
ATOM     24  C   UNL     1       5.505   4.386  17.407  0.00  0.00    +0.000 A 
ATOM     25  C   UNL     1       5.073   3.829  16.203  0.00  0.00    +0.000 A 
ATOM     26  C   UNL     1       5.866   3.967  15.061  0.00  0.00    +0.000 A 
ATOM     27  C   UNL     1       7.076   4.631  15.179  0.00  0.00    +0.000 A 
ATOM     28  N   UNL     1       7.568   5.087  16.348  0.00  0.00    +0.000 NA
ATOM     29  C   UNL     1       6.786   4.924  17.439  0.00  0.00    +0.000 A 
ENDBRANCH  23  24
ENDBRANCH   6  23
TORSDOF 5
ENDMDL
MODEL 7
REMARK VINA RESULT:      -6.9      1.227      1.529
REMARK  Name = 
REMARK  8 active torsions:
REMARK  status: ('A' for Active; 'I' for Inactive)
REMARK    1  A    between atoms: C_1  and  S_2
REMARK    2  A    between atoms: S_2  and  C_3
REMARK    3  A    between atoms: C_6  and  C_7
REMARK    4  A    between atoms: C_8  and  O_9
REMARK    5  A    between atoms: O_9  and  C_10
REMARK    6  A    between atoms: C_16  and  C_17
REMARK    7  A    between atoms: C_20  and  S_21
REMARK    8  A    between atoms: S_21  and  C_24
REMARK                            x       y       z     vdW  Elec       q    Type
REMARK                         _______ _______ _______ _____ _____    ______ ____
ROOT
ATOM      1  C   UNL     1       2.436   4.147  20.510  0.00  0.00    +0.000 A 
ATOM      2  N   UNL     1       1.934   5.204  21.184  0.00  0.00    +0.000 NA
ATOM      3  N   UNL     1       1.960   6.241  20.294  0.00  0.00    +0.000 N 
ATOM      4  C   UNL     1       1.574   7.599  20.461  0.00  0.00    +0.000 A 
ATOM      5  C   UNL     1       0.959   8.028  21.764  0.00  0.00    +0.000 C 
ATOM      6  C   UNL     1       1.743   8.486  19.444  0.00  0.00    +0.000 A 
ATOM      7  C   UNL     1       2.422   7.903  18.207  0.00  0.00    +0.000 A 
ATOM      8  C   UNL     1       2.996   8.722  17.080  0.00  0.00    +0.000 C 
ATOM      9  N   UNL     1       2.603   6.641  18.017  0.00  0.00    +0.000 NA
ATOM     10  C   UNL     1       2.435   5.801  19.064  0.00  0.00    +0.000 A 
ATOM     11  C   UNL     1       2.772   4.482  19.187  0.00  0.00    +0.000 A 
ENDROOT
BRANCH  11  12
ATOM     12  S   UNL     1       3.482   3.553  17.936  0.00  0.00    +0.000 S 
ATOM     13  O   UNL     1       3.891   2.287  18.530  0.00  0.00    +0.000 OA
ATOM     14  O   UNL     1       2.546   3.558  16.838  0.00  0.00    +0.000 OA
BRANCH  12  15
ATOM     15  C   UNL     1       4.969   4.387  17.423  0.00  0.00    +0.000 A 
ATOM     16  C   UNL     1       5.127   4.808  16.101  0.00  0.00    +0.000 A 
ATOM     17  C   UNL     1       6.222   5.605  15.753  0.00  0.00    +0.000 A 
ATOM     18  C   UNL     1       7.151   5.979  16.729  0.00  0.00    +0.000 A 
ATOM     19  C   UNL     1       7.001   5.541  18.044  0.00  0.00    +0.000 A 
ATOM     20  C   UNL     1       5.902   4.756  18.397  0.00  0.00    +0.000 A 
ENDBRANCH  12  15
ENDBRANCH  11  12
BRANCH   1  22
ATOM     21  C   UNL     1       1.060   2.464  22.325  0.00  0.00    +0.000 C 
ATOM     22  S   UNL     1       2.496   2.549  21.232  0.00  0.00    +0.000 S 
ENDBRANCH   1  22
BRANCH   6  23
ATOM     23  O   UNL     1       1.348   9.826  19.590  0.00  0.00    +0.000 OA
BRANCH  23  24
ATOM     24  C   UNL     1       0.153  10.275  19.087  0.00  0.00    +0.000 A 
ATOM     25  C   UNL     1      -0.319   9.722  17.896  0.00  0.00    +0.000 A 
ATOM     26  C   UNL     1      -1.621  10.006  17.479  0.00  0.00    +0.000 A 
ATOM     27  C   UNL     1      -2.389  10.858  18.257  0.00  0.00    +0.000 A 
ATOM     28  N   UNL     1      -1.926  11.489  19.354  0.00  0.00    +0.000 NA
ATOM     29  C   UNL     1      -0.656  11.208  19.723  0.00  0.00    +0.000 A 
ENDBRANCH  23  24
ENDBRANCH   6  23
TORSDOF 5
ENDMDL
MODEL 8
REMARK VINA RESULT:      -6.7      1.764      2.191
REMARK  Name = 
REMARK  8 active torsions:
REMARK  status: ('A' for Active; 'I' for Inactive)
REMARK    1  A    between atoms: C_1  and  S_2
REMARK    2  A    between atoms: S_2  and  C_3
REMARK    3  A    between atoms: C_6  and  C_7
REMARK    4  A    between atoms: C_8  and  O_9
REMARK    5  A    between atoms: O_9  and  C_10
REMARK    6  A    between atoms: C_16  and  C_17
REMARK    7  A    between atoms: C_20  and  S_21
REMARK    8  A    between atoms: S_21  and  C_24
REMARK                            x       y       z     vdW  Elec       q    Type
REMARK                         _______ _______ _______ _____ _____    ______ ____
ROOT
ATOM      1  C   UNL     1       2.293   5.093  20.753  0.00  0.00    +0.000 A 
ATOM      2  N   UNL     1       1.499   6.047  21.284  0.00  0.00    +0.000 NA
ATOM      3  N   UNL     1       1.517   7.072  20.380  0.00  0.00    +0.000 N 
ATOM      4  C   UNL     1       0.880   8.341  20.424  0.00  0.00    +0.000 A 
ATOM      5  C   UNL     1      -0.038   8.657  21.572  0.00  0.00    +0.000 C 
ATOM      6  C   UNL     1       1.086   9.244  19.427  0.00  0.00    +0.000 A 
ATOM      7  C   UNL     1       2.080   8.787  18.362  0.00  0.00    +0.000 A 
ATOM      8  C   UNL     1       2.710   9.693  17.336  0.00  0.00    +0.000 C 
ATOM      9  N   UNL     1       2.507   7.576  18.253  0.00  0.00    +0.000 NA
ATOM     10  C   UNL     1       2.287   6.721  19.277  0.00  0.00    +0.000 A 
ATOM     11  C   UNL     1       2.815   5.480  19.506  0.00  0.00    +0.000 A 
ENDROOT
BRANCH  11  12
ATOM     12  S   UNL     1       3.900   4.688  18.444  0.00  0.00    +0.000 S 
ATOM     13  O   UNL     1       4.208   3.395  19.042  0.00  0.00    +0.000 OA
ATOM     14  O   UNL     1       3.305   4.745  17.132  0.00  0.00    +0.000 OA
BRANCH  12  15
ATOM     15  C   UNL     1       5.415   5.624  18.427  0.00  0.00    +0.000 A 
ATOM     16  C   UNL     1       6.448   5.316  19.314  0.00  0.00    +0.000 A 
ATOM     17  C   UNL     1       7.689   5.947  19.179  0.00  0.00    +0.000 A 
ATOM     18  C   UNL     1       7.890   6.879  18.156  0.00  0.00    +0.000 A 
ATOM     19  C   UNL     1       6.850   7.198  17.284  0.00  0.00    +0.000 A 
ATOM     20  C   UNL     1       5.615   6.561  17.409  0.00  0.00    +0.000 A 
ENDBRANCH  12  15
ENDBRANCH  11  12
BRANCH   1  22
ATOM     21  C   UNL     1       1.337   2.429  20.674  0.00  0.00    +0.000 C 
ATOM     22  S   UNL     1       2.486   3.531  21.527  0.00  0.00    +0.000 S 
ENDBRANCH   1  22
BRANCH   6  23
ATOM     23  O   UNL     1       0.447  10.494  19.451  0.00  0.00    +0.000 OA
BRANCH  23  24
ATOM     24  C   UNL     1       1.118  11.629  19.834  0.00  0.00    +0.000 A 
ATOM     25  C   UNL     1       1.802  12.360  18.863  0.00  0.00    +0.000 A 
ATOM     26  C   UNL     1       2.309  13.621  19.186  0.00  0.00    +0.000 A 
ATOM     27  C   UNL     1       2.136  14.086  20.480  0.00  0.00    +0.000 A 
ATOM     28  N   UNL     1       1.573  13.360  21.466  0.00  0.00    +0.000 NA
ATOM     29  C   UNL     1       1.109  12.136  21.128  0.00  0.00    +0.000 A 
ENDBRANCH  23  24
ENDBRANCH   6  23
TORSDOF 5
ENDMDL
MODEL 9
REMARK VINA RESULT:      -6.7      1.134      1.582
REMARK  Name = 
REMARK  8 active torsions:
REMARK  status: ('A' for Active; 'I' for Inactive)
REMARK    1  A    between atoms: C_1  and  S_2
REMARK    2  A    between atoms: S_2  and  C_3
REMARK    3  A    between atoms: C_6  and  C_7
REMARK    4  A    between atoms: C_8  and  O_9
REMARK    5  A    between atoms: O_9  and  C_10
REMARK    6  A    between atoms: C_16  and  C_17
REMARK    7  A    between atoms: C_20  and  S_21
REMARK    8  A    between atoms: S_21  and  C_24
REMARK                            x       y       z     vdW  Elec       q    Type
REMARK                         _______ _______ _______ _____ _____    ______ ____
ROOT
ATOM      1  C   UNL     1       2.595   5.170  20.048  0.00  0.00    +0.000 A 
ATOM      2  N   UNL     1       1.877   5.918  20.913  0.00  0.00    +0.000 NA
ATOM      3  N   UNL     1       1.711   7.124  20.291  0.00  0.00    +0.000 N 
ATOM      4  C   UNL     1       1.056   8.302  20.741  0.00  0.00    +0.000 A 
ATOM      5  C   UNL     1       0.340   8.279  22.063  0.00  0.00    +0.000 C 
ATOM      6  C   UNL     1       1.063   9.424  19.971  0.00  0.00    +0.000 A 
ATOM      7  C   UNL     1       1.871   9.296  18.682  0.00  0.00    +0.000 A 
ATOM      8  C   UNL     1       2.290  10.456  17.817  0.00  0.00    +0.000 C 
ATOM      9  N   UNL     1       2.307   8.175  18.218  0.00  0.00    +0.000 NA
ATOM     10  C   UNL     1       2.290   7.092  19.027  0.00  0.00    +0.000 A 
ATOM     11  C   UNL     1       2.884   5.871  18.864  0.00  0.00    +0.000 A 
ENDROOT
BRANCH  11  12
ATOM     12  S   UNL     1       3.791   5.423  17.483  0.00  0.00    +0.000 S 
ATOM     13  O   UNL     1       3.272   4.137  17.036  0.00  0.00    +0.000 OA
ATOM     14  O   UNL     1       3.765   6.555  16.589  0.00  0.00    +0.000 OA
BRANCH  12  15
ATOM     15  C   UNL     1       5.470   5.148  18.009  0.00  0.00    +0.000 A 
ATOM     16  C   UNL     1       6.397   4.563  17.144  0.00  0.00    +0.000 A 
ATOM     17  C   UNL     1       7.747   4.506  17.509  0.00  0.00    +0.000 A 
ATOM     18  C   UNL     1       8.161   5.036  18.736  0.00  0.00    +0.000 A 
ATOM     19  C   UNL     1       7.229   5.601  19.605  0.00  0.00    +0.000 A 
ATOM     20  C   UNL     1       5.885   5.671  19.237  0.00  0.00    +0.000 A 
ENDBRANCH  12  15
ENDBRANCH  11  12
BRANCH   1  22
ATOM     21  C   UNL     1       1.638   2.917  21.471  0.00  0.00    +0.000 C 
ATOM     22  S   UNL     1       2.961   3.487  20.382  0.00  0.00    +0.000 S 
ENDBRANCH   1  22
BRANCH   6  23
ATOM     23  O   UNL     1       0.403  10.588  20.397  0.00  0.00    +0.000 OA
BRANCH  23  24
ATOM     24  C   UNL     1      -0.824  10.937  19.890  0.00  0.00    +0.000 A 
ATOM     25  C   UNL     1      -1.512  11.998  20.479  0.00  0.00    +0.000 A 
ATOM     26  C   UNL     1      -2.653  12.505  19.852  0.00  0.00    +0.000 A 
ATOM     27  C   UNL     1      -3.076  11.908  18.676  0.00  0.00    +0.000 A 
ATOM     28  N   UNL     1      -2.494  10.817  18.140  0.00  0.00    +0.000 NA
ATOM     29  C   UNL     1      -1.403  10.338  18.778  0.00  0.00    +0.000 A 
ENDBRANCH  23  24
ENDBRANCH   6  23
TORSDOF 5
ENDMDL
