MODEL 1
REMARK VINA RESULT:      -7.5      0.000      0.000
REMARK  Name = 
REMARK  10 active torsions:
REMARK  status: ('A' for Active; 'I' for Inactive)
REMARK    1  A    between atoms: C_1  and  C_2
REMARK    2  A    between atoms: C_2  and  C_3
REMARK    3  A    between atoms: C_2  and  C_4
REMARK    4  A    between atoms: C_4  and  N_5
REMARK    5  A    between atoms: C_4  and  C_18
REMARK    6  A    between atoms: C_6  and  C_8
REMARK    7  A    between atoms: C_11  and  C_12
REMARK    8  A    between atoms: C_12  and  C_13
REMARK    9  A    between atoms: C_12  and  C_14
REMARK   10  A    between atoms: C_12  and  C_15
REMARK                            x       y       z     vdW  Elec       q    Type
REMARK                         _______ _______ _______ _____ _____    ______ ____
ROOT
ATOM      1  N   UNL     1       2.146   6.228  18.604  0.00  0.00    +0.000 N 
ATOM      2  C   UNL     1       2.477   7.525  18.276  0.00  0.00    +0.000 C 
ATOM      3  O   UNL     1       3.312   7.828  17.434  0.00  0.00    +0.000 OA
ATOM      4  H   UNL     1       1.361   6.052  19.217  0.00  0.00    +0.000 HD
ENDROOT
BRANCH   2   5
ATOM      5  C   UNL     1       1.718   8.576  18.998  0.00  0.00    +0.000 A 
ATOM      6  C   UNL     1       1.272   9.722  18.338  0.00  0.00    +0.000 A 
ATOM      7  C   UNL     1       0.569  10.705  19.040  0.00  0.00    +0.000 A 
ATOM      8  C   UNL     1       0.295  10.571  20.413  0.00  0.00    +0.000 A 
ATOM      9  C   UNL     1       0.742   9.397  21.052  0.00  0.00    +0.000 A 
ATOM     10  C   UNL     1       1.437   8.404  20.353  0.00  0.00    +0.000 A 
BRANCH   8  11
ATOM     11  C   UNL     1      -0.468  11.649  21.206  0.00  0.00    +0.000 C 
ATOM     12  C   UNL     1       0.332  12.959  21.392  0.00  0.00    +0.000 C 
ATOM     13  C   UNL     1      -1.776  12.011  20.472  0.00  0.00    +0.000 C 
ATOM     14  C   UNL     1      -0.810  11.122  22.616  0.00  0.00    +0.000 C 
ENDBRANCH   8  11
ENDBRANCH   2   5
BRANCH   1  15
ATOM     15  C   UNL     1       2.724   5.072  17.922  0.00  0.00    +0.000 C 
BRANCH  15  16
ATOM     16  C   UNL     1       4.160   4.805  18.459  0.00  0.00    +0.000 C 
ATOM     17  O   UNL     1       4.364   4.487  19.633  0.00  0.00    +0.000 OA
ATOM     18  N   UNL     1       5.212   4.867  17.562  0.00  0.00    +0.000 N 
ATOM     19  C   UNL     1       5.145   5.023  16.119  0.00  0.00    +0.000 C 
ATOM     20  C   UNL     1       6.370   4.274  15.621  0.00  0.00    +0.000 C 
ATOM     21  C   UNL     1       7.401   4.506  16.718  0.00  0.00    +0.000 C 
ATOM     22  C   UNL     1       6.576   4.613  17.996  0.00  0.00    +0.000 C 
ENDBRANCH  15  16
BRANCH  15  24
ATOM     23  C   UNL     1       2.495   2.507  17.663  0.00  0.00    +0.000 C 
ATOM     24  C   UNL     1       1.797   3.827  18.013  0.00  0.00    +0.000 C 
ATOM     25  C   UNL     1       1.154   3.698  19.400  0.00  0.00    +0.000 C 
ENDBRANCH  15  24
ENDBRANCH   1  15
TORSDOF 5
ENDMDL
MODEL 2
REMARK VINA RESULT:      -7.5      1.174      1.719
REMARK  Name = 
REMARK  10 active torsions:
REMARK  status: ('A' for Active; 'I' for Inactive)
REMARK    1  A    between atoms: C_1  and  C_2
REMARK    2  A    between atoms: C_2  and  C_3
REMARK    3  A    between atoms: C_2  and  C_4
REMARK    4  A    between atoms: C_4  and  N_5
REMARK    5  A    between atoms: C_4  and  C_18
REMARK    6  A    between atoms: C_6  and  C_8
REMARK    7  A    between atoms: C_11  and  C_12
REMARK    8  A    between atoms: C_12  and  C_13
REMARK    9  A    between atoms: C_12  and  C_14
REMARK   10  A    between atoms: C_12  and  C_15
REMARK                            x       y       z     vdW  Elec       q    Type
REMARK                         _______ _______ _______ _____ _____    ______ ____
ROOT
ATOM      1  N   UNL     1       3.108   6.041  19.688  0.00  0.00    +0.000 N 
ATOM      2  C   UNL     1       2.557   6.948  18.809  0.00  0.00    +0.000 C 
ATOM      3  O   UNL     1       2.605   6.837  17.591  0.00  0.00    +0.000 OA
ATOM      4  H   UNL     1       2.924   6.130  20.680  0.00  0.00    +0.000 HD
ENDROOT
BRANCH   2   5
ATOM      5  C   UNL     1       1.847   8.090  19.435  0.00  0.00    +0.000 A 
ATOM      6  C   UNL     1       1.513   8.074  20.790  0.00  0.00    +0.000 A 
ATOM      7  C   UNL     1       0.834   9.155  21.357  0.00  0.00    +0.000 A 
ATOM      8  C   UNL     1       0.472  10.277  20.590  0.00  0.00    +0.000 A 
ATOM      9  C   UNL     1       0.836  10.277  19.229  0.00  0.00    +0.000 A 
ATOM     10  C   UNL     1       1.525   9.201  18.657  0.00  0.00    +0.000 A 
BRANCH   8  11
ATOM     11  C   UNL     1      -0.286  11.474  21.195  0.00  0.00    +0.000 C 
ATOM     12  C   UNL     1       0.558  12.768  21.260  0.00  0.00    +0.000 C 
ATOM     13  C   UNL     1      -1.537  11.785  20.346  0.00  0.00    +0.000 C 
ATOM     14  C   UNL     1      -0.725  11.144  22.638  0.00  0.00    +0.000 C 
ENDBRANCH   8  11
ENDBRANCH   2   5
BRANCH   1  15
ATOM     15  C   UNL     1       3.757   4.809  19.246  0.00  0.00    +0.000 C 
BRANCH  15  16
ATOM     16  C   UNL     1       5.244   5.095  18.887  0.00  0.00    +0.000 C 
ATOM     17  O   UNL     1       6.075   5.386  19.751  0.00  0.00    +0.000 OA
ATOM     18  N   UNL     1       5.635   4.946  17.567  0.00  0.00    +0.000 N 
ATOM     19  C   UNL     1       4.856   4.420  16.461  0.00  0.00    +0.000 C 
ATOM     20  C   UNL     1       5.899   3.777  15.561  0.00  0.00    +0.000 C 
ATOM     21  C   UNL     1       7.119   4.672  15.735  0.00  0.00    +0.000 C 
ATOM     22  C   UNL     1       7.013   5.184  17.168  0.00  0.00    +0.000 C 
ENDBRANCH  15  16
BRANCH  15  24
ATOM     23  C   UNL     1       2.162   3.523  20.826  0.00  0.00    +0.000 C 
ATOM     24  C   UNL     1       3.589   3.664  20.284  0.00  0.00    +0.000 C 
ATOM     25  C   UNL     1       4.044   2.313  19.719  0.00  0.00    +0.000 C 
ENDBRANCH  15  24
ENDBRANCH   1  15
TORSDOF 5
ENDMDL
MODEL 3
REMARK VINA RESULT:      -7.5      1.309      1.547
REMARK  Name = 
REMARK  10 active torsions:
REMARK  status: ('A' for Active; 'I' for Inactive)
REMARK    1  A    between atoms: C_1  and  C_2
REMARK    2  A    between atoms: C_2  and  C_3
REMARK    3  A    between atoms: C_2  and  C_4
REMARK    4  A    between atoms: C_4  and  N_5
REMARK    5  A    between atoms: C_4  and  C_18
REMARK    6  A    between atoms: C_6  and  C_8
REMARK    7  A    between atoms: C_11  and  C_12
REMARK    8  A    between atoms: C_12  and  C_13
REMARK    9  A    between atoms: C_12  and  C_14
REMARK   10  A    between atoms: C_12  and  C_15
REMARK                            x       y       z     vdW  Elec       q    Type
REMARK                         _______ _______ _______ _____ _____    ______ ____
ROOT
ATOM      1  N   UNL     1       3.280   5.943  19.717  0.00  0.00    +0.000 N 
ATOM      2  C   UNL     1       2.610   6.721  18.797  0.00  0.00    +0.000 C 
ATOM      3  O   UNL     1       2.550   6.470  17.601  0.00  0.00    +0.000 OA
ATOM      4  H   UNL     1       3.183   6.142  20.705  0.00  0.00    +0.000 HD
ENDROOT
BRANCH   2   5
ATOM      5  C   UNL     1       1.910   7.905  19.355  0.00  0.00    +0.000 A 
ATOM      6  C   UNL     1       1.610   9.007  18.554  0.00  0.00    +0.000 A 
ATOM      7  C   UNL     1       0.962  10.116  19.103  0.00  0.00    +0.000 A 
ATOM      8  C   UNL     1       0.598  10.155  20.461  0.00  0.00    +0.000 A 
ATOM      9  C   UNL     1       0.896   9.022  21.244  0.00  0.00    +0.000 A 
ATOM     10  C   UNL     1       1.536   7.904  20.699  0.00  0.00    +0.000 A 
BRANCH   8  11
ATOM     11  C   UNL     1      -0.108  11.373  21.086  0.00  0.00    +0.000 C 
ATOM     12  C   UNL     1       0.786  12.633  21.157  0.00  0.00    +0.000 C 
ATOM     13  C   UNL     1      -1.354  11.741  20.253  0.00  0.00    +0.000 C 
ATOM     14  C   UNL     1      -0.545  11.044  22.530  0.00  0.00    +0.000 C 
ENDBRANCH   8  11
ENDBRANCH   2   5
BRANCH   1  15
ATOM     15  C   UNL     1       3.940   4.691  19.357  0.00  0.00    +0.000 C 
BRANCH  15  16
ATOM     16  C   UNL     1       5.421   4.967  18.968  0.00  0.00    +0.000 C 
ATOM     17  O   UNL     1       6.281   5.204  19.819  0.00  0.00    +0.000 OA
ATOM     18  N   UNL     1       5.771   4.872  17.632  0.00  0.00    +0.000 N 
ATOM     19  C   UNL     1       4.951   4.410  16.526  0.00  0.00    +0.000 C 
ATOM     20  C   UNL     1       5.956   3.791  15.568  0.00  0.00    +0.000 C 
ATOM     21  C   UNL     1       7.197   4.657  15.747  0.00  0.00    +0.000 C 
ATOM     22  C   UNL     1       7.141   5.104  17.204  0.00  0.00    +0.000 C 
ENDBRANCH  15  16
BRANCH  15  24
ATOM     23  C   UNL     1       2.367   3.494  21.028  0.00  0.00    +0.000 C 
ATOM     24  C   UNL     1       3.791   3.620  20.474  0.00  0.00    +0.000 C 
ATOM     25  C   UNL     1       4.267   2.239  20.005  0.00  0.00    +0.000 C 
ENDBRANCH  15  24
ENDBRANCH   1  15
TORSDOF 5
ENDMDL
MODEL 4
REMARK VINA RESULT:      -7.5      0.841      1.090
REMARK  Name = 
REMARK  10 active torsions:
REMARK  status: ('A' for Active; 'I' for Inactive)
REMARK    1  A    between atoms: C_1  and  C_2
REMARK    2  A    between atoms: C_2  and  C_3
REMARK    3  A    between atoms: C_2  and  C_4
REMARK    4  A    between atoms: C_4  and  N_5
REMARK    5  A    between atoms: C_4  and  C_18
REMARK    6  A    between atoms: C_6  and  C_8
REMARK    7  A    between atoms: C_11  and  C_12
REMARK    8  A    between atoms: C_12  and  C_13
REMARK    9  A    between atoms: C_12  and  C_14
REMARK   10  A    between atoms: C_12  and  C_15
REMARK                            x       y       z     vdW  Elec       q    Type
REMARK                         _______ _______ _______ _____ _____    ______ ____
ROOT
ATOM      1  N   UNL     1       2.663   5.567  18.753  0.00  0.00    +0.000 N 
ATOM      2  C   UNL     1       2.872   6.829  18.239  0.00  0.00    +0.000 C 
ATOM      3  O   UNL     1       3.612   7.070  17.294  0.00  0.00    +0.000 OA
ATOM      4  H   UNL     1       1.945   5.425  19.452  0.00  0.00    +0.000 HD
ENDROOT
BRANCH   2   5
ATOM      5  C   UNL     1       2.103   7.917  18.892  0.00  0.00    +0.000 A 
ATOM      6  C   UNL     1       1.652   9.017  18.161  0.00  0.00    +0.000 A 
ATOM      7  C   UNL     1       0.940  10.036  18.798  0.00  0.00    +0.000 A 
ATOM      8  C   UNL     1       0.659   9.984  20.175  0.00  0.00    +0.000 A 
ATOM      9  C   UNL     1       1.110   8.854  20.887  0.00  0.00    +0.000 A 
ATOM     10  C   UNL     1       1.815   7.825  20.253  0.00  0.00    +0.000 A 
BRANCH   8  11
ATOM     11  C   UNL     1      -0.116  11.103  20.897  0.00  0.00    +0.000 C 
ATOM     12  C   UNL     1       0.712  12.394  21.098  0.00  0.00    +0.000 C 
ATOM     13  C   UNL     1      -1.369  11.483  20.080  0.00  0.00    +0.000 C 
ATOM     14  C   UNL     1      -0.553  10.622  22.298  0.00  0.00    +0.000 C 
ENDBRANCH   8  11
ENDBRANCH   2   5
BRANCH   1  15
ATOM     15  C   UNL     1       3.263   4.370  18.169  0.00  0.00    +0.000 C 
BRANCH  15  16
ATOM     16  C   UNL     1       4.814   4.458  18.262  0.00  0.00    +0.000 C 
ATOM     17  O   UNL     1       5.406   4.361  19.339  0.00  0.00    +0.000 OA
ATOM     18  N   UNL     1       5.530   4.581  17.083  0.00  0.00    +0.000 N 
ATOM     19  C   UNL     1       5.026   4.506  15.722  0.00  0.00    +0.000 C 
ATOM     20  C   UNL     1       6.196   3.933  14.939  0.00  0.00    +0.000 C 
ATOM     21  C   UNL     1       7.415   4.513  15.643  0.00  0.00    +0.000 C 
ATOM     22  C   UNL     1       6.982   4.653  17.098  0.00  0.00    +0.000 C 
ENDBRANCH  15  16
BRANCH  15  24
ATOM     23  C   UNL     1       1.161   2.962  18.711  0.00  0.00    +0.000 C 
ATOM     24  C   UNL     1       2.687   3.071  18.801  0.00  0.00    +0.000 C 
ATOM     25  C   UNL     1       3.313   1.813  18.184  0.00  0.00    +0.000 C 
ENDBRANCH  15  24
ENDBRANCH   1  15
TORSDOF 5
ENDMDL
MODEL 5
REMARK VINA RESULT:      -7.5      0.525      1.244
REMARK  Name = 
REMARK  10 active torsions:
REMARK  status: ('A' for Active; 'I' for Inactive)
REMARK    1  A    between atoms: C_1  and  C_2
REMARK    2  A    between atoms: C_2  and  C_3
REMARK    3  A    between atoms: C_2  and  C_4
REMARK    4  A    between atoms: C_4  and  N_5
REMARK    5  A    between atoms: C_4  and  C_18
REMARK    6  A    between atoms: C_6  and  C_8
REMARK    7  A    between atoms: C_11  and  C_12
REMARK    8  A    between atoms: C_12  and  C_13
REMARK    9  A    between atoms: C_12  and  C_14
REMARK   10  A    between atoms: C_12  and  C_15
REMARK                            x       y       z     vdW  Elec       q    Type
REMARK                         _______ _______ _______ _____ _____    ______ ____
ROOT
ATOM      1  N   UNL     1       2.402   6.167  19.156  0.00  0.00    +0.000 N 
ATOM      2  C   UNL     1       2.493   7.399  18.545  0.00  0.00    +0.000 C 
ATOM      3  O   UNL     1       3.122   7.609  17.517  0.00  0.00    +0.000 OA
ATOM      4  H   UNL     1       1.764   6.039  19.932  0.00  0.00    +0.000 HD
ENDROOT
BRANCH   2   5
ATOM      5  C   UNL     1       1.735   8.492  19.203  0.00  0.00    +0.000 A 
ATOM      6  C   UNL     1       1.316   9.611  18.483  0.00  0.00    +0.000 A 
ATOM      7  C   UNL     1       0.614  10.635  19.124  0.00  0.00    +0.000 A 
ATOM      8  C   UNL     1       0.313  10.568  20.497  0.00  0.00    +0.000 A 
ATOM      9  C   UNL     1       0.731   9.420  21.197  0.00  0.00    +0.000 A 
ATOM     10  C   UNL     1       1.426   8.386  20.559  0.00  0.00    +0.000 A 
BRANCH   8  11
ATOM     11  C   UNL     1      -0.451  11.691  21.224  0.00  0.00    +0.000 C 
ATOM     12  C   UNL     1      -0.845  11.328  22.675  0.00  0.00    +0.000 C 
ATOM     13  C   UNL     1       0.423  12.961  21.290  0.00  0.00    +0.000 C 
ATOM     14  C   UNL     1      -1.757  12.016  20.466  0.00  0.00    +0.000 C 
ENDBRANCH   8  11
ENDBRANCH   2   5
BRANCH   1  15
ATOM     15  C   UNL     1       3.004   4.962  18.591  0.00  0.00    +0.000 C 
BRANCH  15  16
ATOM     16  C   UNL     1       4.553   5.034  18.722  0.00  0.00    +0.000 C 
ATOM     17  O   UNL     1       5.107   5.141  19.819  0.00  0.00    +0.000 OA
ATOM     18  N   UNL     1       5.310   4.906  17.570  0.00  0.00    +0.000 N 
ATOM     19  C   UNL     1       4.849   4.574  16.233  0.00  0.00    +0.000 C 
ATOM     20  C   UNL     1       6.027   3.833  15.622  0.00  0.00    +0.000 C 
ATOM     21  C   UNL     1       7.239   4.516  16.242  0.00  0.00    +0.000 C 
ATOM     22  C   UNL     1       6.762   4.951  17.624  0.00  0.00    +0.000 C 
ENDBRANCH  15  16
BRANCH  15  24
ATOM     23  C   UNL     1       1.244   3.932  20.185  0.00  0.00    +0.000 C 
ATOM     24  C   UNL     1       2.400   3.670  19.211  0.00  0.00    +0.000 C 
ATOM     25  C   UNL     1       1.928   2.688  18.132  0.00  0.00    +0.000 C 
ENDBRANCH  15  24
ENDBRANCH   1  15
TORSDOF 5
ENDMDL
MODEL 6
REMARK VINA RESULT:      -7.5      0.792      1.701
REMARK  Name = 
REMARK  10 active torsions:
REMARK  status: ('A' for Active; 'I' for Inactive)
REMARK    1  A    between atoms: C_1  and  C_2
REMARK    2  A    between atoms: C_2  and  C_3
REMARK    3  A    between atoms: C_2  and  C_4
REMARK    4  A    between atoms: C_4  and  N_5
REMARK    5  A    between atoms: C_4  and  C_18
REMARK    6  A    between atoms: C_6  and  C_8
REMARK    7  A    between atoms: C_11  and  C_12
REMARK    8  A    between atoms: C_12  and  C_13
REMARK    9  A    between atoms: C_12  and  C_14
REMARK   10  A    between atoms: C_12  and  C_15
REMARK                            x       y       z     vdW  Elec       q    Type
REMARK                         _______ _______ _______ _____ _____    ______ ____
ROOT
ATOM      1  N   UNL     1       2.651   6.051  19.426  0.00  0.00    +0.000 N 
ATOM      2  C   UNL     1       2.549   7.215  18.695  0.00  0.00    +0.000 C 
ATOM      3  O   UNL     1       3.007   7.360  17.570  0.00  0.00    +0.000 OA
ATOM      4  H   UNL     1       2.143   5.962  20.297  0.00  0.00    +0.000 HD
ENDROOT
BRANCH   2   5
ATOM      5  C   UNL     1       1.801   8.315  19.353  0.00  0.00    +0.000 A 
ATOM      6  C   UNL     1       1.464   8.247  20.705  0.00  0.00    +0.000 A 
ATOM      7  C   UNL     1       0.749   9.289  21.302  0.00  0.00    +0.000 A 
ATOM      8  C   UNL     1       0.353  10.421  20.567  0.00  0.00    +0.000 A 
ATOM      9  C   UNL     1       0.721  10.474  19.208  0.00  0.00    +0.000 A 
ATOM     10  C   UNL     1       1.446   9.438  18.607  0.00  0.00    +0.000 A 
BRANCH   8  11
ATOM     11  C   UNL     1      -0.445  11.574  21.204  0.00  0.00    +0.000 C 
ATOM     12  C   UNL     1      -0.945  11.261  22.634  0.00  0.00    +0.000 C 
ATOM     13  C   UNL     1       0.439  12.836  21.294  0.00  0.00    +0.000 C 
ATOM     14  C   UNL     1      -1.690  11.890  20.347  0.00  0.00    +0.000 C 
ENDBRANCH   8  11
ENDBRANCH   2   5
BRANCH   1  15
ATOM     15  C   UNL     1       3.268   4.838  18.894  0.00  0.00    +0.000 C 
BRANCH  15  16
ATOM     16  C   UNL     1       4.809   5.029  18.795  0.00  0.00    +0.000 C 
ATOM     17  O   UNL     1       5.503   5.231  19.794  0.00  0.00    +0.000 OA
ATOM     18  N   UNL     1       5.402   4.898  17.550  0.00  0.00    +0.000 N 
ATOM     19  C   UNL     1       4.783   4.467  16.309  0.00  0.00    +0.000 C 
ATOM     20  C   UNL     1       5.917   3.783  15.563  0.00  0.00    +0.000 C 
ATOM     21  C   UNL     1       7.147   4.582  15.973  0.00  0.00    +0.000 C 
ATOM     22  C   UNL     1       6.839   5.050  17.392  0.00  0.00    +0.000 C 
ENDBRANCH  15  16
BRANCH  15  24
ATOM     23  C   UNL     1       1.496   3.701  20.399  0.00  0.00    +0.000 C 
ATOM     24  C   UNL     1       2.860   3.579  19.709  0.00  0.00    +0.000 C 
ATOM     25  C   UNL     1       2.869   2.313  18.843  0.00  0.00    +0.000 C 
ENDBRANCH  15  24
ENDBRANCH   1  15
TORSDOF 5
ENDMDL
MODEL 7
REMARK VINA RESULT:      -7.4      0.684      1.121
REMARK  Name = 
REMARK  10 active torsions:
REMARK  status: ('A' for Active; 'I' for Inactive)
REMARK    1  A    between atoms: C_1  and  C_2
REMARK    2  A    between atoms: C_2  and  C_3
REMARK    3  A    between atoms: C_2  and  C_4
REMARK    4  A    between atoms: C_4  and  N_5
REMARK    5  A    between atoms: C_4  and  C_18
REMARK    6  A    between atoms: C_6  and  C_8
REMARK    7  A    between atoms: C_11  and  C_12
REMARK    8  A    between atoms: C_12  and  C_13
REMARK    9  A    between atoms: C_12  and  C_14
REMARK   10  A    between atoms: C_12  and  C_15
REMARK                            x       y       z     vdW  Elec       q    Type
REMARK                         _______ _______ _______ _____ _____    ______ ____
ROOT
ATOM      1  N   UNL     1       2.248   6.925  18.785  0.00  0.00    +0.000 N 
ATOM      2  C   UNL     1       2.159   8.198  18.265  0.00  0.00    +0.000 C 
ATOM      3  O   UNL     1       2.642   8.535  17.192  0.00  0.00    +0.000 OA
ATOM      4  H   UNL     1       1.721   6.686  19.616  0.00  0.00    +0.000 HD
ENDROOT
BRANCH   2   5
ATOM      5  C   UNL     1       1.393   9.168  19.086  0.00  0.00    +0.000 A 
ATOM      6  C   UNL     1       0.984  10.392  18.558  0.00  0.00    +0.000 A 
ATOM      7  C   UNL     1       0.274  11.296  19.352  0.00  0.00    +0.000 A 
ATOM      8  C   UNL     1      -0.045  11.003  20.690  0.00  0.00    +0.000 A 
ATOM      9  C   UNL     1       0.364   9.752  21.195  0.00  0.00    +0.000 A 
ATOM     10  C   UNL     1       1.067   8.839  20.402  0.00  0.00    +0.000 A 
BRANCH   8  11
ATOM     11  C   UNL     1      -0.817  11.990  21.585  0.00  0.00    +0.000 C 
ATOM     12  C   UNL     1      -1.171  11.414  22.976  0.00  0.00    +0.000 C 
ATOM     13  C   UNL     1       0.029  13.260  21.817  0.00  0.00    +0.000 C 
ATOM     14  C   UNL     1      -2.146  12.387  20.906  0.00  0.00    +0.000 C 
ENDBRANCH   8  11
ENDBRANCH   2   5
BRANCH   1  15
ATOM     15  C   UNL     1       2.881   5.822  18.065  0.00  0.00    +0.000 C 
BRANCH  15  16
ATOM     16  C   UNL     1       4.260   5.495  18.706  0.00  0.00    +0.000 C 
ATOM     17  O   UNL     1       4.386   5.325  19.922  0.00  0.00    +0.000 OA
ATOM     18  N   UNL     1       5.347   5.329  17.864  0.00  0.00    +0.000 N 
ATOM     19  C   UNL     1       5.351   5.289  16.412  0.00  0.00    +0.000 C 
ATOM     20  C   UNL     1       6.510   4.362  16.083  0.00  0.00    +0.000 C 
ATOM     21  C   UNL     1       7.517   4.644  17.190  0.00  0.00    +0.000 C 
ATOM     22  C   UNL     1       6.660   5.007  18.398  0.00  0.00    +0.000 C 
ENDBRANCH  15  16
BRANCH  15  24
ATOM     23  C   UNL     1       2.602   3.358  17.324  0.00  0.00    +0.000 C 
ATOM     24  C   UNL     1       1.944   4.585  17.967  0.00  0.00    +0.000 C 
ATOM     25  C   UNL     1       1.381   4.188  19.337  0.00  0.00    +0.000 C 
ENDBRANCH  15  24
ENDBRANCH   1  15
TORSDOF 5
ENDMDL
MODEL 8
REMARK VINA RESULT:      -7.4      1.388      2.249
REMARK  Name = 
REMARK  10 active torsions:
REMARK  status: ('A' for Active; 'I' for Inactive)
REMARK    1  A    between atoms: C_1  and  C_2
REMARK    2  A    between atoms: C_2  and  C_3
REMARK    3  A    between atoms: C_2  and  C_4
REMARK    4  A    between atoms: C_4  and  N_5
REMARK    5  A    between atoms: C_4  and  C_18
REMARK    6  A    between atoms: C_6  and  C_8
REMARK    7  A    between atoms: C_11  and  C_12
REMARK    8  A    between atoms: C_12  and  C_13
REMARK    9  A    between atoms: C_12  and  C_14
REMARK   10  A    between atoms: C_12  and  C_15
REMARK                            x       y       z     vdW  Elec       q    Type
REMARK                         _______ _______ _______ _____ _____    ______ ____
ROOT
ATOM      1  N   UNL     1       2.755   5.229  17.991  0.00  0.00    +0.000 N 
ATOM      2  C   UNL     1       2.867   5.894  19.193  0.00  0.00    +0.000 C 
ATOM      3  O   UNL     1       3.465   5.455  20.166  0.00  0.00    +0.000 OA
ATOM      4  H   UNL     1       2.353   5.704  17.192  0.00  0.00    +0.000 HD
ENDROOT
BRANCH   2   5
ATOM      5  C   UNL     1       2.229   7.233  19.240  0.00  0.00    +0.000 A 
ATOM      6  C   UNL     1       1.686   7.729  20.426  0.00  0.00    +0.000 A 
ATOM      7  C   UNL     1       1.079   8.987  20.445  0.00  0.00    +0.000 A 
ATOM      8  C   UNL     1       0.999   9.780  19.286  0.00  0.00    +0.000 A 
ATOM      9  C   UNL     1       1.571   9.264  18.107  0.00  0.00    +0.000 A 
ATOM     10  C   UNL     1       2.188   8.009  18.082  0.00  0.00    +0.000 A 
BRANCH   8  11
ATOM     11  C   UNL     1       0.325  11.165  19.286  0.00  0.00    +0.000 C 
ATOM     12  C   UNL     1      -0.128  11.631  20.690  0.00  0.00    +0.000 C 
ATOM     13  C   UNL     1       1.307  12.226  18.746  0.00  0.00    +0.000 C 
ATOM     14  C   UNL     1      -0.932  11.139  18.389  0.00  0.00    +0.000 C 
ENDBRANCH   8  11
ENDBRANCH   2   5
BRANCH   1  15
ATOM     15  C   UNL     1       3.405   3.945  17.738  0.00  0.00    +0.000 C 
BRANCH  15  16
ATOM     16  C   UNL     1       4.950   4.122  17.757  0.00  0.00    +0.000 C 
ATOM     17  O   UNL     1       5.616   3.898  18.771  0.00  0.00    +0.000 OA
ATOM     18  N   UNL     1       5.579   4.476  16.575  0.00  0.00    +0.000 N 
ATOM     19  C   UNL     1       4.993   4.582  15.251  0.00  0.00    +0.000 C 
ATOM     20  C   UNL     1       6.139   4.219  14.321  0.00  0.00    +0.000 C 
ATOM     21  C   UNL     1       7.367   4.763  15.041  0.00  0.00    +0.000 C 
ATOM     22  C   UNL     1       7.022   4.644  16.521  0.00  0.00    +0.000 C 
ENDBRANCH  15  16
BRANCH  15  24
ATOM     23  C   UNL     1       1.378   2.722  18.783  0.00  0.00    +0.000 C 
ATOM     24  C   UNL     1       2.905   2.844  18.715  0.00  0.00    +0.000 C 
ATOM     25  C   UNL     1       3.500   1.471  18.377  0.00  0.00    +0.000 C 
ENDBRANCH  15  24
ENDBRANCH   1  15
TORSDOF 5
ENDMDL
MODEL 9
REMARK VINA RESULT:      -7.4      1.393      2.087
REMARK  Name = 
REMARK  10 active torsions:
REMARK  status: ('A' for Active; 'I' for Inactive)
REMARK    1  A    between atoms: C_1  and  C_2
REMARK    2  A    between atoms: C_2  and  C_3
REMARK    3  A    between atoms: C_2  and  C_4
REMARK    4  A    between atoms: C_4  and  N_5
REMARK    5  A    between atoms: C_4  and  C_18
REMARK    6  A    between atoms: C_6  and  C_8
REMARK    7  A    between atoms: C_11  and  C_12
REMARK    8  A    between atoms: C_12  and  C_13
REMARK    9  A    between atoms: C_12  and  C_14
REMARK   10  A    between atoms: C_12  and  C_15
REMARK                            x       y       z     vdW  Elec       q    Type
REMARK                         _______ _______ _______ _____ _____    ______ ____
ROOT
ATOM      1  N   UNL     1       2.768   5.267  17.956  0.00  0.00    +0.000 N 
ATOM      2  C   UNL     1       2.876   5.956  19.144  0.00  0.00    +0.000 C 
ATOM      3  O   UNL     1       3.466   5.535  20.130  0.00  0.00    +0.000 OA
ATOM      4  H   UNL     1       2.375   5.727  17.144  0.00  0.00    +0.000 HD
ENDROOT
BRANCH   2   5
ATOM      5  C   UNL     1       2.247   7.300  19.158  0.00  0.00    +0.000 A 
ATOM      6  C   UNL     1       2.212   8.090  18.009  0.00  0.00    +0.000 A 
ATOM      7  C   UNL     1       1.625   9.358  18.048  0.00  0.00    +0.000 A 
ATOM      8  C   UNL     1       1.060   9.868  19.231  0.00  0.00    +0.000 A 
ATOM      9  C   UNL     1       1.093   9.043  20.373  0.00  0.00    +0.000 A 
ATOM     10  C   UNL     1       1.670   7.769  20.338  0.00  0.00    +0.000 A 
BRANCH   8  11
ATOM     11  C   UNL     1       0.419  11.266  19.296  0.00  0.00    +0.000 C 
ATOM     12  C   UNL     1      -0.894  11.380  18.487  0.00  0.00    +0.000 C 
ATOM     13  C   UNL     1       0.087  11.623  20.761  0.00  0.00    +0.000 C 
ATOM     14  C   UNL     1       1.394  12.321  18.729  0.00  0.00    +0.000 C 
ENDBRANCH   8  11
ENDBRANCH   2   5
BRANCH   1  15
ATOM     15  C   UNL     1       3.411   3.974  17.734  0.00  0.00    +0.000 C 
BRANCH  15  16
ATOM     16  C   UNL     1       4.958   4.143  17.753  0.00  0.00    +0.000 C 
ATOM     17  O   UNL     1       5.623   3.920  18.768  0.00  0.00    +0.000 OA
ATOM     18  N   UNL     1       5.589   4.489  16.570  0.00  0.00    +0.000 N 
ATOM     19  C   UNL     1       5.003   4.592  15.245  0.00  0.00    +0.000 C 
ATOM     20  C   UNL     1       6.148   4.219  14.317  0.00  0.00    +0.000 C 
ATOM     21  C   UNL     1       7.378   4.760  15.035  0.00  0.00    +0.000 C 
ATOM     22  C   UNL     1       7.033   4.649  16.516  0.00  0.00    +0.000 C 
ENDBRANCH  15  16
BRANCH  15  24
ATOM     23  C   UNL     1       1.375   2.795  18.812  0.00  0.00    +0.000 C 
ATOM     24  C   UNL     1       2.903   2.898  18.736  0.00  0.00    +0.000 C 
ATOM     25  C   UNL     1       3.481   1.512  18.423  0.00  0.00    +0.000 C 
ENDBRANCH  15  24
ENDBRANCH   1  15
TORSDOF 5
ENDMDL
