MODEL 1
REMARK VINA RESULT:      -8.6      0.000      0.000
REMARK  Name = 
REMARK  6 active torsions:
REMARK  status: ('A' for Active; 'I' for Inactive)
REMARK    1  A    between atoms: C_2  and  C_3
REMARK    2  A    between atoms: C_2  and  C_17
REMARK    3  A    between atoms: C_10  and  C_11
REMARK    4  A    between atoms: C_22  and  O_23
REMARK    5  A    between atoms: O_23  and  C_24
REMARK    6  A    between atoms: C_24  and  C_25
REMARK                            x       y       z     vdW  Elec       q    Type
REMARK                         _______ _______ _______ _____ _____    ______ ____
ROOT
ATOM      1  C   UNL     1       4.138   5.010  18.446  0.00  0.00    +0.000 A 
ATOM      2  C   UNL     1       4.616   4.094  19.378  0.00  0.00    +0.000 A 
ATOM      3  N   UNL     1       5.971   4.246  19.486  0.00  0.00    +0.000 N 
ATOM      4  C   UNL     1       6.348   5.347  18.761  0.00  0.00    +0.000 A 
ATOM      5  C   UNL     1       7.473   6.163  18.868  0.00  0.00    +0.000 A 
ATOM      6  C   UNL     1       7.521   7.264  18.013  0.00  0.00    +0.000 A 
ATOM      7  C   UNL     1       6.708   7.328  16.897  0.00  0.00    +0.000 A 
ATOM      8  C   UNL     1       5.566   6.542  16.838  0.00  0.00    +0.000 A 
ATOM      9  C   UNL     1       5.303   5.629  17.876  0.00  0.00    +0.000 A 
ATOM     10  H   UNL     1       6.568   3.752  20.136  0.00  0.00    +0.000 HD
ENDROOT
BRANCH   1  12
ATOM     11  O   UNL     1       1.938   4.675  17.691  0.00  0.00    +0.000 OA
ATOM     12  C   UNL     1       2.716   5.374  18.337  0.00  0.00    +0.000 C 
BRANCH  12  13
ATOM     13  C   UNL     1       2.227   6.521  19.100  0.00  0.00    +0.000 A 
ATOM     14  C   UNL     1       1.690   6.547  20.427  0.00  0.00    +0.000 A 
ATOM     15  C   UNL     1       1.330   7.845  20.733  0.00  0.00    +0.000 A 
ATOM     16  N   UNL     1       1.658   8.608  19.659  0.00  0.00    +0.000 N 
ATOM     17  C   UNL     1       2.279   7.849  18.701  0.00  0.00    +0.000 A 
ATOM     18  C   UNL     1       2.827   8.596  17.541  0.00  0.00    +0.000 C 
ATOM     19  S   UNL     1       2.381  10.357  17.828  0.00  0.00    +0.000 S 
ATOM     20  C   UNL     1       1.564  10.048  19.445  0.00  0.00    +0.000 C 
BRANCH  20  21
ATOM     21  C   UNL     1       0.140  10.545  19.489  0.00  0.00    +0.000 A 
ATOM     22  C   UNL     1      -0.801  10.301  18.477  0.00  0.00    +0.000 A 
ATOM     23  C   UNL     1      -2.094  10.808  18.588  0.00  0.00    +0.000 A 
ATOM     24  C   UNL     1      -2.423  11.541  19.717  0.00  0.00    +0.000 A 
ATOM     25  N   UNL     1      -1.553  11.796  20.719  0.00  0.00    +0.000 NA
ATOM     26  C   UNL     1      -0.305  11.293  20.575  0.00  0.00    +0.000 A 
ENDBRANCH  20  21
ENDBRANCH  12  13
ENDBRANCH   1  12
BRANCH   6  27
ATOM     27  O   UNL     1       8.389   8.242  18.372  0.00  0.00    +0.000 OA
BRANCH  27  28
ATOM     28  C   UNL     1       8.203   9.532  17.781  0.00  0.00    +0.000 C 
BRANCH  28  29
ATOM     29  C   UNL     1       9.195  10.392  18.502  0.00  0.00    +0.000 A 
ATOM     30  C   UNL     1      10.226  11.040  17.816  0.00  0.00    +0.000 A 
ATOM     31  C   UNL     1      11.189  11.749  18.528  0.00  0.00    +0.000 A 
ATOM     32  C   UNL     1      11.126  11.803  19.921  0.00  0.00    +0.000 A 
ATOM     33  C   UNL     1      10.104  11.150  20.608  0.00  0.00    +0.000 A 
ATOM     34  C   UNL     1       9.135  10.456  19.902  0.00  0.00    +0.000 A 
ENDBRANCH  28  29
ENDBRANCH  27  28
ENDBRANCH   6  27
TORSDOF 6
ENDMDL
MODEL 2
REMARK VINA RESULT:      -8.4      0.513      1.196
REMARK  Name = 
REMARK  6 active torsions:
REMARK  status: ('A' for Active; 'I' for Inactive)
REMARK    1  A    between atoms: C_2  and  C_3
REMARK    2  A    between atoms: C_2  and  C_17
REMARK    3  A    between atoms: C_10  and  C_11
REMARK    4  A    between atoms: C_22  and  O_23
REMARK    5  A    between atoms: O_23  and  C_24
REMARK    6  A    between atoms: C_24  and  C_25
REMARK                            x       y       z     vdW  Elec       q    Type
REMARK                         _______ _______ _______ _____ _____    ______ ____
ROOT
ATOM      1  C   UNL     1       4.005   5.065  18.459  0.00  0.00    +0.000 A 
ATOM      2  C   UNL     1       4.466   4.113  19.363  0.00  0.00    +0.000 A 
ATOM      3  N   UNL     1       5.826   4.220  19.457  0.00  0.00    +0.000 N 
ATOM      4  C   UNL     1       6.228   5.326  18.753  0.00  0.00    +0.000 A 
ATOM      5  C   UNL     1       7.379   6.104  18.865  0.00  0.00    +0.000 A 
ATOM      6  C   UNL     1       7.452   7.223  18.036  0.00  0.00    +0.000 A 
ATOM      7  C   UNL     1       6.628   7.339  16.932  0.00  0.00    +0.000 A 
ATOM      8  C   UNL     1       5.460   6.590  16.869  0.00  0.00    +0.000 A 
ATOM      9  C   UNL     1       5.182   5.661  17.889  0.00  0.00    +0.000 A 
ATOM     10  H   UNL     1       6.415   3.693  20.088  0.00  0.00    +0.000 HD
ENDROOT
BRANCH   1  12
ATOM     11  O   UNL     1       1.781   4.802  17.746  0.00  0.00    +0.000 OA
ATOM     12  C   UNL     1       2.594   5.475  18.376  0.00  0.00    +0.000 C 
BRANCH  12  13
ATOM     13  C   UNL     1       2.157   6.637  19.148  0.00  0.00    +0.000 A 
ATOM     14  C   UNL     1       1.687   6.686  20.500  0.00  0.00    +0.000 A 
ATOM     15  C   UNL     1       1.358   7.992  20.806  0.00  0.00    +0.000 A 
ATOM     16  N   UNL     1       1.641   8.738  19.707  0.00  0.00    +0.000 N 
ATOM     17  C   UNL     1       2.205   7.960  18.730  0.00  0.00    +0.000 A 
ATOM     18  C   UNL     1       2.704   8.685  17.535  0.00  0.00    +0.000 C 
ATOM     19  S   UNL     1       2.294  10.455  17.820  0.00  0.00    +0.000 S 
ATOM     20  C   UNL     1       1.554  10.176  19.479  0.00  0.00    +0.000 C 
BRANCH  20  21
ATOM     21  C   UNL     1       0.140  10.692  19.587  0.00  0.00    +0.000 A 
ATOM     22  C   UNL     1      -0.320  11.483  20.651  0.00  0.00    +0.000 A 
ATOM     23  C   UNL     1      -1.647  11.909  20.683  0.00  0.00    +0.000 A 
ATOM     24  C   UNL     1      -2.484  11.541  19.642  0.00  0.00    +0.000 A 
ATOM     25  N   UNL     1      -2.085  10.786  18.596  0.00  0.00    +0.000 NA
ATOM     26  C   UNL     1      -0.792  10.386  18.601  0.00  0.00    +0.000 A 
ENDBRANCH  20  21
ENDBRANCH  12  13
ENDBRANCH   1  12
BRANCH   6  27
ATOM     27  O   UNL     1       8.353   8.165  18.407  0.00  0.00    +0.000 OA
BRANCH  27  28
ATOM     28  C   UNL     1       8.310   9.420  17.720  0.00  0.00    +0.000 C 
BRANCH  28  29
ATOM     29  C   UNL     1       9.214  10.294  18.534  0.00  0.00    +0.000 A 
ATOM     30  C   UNL     1       9.145  10.308  19.930  0.00  0.00    +0.000 A 
ATOM     31  C   UNL     1       9.928  11.204  20.651  0.00  0.00    +0.000 A 
ATOM     32  C   UNL     1      10.772  12.088  19.978  0.00  0.00    +0.000 A 
ATOM     33  C   UNL     1      10.837  12.082  18.586  0.00  0.00    +0.000 A 
ATOM     34  C   UNL     1      10.070  11.181  17.866  0.00  0.00    +0.000 A 
ENDBRANCH  28  29
ENDBRANCH  27  28
ENDBRANCH   6  27
TORSDOF 6
ENDMDL
MODEL 3
REMARK VINA RESULT:      -8.2      4.088      7.323
REMARK  Name = 
REMARK  6 active torsions:
REMARK  status: ('A' for Active; 'I' for Inactive)
REMARK    1  A    between atoms: C_2  and  C_3
REMARK    2  A    between atoms: C_2  and  C_17
REMARK    3  A    between atoms: C_10  and  C_11
REMARK    4  A    between atoms: C_22  and  O_23
REMARK    5  A    between atoms: O_23  and  C_24
REMARK    6  A    between atoms: C_24  and  C_25
REMARK                            x       y       z     vdW  Elec       q    Type
REMARK                         _______ _______ _______ _____ _____    ______ ____
ROOT
ATOM      1  C   UNL     1       8.857  14.453  19.632  0.00  0.00    +0.000 A 
ATOM      2  C   UNL     1       8.890  14.816  18.289  0.00  0.00    +0.000 A 
ATOM      3  N   UNL     1       9.293  13.736  17.554  0.00  0.00    +0.000 N 
ATOM      4  C   UNL     1       9.364  12.645  18.380  0.00  0.00    +0.000 A 
ATOM      5  C   UNL     1       9.305  11.282  18.092  0.00  0.00    +0.000 A 
ATOM      6  C   UNL     1       9.333  10.417  19.186  0.00  0.00    +0.000 A 
ATOM      7  C   UNL     1       9.764  10.857  20.424  0.00  0.00    +0.000 A 
ATOM      8  C   UNL     1       9.765  12.217  20.703  0.00  0.00    +0.000 A 
ATOM      9  C   UNL     1       9.412  13.128  19.691  0.00  0.00    +0.000 A 
ATOM     10  H   UNL     1       9.346  13.698  16.544  0.00  0.00    +0.000 HD
ENDROOT
BRANCH   1  12
ATOM     11  O   UNL     1       8.681  16.193  21.202  0.00  0.00    +0.000 OA
ATOM     12  C   UNL     1       8.142  15.233  20.656  0.00  0.00    +0.000 C 
BRANCH  12  13
ATOM     13  C   UNL     1       6.743  14.910  20.930  0.00  0.00    +0.000 A 
ATOM     14  C   UNL     1       6.186  14.247  22.070  0.00  0.00    +0.000 A 
ATOM     15  C   UNL     1       4.822  14.131  21.891  0.00  0.00    +0.000 A 
ATOM     16  N   UNL     1       4.528  14.726  20.707  0.00  0.00    +0.000 N 
ATOM     17  C   UNL     1       5.653  15.279  20.154  0.00  0.00    +0.000 A 
ATOM     18  C   UNL     1       5.438  16.094  18.932  0.00  0.00    +0.000 C 
ATOM     19  S   UNL     1       3.636  15.991  18.577  0.00  0.00    +0.000 S 
ATOM     20  C   UNL     1       3.249  14.955  20.044  0.00  0.00    +0.000 C 
BRANCH  20  21
ATOM     21  C   UNL     1       2.546  13.668  19.686  0.00  0.00    +0.000 A 
ATOM     22  C   UNL     1       1.595  13.047  20.509  0.00  0.00    +0.000 A 
ATOM     23  C   UNL     1       1.001  11.850  20.111  0.00  0.00    +0.000 A 
ATOM     24  C   UNL     1       1.366  11.305  18.891  0.00  0.00    +0.000 A 
ATOM     25  N   UNL     1       2.271  11.870  18.063  0.00  0.00    +0.000 NA
ATOM     26  C   UNL     1       2.832  13.027  18.484  0.00  0.00    +0.000 A 
ENDBRANCH  20  21
ENDBRANCH  12  13
ENDBRANCH   1  12
BRANCH   6  27
ATOM     27  O   UNL     1       8.895   9.157  18.944  0.00  0.00    +0.000 OA
BRANCH  27  28
ATOM     28  C   UNL     1       8.023   8.971  17.824  0.00  0.00    +0.000 C 
BRANCH  28  29
ATOM     29  C   UNL     1       7.711   7.507  17.865  0.00  0.00    +0.000 A 
ATOM     30  C   UNL     1       8.115   6.709  18.940  0.00  0.00    +0.000 A 
ATOM     31  C   UNL     1       7.898   5.336  18.899  0.00  0.00    +0.000 A 
ATOM     32  C   UNL     1       7.287   4.760  17.785  0.00  0.00    +0.000 A 
ATOM     33  C   UNL     1       6.891   5.551  16.708  0.00  0.00    +0.000 A 
ATOM     34  C   UNL     1       7.092   6.922  16.751  0.00  0.00    +0.000 A 
ENDBRANCH  28  29
ENDBRANCH  27  28
ENDBRANCH   6  27
TORSDOF 6
ENDMDL
MODEL 4
REMARK VINA RESULT:      -8.2      4.254      6.847
REMARK  Name = 
REMARK  6 active torsions:
REMARK  status: ('A' for Active; 'I' for Inactive)
REMARK    1  A    between atoms: C_2  and  C_3
REMARK    2  A    between atoms: C_2  and  C_17
REMARK    3  A    between atoms: C_10  and  C_11
REMARK    4  A    between atoms: C_22  and  O_23
REMARK    5  A    between atoms: O_23  and  C_24
REMARK    6  A    between atoms: C_24  and  C_25
REMARK                            x       y       z     vdW  Elec       q    Type
REMARK                         _______ _______ _______ _____ _____    ______ ____
ROOT
ATOM      1  C   UNL     1       0.818   9.798  20.218  0.00  0.00    +0.000 A 
ATOM      2  C   UNL     1       0.707   9.144  21.441  0.00  0.00    +0.000 A 
ATOM      3  N   UNL     1       1.227   7.886  21.314  0.00  0.00    +0.000 N 
ATOM      4  C   UNL     1       1.814   7.777  20.081  0.00  0.00    +0.000 A 
ATOM      5  C   UNL     1       2.810   6.916  19.622  0.00  0.00    +0.000 A 
ATOM      6  C   UNL     1       3.244   7.116  18.311  0.00  0.00    +0.000 A 
ATOM      7  C   UNL     1       2.489   7.856  17.422  0.00  0.00    +0.000 A 
ATOM      8  C   UNL     1       1.539   8.744  17.906  0.00  0.00    +0.000 A 
ATOM      9  C   UNL     1       1.300   8.810  19.292  0.00  0.00    +0.000 A 
ATOM     10  H   UNL     1       1.332   7.215  22.064  0.00  0.00    +0.000 HD
ENDROOT
BRANCH   1  12
ATOM     11  O   UNL     1       1.693  11.964  19.955  0.00  0.00    +0.000 OA
ATOM     12  C   UNL     1       0.694  11.258  20.075  0.00  0.00    +0.000 C 
BRANCH  12  13
ATOM     13  C   UNL     1      -0.644  11.838  19.970  0.00  0.00    +0.000 A 
ATOM     14  C   UNL     1      -1.247  12.847  20.789  0.00  0.00    +0.000 A 
ATOM     15  C   UNL     1      -2.534  13.066  20.342  0.00  0.00    +0.000 A 
ATOM     16  N   UNL     1      -2.723  12.258  19.267  0.00  0.00    +0.000 N 
ATOM     17  C   UNL     1      -1.571  11.576  18.972  0.00  0.00    +0.000 A 
ATOM     18  C   UNL     1      -1.599  10.774  17.723  0.00  0.00    +0.000 C 
ATOM     19  S   UNL     1      -3.297  10.972  17.043  0.00  0.00    +0.000 S 
ATOM     20  C   UNL     1      -3.861  12.115  18.366  0.00  0.00    +0.000 C 
BRANCH  20  21
ATOM     21  C   UNL     1      -5.100  11.627  19.076  0.00  0.00    +0.000 A 
ATOM     22  C   UNL     1      -5.644  12.252  20.209  0.00  0.00    +0.000 A 
ATOM     23  C   UNL     1      -6.785  11.730  20.815  0.00  0.00    +0.000 A 
ATOM     24  C   UNL     1      -7.365  10.597  20.267  0.00  0.00    +0.000 A 
ATOM     25  N   UNL     1      -6.881   9.966  19.175  0.00  0.00    +0.000 NA
ATOM     26  C   UNL     1      -5.769  10.497  18.617  0.00  0.00    +0.000 A 
ENDBRANCH  20  21
ENDBRANCH  12  13
ENDBRANCH   1  12
BRANCH   6  27
ATOM     27  O   UNL     1       4.442   6.559  18.004  0.00  0.00    +0.000 OA
BRANCH  27  28
ATOM     28  C   UNL     1       4.456   5.554  16.986  0.00  0.00    +0.000 C 
BRANCH  28  29
ATOM     29  C   UNL     1       3.998   4.323  17.705  0.00  0.00    +0.000 A 
ATOM     30  C   UNL     1       4.669   3.854  18.839  0.00  0.00    +0.000 A 
ATOM     31  C   UNL     1       4.280   2.653  19.422  0.00  0.00    +0.000 A 
ATOM     32  C   UNL     1       3.229   1.918  18.872  0.00  0.00    +0.000 A 
ATOM     33  C   UNL     1       2.564   2.379  17.737  0.00  0.00    +0.000 A 
ATOM     34  C   UNL     1       2.939   3.582  17.161  0.00  0.00    +0.000 A 
ENDBRANCH  28  29
ENDBRANCH  27  28
ENDBRANCH   6  27
TORSDOF 6
ENDMDL
MODEL 5
REMARK VINA RESULT:      -8.2      3.973      6.307
REMARK  Name = 
REMARK  6 active torsions:
REMARK  status: ('A' for Active; 'I' for Inactive)
REMARK    1  A    between atoms: C_2  and  C_3
REMARK    2  A    between atoms: C_2  and  C_17
REMARK    3  A    between atoms: C_10  and  C_11
REMARK    4  A    between atoms: C_22  and  O_23
REMARK    5  A    between atoms: O_23  and  C_24
REMARK    6  A    between atoms: C_24  and  C_25
REMARK                            x       y       z     vdW  Elec       q    Type
REMARK                         _______ _______ _______ _____ _____    ______ ____
ROOT
ATOM      1  C   UNL     1       1.079   9.466  19.546  0.00  0.00    +0.000 A 
ATOM      2  C   UNL     1       1.534  10.251  18.491  0.00  0.00    +0.000 A 
ATOM      3  N   UNL     1       2.435   9.525  17.762  0.00  0.00    +0.000 N 
ATOM      4  C   UNL     1       2.446   8.238  18.235  0.00  0.00    +0.000 A 
ATOM      5  C   UNL     1       2.831   7.048  17.620  0.00  0.00    +0.000 A 
ATOM      6  C   UNL     1       2.647   5.881  18.362  0.00  0.00    +0.000 A 
ATOM      7  C   UNL     1       2.452   5.937  19.729  0.00  0.00    +0.000 A 
ATOM      8  C   UNL     1       2.018   7.120  20.310  0.00  0.00    +0.000 A 
ATOM      9  C   UNL     1       1.870   8.268  19.509  0.00  0.00    +0.000 A 
ATOM     10  H   UNL     1       2.878   9.827  16.904  0.00  0.00    +0.000 HD
ENDROOT
BRANCH   1  12
ATOM     11  O   UNL     1      -0.306   9.324  21.440  0.00  0.00    +0.000 OA
ATOM     12  C   UNL     1      -0.139   9.782  20.312  0.00  0.00    +0.000 C 
BRANCH  12  13
ATOM     13  C   UNL     1      -1.092  10.735  19.747  0.00  0.00    +0.000 A 
ATOM     14  C   UNL     1      -1.418  12.051  20.208  0.00  0.00    +0.000 A 
ATOM     15  C   UNL     1      -2.393  12.579  19.384  0.00  0.00    +0.000 A 
ATOM     16  N   UNL     1      -2.644  11.650  18.425  0.00  0.00    +0.000 N 
ATOM     17  C   UNL     1      -1.811  10.572  18.571  0.00  0.00    +0.000 A 
ATOM     18  C   UNL     1      -1.878   9.554  17.492  0.00  0.00    +0.000 C 
ATOM     19  S   UNL     1      -3.179  10.144  16.333  0.00  0.00    +0.000 S 
ATOM     20  C   UNL     1      -3.527  11.689  17.265  0.00  0.00    +0.000 C 
BRANCH  20  21
ATOM     21  C   UNL     1      -4.979  11.829  17.651  0.00  0.00    +0.000 A 
ATOM     22  C   UNL     1      -5.820  12.840  17.160  0.00  0.00    +0.000 A 
ATOM     23  C   UNL     1      -7.148  12.907  17.576  0.00  0.00    +0.000 A 
ATOM     24  C   UNL     1      -7.610  11.954  18.470  0.00  0.00    +0.000 A 
ATOM     25  N   UNL     1      -6.840  10.961  18.964  0.00  0.00    +0.000 NA
ATOM     26  C   UNL     1      -5.555  10.929  18.542  0.00  0.00    +0.000 A 
ENDBRANCH  20  21
ENDBRANCH  12  13
ENDBRANCH   1  12
BRANCH   6  27
ATOM     27  O   UNL     1       2.652   4.730  17.646  0.00  0.00    +0.000 OA
BRANCH  27  28
ATOM     28  C   UNL     1       3.481   3.666  18.122  0.00  0.00    +0.000 C 
BRANCH  28  29
ATOM     29  C   UNL     1       4.822   3.977  17.532  0.00  0.00    +0.000 A 
ATOM     30  C   UNL     1       5.887   4.398  18.334  0.00  0.00    +0.000 A 
ATOM     31  C   UNL     1       7.088   4.776  17.742  0.00  0.00    +0.000 A 
ATOM     32  C   UNL     1       7.223   4.740  16.353  0.00  0.00    +0.000 A 
ATOM     33  C   UNL     1       6.160   4.329  15.551  0.00  0.00    +0.000 A 
ATOM     34  C   UNL     1       4.967   3.938  16.138  0.00  0.00    +0.000 A 
ENDBRANCH  28  29
ENDBRANCH  27  28
ENDBRANCH   6  27
TORSDOF 6
ENDMDL
MODEL 6
REMARK VINA RESULT:      -8.1      4.018      6.283
REMARK  Name = 
REMARK  6 active torsions:
REMARK  status: ('A' for Active; 'I' for Inactive)
REMARK    1  A    between atoms: C_2  and  C_3
REMARK    2  A    between atoms: C_2  and  C_17
REMARK    3  A    between atoms: C_10  and  C_11
REMARK    4  A    between atoms: C_22  and  O_23
REMARK    5  A    between atoms: O_23  and  C_24
REMARK    6  A    between atoms: C_24  and  C_25
REMARK                            x       y       z     vdW  Elec       q    Type
REMARK                         _______ _______ _______ _____ _____    ______ ____
ROOT
ATOM      1  C   UNL     1       1.070   9.388  19.579  0.00  0.00    +0.000 A 
ATOM      2  C   UNL     1       1.522  10.180  18.528  0.00  0.00    +0.000 A 
ATOM      3  N   UNL     1       2.413   9.455  17.786  0.00  0.00    +0.000 N 
ATOM      4  C   UNL     1       2.420   8.164  18.247  0.00  0.00    +0.000 A 
ATOM      5  C   UNL     1       2.793   6.977  17.618  0.00  0.00    +0.000 A 
ATOM      6  C   UNL     1       2.607   5.804  18.351  0.00  0.00    +0.000 A 
ATOM      7  C   UNL     1       2.423   5.849  19.720  0.00  0.00    +0.000 A 
ATOM      8  C   UNL     1       2.000   7.030  20.315  0.00  0.00    +0.000 A 
ATOM      9  C   UNL     1       1.853   8.185  19.525  0.00  0.00    +0.000 A 
ATOM     10  H   UNL     1       2.851   9.762  16.927  0.00  0.00    +0.000 HD
ENDROOT
BRANCH   1  12
ATOM     11  O   UNL     1      -0.300   9.240  21.483  0.00  0.00    +0.000 OA
ATOM     12  C   UNL     1      -0.140   9.704  20.356  0.00  0.00    +0.000 C 
BRANCH  12  13
ATOM     13  C   UNL     1      -1.093  10.666  19.806  0.00  0.00    +0.000 A 
ATOM     14  C   UNL     1      -1.430  11.969  20.293  0.00  0.00    +0.000 A 
ATOM     15  C   UNL     1      -2.401  12.510  19.474  0.00  0.00    +0.000 A 
ATOM     16  N   UNL     1      -2.639  11.602  18.492  0.00  0.00    +0.000 N 
ATOM     17  C   UNL     1      -1.802  10.525  18.621  0.00  0.00    +0.000 A 
ATOM     18  C   UNL     1      -1.856   9.532  17.519  0.00  0.00    +0.000 C 
ATOM     19  S   UNL     1      -3.150  10.141  16.362  0.00  0.00    +0.000 S 
ATOM     20  C   UNL     1      -3.513  11.663  17.326  0.00  0.00    +0.000 C 
BRANCH  20  21
ATOM     21  C   UNL     1      -4.969  11.787  17.703  0.00  0.00    +0.000 A 
ATOM     22  C   UNL     1      -5.672  10.809  18.422  0.00  0.00    +0.000 A 
ATOM     23  C   UNL     1      -7.021  10.994  18.719  0.00  0.00    +0.000 A 
ATOM     24  C   UNL     1      -7.636  12.162  18.298  0.00  0.00    +0.000 A 
ATOM     25  N   UNL     1      -6.999  13.134  17.609  0.00  0.00    +0.000 NA
ATOM     26  C   UNL     1      -5.692  12.917  17.334  0.00  0.00    +0.000 A 
ENDBRANCH  20  21
ENDBRANCH  12  13
ENDBRANCH   1  12
BRANCH   6  27
ATOM     27  O   UNL     1       2.599   4.660  17.625  0.00  0.00    +0.000 OA
BRANCH  27  28
ATOM     28  C   UNL     1       3.541   3.646  17.989  0.00  0.00    +0.000 C 
BRANCH  28  29
ATOM     29  C   UNL     1       4.803   4.083  17.311  0.00  0.00    +0.000 A 
ATOM     30  C   UNL     1       4.914   4.084  15.917  0.00  0.00    +0.000 A 
ATOM     31  C   UNL     1       6.132   4.398  15.322  0.00  0.00    +0.000 A 
ATOM     32  C   UNL     1       7.237   4.703  16.117  0.00  0.00    +0.000 A 
ATOM     33  C   UNL     1       7.132   4.694  17.507  0.00  0.00    +0.000 A 
ATOM     34  C   UNL     1       5.917   4.396  18.103  0.00  0.00    +0.000 A 
ENDBRANCH  28  29
ENDBRANCH  27  28
ENDBRANCH   6  27
TORSDOF 6
ENDMDL
MODEL 7
REMARK VINA RESULT:      -7.9      3.978      6.279
REMARK  Name = 
REMARK  6 active torsions:
REMARK  status: ('A' for Active; 'I' for Inactive)
REMARK    1  A    between atoms: C_2  and  C_3
REMARK    2  A    between atoms: C_2  and  C_17
REMARK    3  A    between atoms: C_10  and  C_11
REMARK    4  A    between atoms: C_22  and  O_23
REMARK    5  A    between atoms: O_23  and  C_24
REMARK    6  A    between atoms: C_24  and  C_25
REMARK                            x       y       z     vdW  Elec       q    Type
REMARK                         _______ _______ _______ _____ _____    ______ ____
ROOT
ATOM      1  C   UNL     1       1.118   9.512  18.808  0.00  0.00    +0.000 A 
ATOM      2  C   UNL     1       1.982  10.045  17.856  0.00  0.00    +0.000 A 
ATOM      3  N   UNL     1       3.025   9.178  17.678  0.00  0.00    +0.000 N 
ATOM      4  C   UNL     1       2.763   8.029  18.378  0.00  0.00    +0.000 A 
ATOM      5  C   UNL     1       3.249   6.733  18.210  0.00  0.00    +0.000 A 
ATOM      6  C   UNL     1       2.719   5.759  19.057  0.00  0.00    +0.000 A 
ATOM      7  C   UNL     1       2.051   6.116  20.213  0.00  0.00    +0.000 A 
ATOM      8  C   UNL     1       1.532   7.398  20.334  0.00  0.00    +0.000 A 
ATOM      9  C   UNL     1       1.773   8.338  19.315  0.00  0.00    +0.000 A 
ATOM     10  H   UNL     1       3.768   9.283  17.000  0.00  0.00    +0.000 HD
ENDROOT
BRANCH   1  12
ATOM     11  O   UNL     1      -1.102   9.827  18.104  0.00  0.00    +0.000 OA
ATOM     12  C   UNL     1      -0.264   9.986  18.989  0.00  0.00    +0.000 C 
BRANCH  12  13
ATOM     13  C   UNL     1      -0.646  10.551  20.282  0.00  0.00    +0.000 A 
ATOM     14  C   UNL     1      -0.448  10.002  21.590  0.00  0.00    +0.000 A 
ATOM     15  C   UNL     1      -0.994  10.866  22.519  0.00  0.00    +0.000 A 
ATOM     16  N   UNL     1      -1.482  11.929  21.829  0.00  0.00    +0.000 N 
ATOM     17  C   UNL     1      -1.205  11.803  20.493  0.00  0.00    +0.000 A 
ATOM     18  C   UNL     1      -1.550  12.976  19.650  0.00  0.00    +0.000 C 
ATOM     19  S   UNL     1      -2.318  14.199  20.789  0.00  0.00    +0.000 S 
ATOM     20  C   UNL     1      -2.106  13.164  22.292  0.00  0.00    +0.000 C 
BRANCH  20  21
ATOM     21  C   UNL     1      -3.402  12.915  23.024  0.00  0.00    +0.000 A 
ATOM     22  C   UNL     1      -3.486  12.705  24.409  0.00  0.00    +0.000 A 
ATOM     23  C   UNL     1      -4.723  12.469  25.006  0.00  0.00    +0.000 A 
ATOM     24  C   UNL     1      -5.853  12.458  24.205  0.00  0.00    +0.000 A 
ATOM     25  N   UNL     1      -5.822  12.660  22.870  0.00  0.00    +0.000 NA
ATOM     26  C   UNL     1      -4.604  12.881  22.323  0.00  0.00    +0.000 A 
ENDBRANCH  20  21
ENDBRANCH  12  13
ENDBRANCH   1  12
BRANCH   6  27
ATOM     27  O   UNL     1       2.891   4.478  18.649  0.00  0.00    +0.000 OA
BRANCH  27  28
ATOM     28  C   UNL     1       4.081   3.808  19.075  0.00  0.00    +0.000 C 
BRANCH  28  29
ATOM     29  C   UNL     1       5.056   4.097  17.974  0.00  0.00    +0.000 A 
ATOM     30  C   UNL     1       4.771   3.760  16.648  0.00  0.00    +0.000 A 
ATOM     31  C   UNL     1       5.738   3.950  15.666  0.00  0.00    +0.000 A 
ATOM     32  C   UNL     1       6.988   4.467  16.009  0.00  0.00    +0.000 A 
ATOM     33  C   UNL     1       7.278   4.795  17.333  0.00  0.00    +0.000 A 
ATOM     34  C   UNL     1       6.312   4.621  18.311  0.00  0.00    +0.000 A 
ENDBRANCH  28  29
ENDBRANCH  27  28
ENDBRANCH   6  27
TORSDOF 6
ENDMDL
MODEL 8
REMARK VINA RESULT:      -7.9      3.963      8.176
REMARK  Name = 
REMARK  6 active torsions:
REMARK  status: ('A' for Active; 'I' for Inactive)
REMARK    1  A    between atoms: C_2  and  C_3
REMARK    2  A    between atoms: C_2  and  C_17
REMARK    3  A    between atoms: C_10  and  C_11
REMARK    4  A    between atoms: C_22  and  O_23
REMARK    5  A    between atoms: O_23  and  C_24
REMARK    6  A    between atoms: C_24  and  C_25
REMARK                            x       y       z     vdW  Elec       q    Type
REMARK                         _______ _______ _______ _____ _____    ______ ____
ROOT
ATOM      1  C   UNL     1       0.095  11.354  19.552  0.00  0.00    +0.000 A 
ATOM      2  C   UNL     1      -0.286  11.196  20.881  0.00  0.00    +0.000 A 
ATOM      3  N   UNL     1      -0.007   9.915  21.268  0.00  0.00    +0.000 N 
ATOM      4  C   UNL     1       0.691   9.296  20.263  0.00  0.00    +0.000 A 
ATOM      5  C   UNL     1       1.550   8.198  20.297  0.00  0.00    +0.000 A 
ATOM      6  C   UNL     1       2.167   7.860  19.093  0.00  0.00    +0.000 A 
ATOM      7  C   UNL     1       1.680   8.337  17.890  0.00  0.00    +0.000 A 
ATOM      8  C   UNL     1       0.869   9.463  17.880  0.00  0.00    +0.000 A 
ATOM      9  C   UNL     1       0.484  10.046  19.102  0.00  0.00    +0.000 A 
ATOM     10  H   UNL     1      -0.124   9.543  22.202  0.00  0.00    +0.000 HD
ENDROOT
BRANCH   1  12
ATOM     11  O   UNL     1      -0.676  13.244  18.388  0.00  0.00    +0.000 OA
ATOM     12  C   UNL     1       0.272  12.672  18.921  0.00  0.00    +0.000 C 
BRANCH  12  13
ATOM     13  C   UNL     1       1.571  13.332  19.035  0.00  0.00    +0.000 A 
ATOM     14  C   UNL     1       2.641  13.370  18.084  0.00  0.00    +0.000 A 
ATOM     15  C   UNL     1       3.689  14.086  18.627  0.00  0.00    +0.000 A 
ATOM     16  N   UNL     1       3.285  14.511  19.852  0.00  0.00    +0.000 N 
ATOM     17  C   UNL     1       1.984  14.145  20.082  0.00  0.00    +0.000 A 
ATOM     18  C   UNL     1       1.372  14.684  21.323  0.00  0.00    +0.000 C 
ATOM     19  S   UNL     1       2.700  15.648  22.154  0.00  0.00    +0.000 S 
ATOM     20  C   UNL     1       3.950  15.353  20.839  0.00  0.00    +0.000 C 
BRANCH  20  21
ATOM     21  C   UNL     1       5.221  14.731  21.365  0.00  0.00    +0.000 A 
ATOM     22  C   UNL     1       6.496  15.024  20.859  0.00  0.00    +0.000 A 
ATOM     23  C   UNL     1       7.621  14.396  21.391  0.00  0.00    +0.000 A 
ATOM     24  C   UNL     1       7.445  13.493  22.428  0.00  0.00    +0.000 A 
ATOM     25  N   UNL     1       6.238  13.184  22.950  0.00  0.00    +0.000 NA
ATOM     26  C   UNL     1       5.169  13.809  22.405  0.00  0.00    +0.000 A 
ENDBRANCH  20  21
ENDBRANCH  12  13
ENDBRANCH   1  12
BRANCH   6  27
ATOM     27  O   UNL     1       3.263   7.069  19.203  0.00  0.00    +0.000 OA
BRANCH  27  28
ATOM     28  C   UNL     1       3.350   5.944  18.324  0.00  0.00    +0.000 C 
BRANCH  28  29
ATOM     29  C   UNL     1       2.589   4.876  19.048  0.00  0.00    +0.000 A 
ATOM     30  C   UNL     1       1.618   4.110  18.396  0.00  0.00    +0.000 A 
ATOM     31  C   UNL     1       0.859   3.197  19.121  0.00  0.00    +0.000 A 
ATOM     32  C   UNL     1       1.064   3.055  20.494  0.00  0.00    +0.000 A 
ATOM     33  C   UNL     1       2.025   3.824  21.148  0.00  0.00    +0.000 A 
ATOM     34  C   UNL     1       2.793   4.724  20.427  0.00  0.00    +0.000 A 
ENDBRANCH  28  29
ENDBRANCH  27  28
ENDBRANCH   6  27
TORSDOF 6
ENDMDL
MODEL 9
REMARK VINA RESULT:      -7.9      3.987      6.502
REMARK  Name = 
REMARK  6 active torsions:
REMARK  status: ('A' for Active; 'I' for Inactive)
REMARK    1  A    between atoms: C_2  and  C_3
REMARK    2  A    between atoms: C_2  and  C_17
REMARK    3  A    between atoms: C_10  and  C_11
REMARK    4  A    between atoms: C_22  and  O_23
REMARK    5  A    between atoms: O_23  and  C_24
REMARK    6  A    between atoms: C_24  and  C_25
REMARK                            x       y       z     vdW  Elec       q    Type
REMARK                         _______ _______ _______ _____ _____    ______ ____
ROOT
ATOM      1  C   UNL     1       0.862   9.772  19.098  0.00  0.00    +0.000 A 
ATOM      2  C   UNL     1       1.534  10.308  18.003  0.00  0.00    +0.000 A 
ATOM      3  N   UNL     1       2.535   9.450  17.642  0.00  0.00    +0.000 N 
ATOM      4  C   UNL     1       2.417   8.302  18.382  0.00  0.00    +0.000 A 
ATOM      5  C   UNL     1       2.877   7.010  18.133  0.00  0.00    +0.000 A 
ATOM      6  C   UNL     1       2.520   6.036  19.065  0.00  0.00    +0.000 A 
ATOM      7  C   UNL     1       2.068   6.392  20.322  0.00  0.00    +0.000 A 
ATOM      8  C   UNL     1       1.567   7.670  20.530  0.00  0.00    +0.000 A 
ATOM      9  C   UNL     1       1.609   8.607  19.481  0.00  0.00    +0.000 A 
ATOM     10  H   UNL     1       3.143   9.559  16.840  0.00  0.00    +0.000 HD
ENDROOT
BRANCH   1  12
ATOM     11  O   UNL     1      -1.474   9.931  18.883  0.00  0.00    +0.000 OA
ATOM     12  C   UNL     1      -0.470  10.234  19.524  0.00  0.00    +0.000 C 
BRANCH  12  13
ATOM     13  C   UNL     1      -0.585  10.967  20.784  0.00  0.00    +0.000 A 
ATOM     14  C   UNL     1      -0.830  10.453  22.097  0.00  0.00    +0.000 A 
ATOM     15  C   UNL     1      -0.887  11.511  22.983  0.00  0.00    +0.000 A 
ATOM     16  N   UNL     1      -0.653  12.639  22.264  0.00  0.00    +0.000 N 
ATOM     17  C   UNL     1      -0.381  12.329  20.957  0.00  0.00    +0.000 A 
ATOM     18  C   UNL     1       0.044  13.464  20.100  0.00  0.00    +0.000 C 
ATOM     19  S   UNL     1      -0.018  14.952  21.179  0.00  0.00    +0.000 S 
ATOM     20  C   UNL     1      -0.534  14.031  22.683  0.00  0.00    +0.000 C 
BRANCH  20  21
ATOM     21  C   UNL     1      -1.809  14.562  23.289  0.00  0.00    +0.000 A 
ATOM     22  C   UNL     1      -1.966  14.831  24.658  0.00  0.00    +0.000 A 
ATOM     23  C   UNL     1      -3.183  15.308  25.141  0.00  0.00    +0.000 A 
ATOM     24  C   UNL     1      -4.217  15.516  24.241  0.00  0.00    +0.000 A 
ATOM     25  N   UNL     1      -4.110  15.276  22.916  0.00  0.00    +0.000 NA
ATOM     26  C   UNL     1      -2.916  14.809  22.483  0.00  0.00    +0.000 A 
ENDBRANCH  20  21
ENDBRANCH  12  13
ENDBRANCH   1  12
BRANCH   6  27
ATOM     27  O   UNL     1       2.627   4.754  18.637  0.00  0.00    +0.000 OA
BRANCH  27  28
ATOM     28  C   UNL     1       3.652   3.949  19.228  0.00  0.00    +0.000 C 
BRANCH  28  29
ATOM     29  C   UNL     1       4.792   4.074  18.265  0.00  0.00    +0.000 A 
ATOM     30  C   UNL     1       6.022   4.607  18.663  0.00  0.00    +0.000 A 
ATOM     31  C   UNL     1       7.026   4.802  17.719  0.00  0.00    +0.000 A 
ATOM     32  C   UNL     1       6.800   4.472  16.382  0.00  0.00    +0.000 A 
ATOM     33  C   UNL     1       5.572   3.948  15.982  0.00  0.00    +0.000 A 
ATOM     34  C   UNL     1       4.574   3.739  16.921  0.00  0.00    +0.000 A 
ENDBRANCH  28  29
ENDBRANCH  27  28
ENDBRANCH   6  27
TORSDOF 6
ENDMDL
