MODEL 1
REMARK VINA RESULT:      -8.0      0.000      0.000
REMARK  Name = 
REMARK  10 active torsions:
REMARK  status: ('A' for Active; 'I' for Inactive)
REMARK    1  A    between atoms: C_1  and  O_2
REMARK    2  A    between atoms: O_2  and  C_3
REMARK    3  A    between atoms: C_6  and  S_7
REMARK    4  A    between atoms: S_7  and  N_10
REMARK    5  A    between atoms: N_10  and  C_11
REMARK    6  A    between atoms: N_10  and  C_12
REMARK    7  A    between atoms: C_12  and  C_13
REMARK    8  A    between atoms: N_18  and  C_19
REMARK    9  A    between atoms: C_29  and  O_30
REMARK   10  A    between atoms: O_30  and  C_31
REMARK                            x       y       z     vdW  Elec       q    Type
REMARK                         _______ _______ _______ _____ _____    ______ ____
ROOT
ATOM      1  C   UNL     1       2.355   6.462  19.249  0.00  0.00    +0.000 C 
ENDROOT
BRANCH   1   2
ATOM      2  C   UNL     1       2.316   7.860  18.658  0.00  0.00    +0.000 C 
ATOM      3  O   UNL     1       2.902   8.119  17.599  0.00  0.00    +0.000 OA
ATOM      4  N   UNL     1       1.596   8.816  19.359  0.00  0.00    +0.000 N 
ATOM      5  C   UNL     1       1.330  10.125  18.748  0.00  0.00    +0.000 C 
ATOM      6  C   UNL     1      -0.113  10.597  19.026  0.00  0.00    +0.000 C 
ATOM      7  N   UNL     1      -0.365  10.536  20.476  0.00  0.00    +0.000 N 
ATOM      8  C   UNL     1      -0.172   9.207  21.075  0.00  0.00    +0.000 C 
ATOM      9  C   UNL     1       1.257   8.723  20.783  0.00  0.00    +0.000 C 
BRANCH   7  10
ATOM     10  C   UNL     1      -1.076  11.504  21.150  0.00  0.00    +0.000 A 
ATOM     11  C   UNL     1      -0.997  11.672  22.540  0.00  0.00    +0.000 A 
ATOM     12  C   UNL     1      -1.776  12.628  23.199  0.00  0.00    +0.000 A 
ATOM     13  C   UNL     1      -2.649  13.423  22.470  0.00  0.00    +0.000 A 
ATOM     14  F   UNL     1      -3.408  14.327  23.101  0.00  0.00    +0.000 F 
ATOM     15  C   UNL     1      -2.753  13.284  21.095  0.00  0.00    +0.000 A 
ATOM     16  C   UNL     1      -1.966  12.335  20.446  0.00  0.00    +0.000 A 
ENDBRANCH   7  10
ENDBRANCH   1   2
BRANCH   1  17
ATOM     17  N   UNL     1       2.695   5.365  18.262  0.00  0.00    +0.000 NA
ATOM     18  C   UNL     1       1.494   4.528  18.015  0.00  0.00    +0.000 C 
BRANCH  17  19
ATOM     19  S   UNL     1       4.107   4.513  18.760  0.00  0.00    +0.000 S 
ATOM     20  O   UNL     1       3.729   3.115  18.795  0.00  0.00    +0.000 OA
ATOM     21  O   UNL     1       4.670   5.179  19.912  0.00  0.00    +0.000 OA
BRANCH  19  25
ATOM     22  C   UNL     1       6.989   5.072  15.260  0.00  0.00    +0.000 A 
ATOM     23  C   UNL     1       6.125   3.964  15.324  0.00  0.00    +0.000 A 
ATOM     24  C   UNL     1       5.236   3.809  16.379  0.00  0.00    +0.000 A 
ATOM     25  C   UNL     1       5.275   4.707  17.440  0.00  0.00    +0.000 A 
ATOM     26  C   UNL     1       6.219   5.731  17.464  0.00  0.00    +0.000 A 
ATOM     27  C   UNL     1       7.068   5.943  16.363  0.00  0.00    +0.000 A 
BRANCH  22  29
ATOM     28  C   UNL     1       7.154   4.825  12.911  0.00  0.00    +0.000 C 
ATOM     29  O   UNL     1       7.741   5.290  14.134  0.00  0.00    +0.000 OA
ENDBRANCH  22  29
BRANCH  27  30
ATOM     30  O   UNL     1       7.851   7.050  16.546  0.00  0.00    +0.000 OA
ATOM     31  C   UNL     1       7.600   7.925  17.632  0.00  0.00    +0.000 C 
ENDBRANCH  27  30
ENDBRANCH  19  25
ENDBRANCH  17  19
ENDBRANCH   1  17
TORSDOF 7
ENDMDL
MODEL 2
REMARK VINA RESULT:      -7.9      1.293      1.375
REMARK  Name = 
REMARK  10 active torsions:
REMARK  status: ('A' for Active; 'I' for Inactive)
REMARK    1  A    between atoms: C_1  and  O_2
REMARK    2  A    between atoms: O_2  and  C_3
REMARK    3  A    between atoms: C_6  and  S_7
REMARK    4  A    between atoms: S_7  and  N_10
REMARK    5  A    between atoms: N_10  and  C_11
REMARK    6  A    between atoms: N_10  and  C_12
REMARK    7  A    between atoms: C_12  and  C_13
REMARK    8  A    between atoms: N_18  and  C_19
REMARK    9  A    between atoms: C_29  and  O_30
REMARK   10  A    between atoms: O_30  and  C_31
REMARK                            x       y       z     vdW  Elec       q    Type
REMARK                         _______ _______ _______ _____ _____    ______ ____
ROOT
ATOM      1  C   UNL     1       2.514   5.541  20.093  0.00  0.00    +0.000 C 
ENDROOT
BRANCH   1   2
ATOM      2  C   UNL     1       2.504   6.825  19.282  0.00  0.00    +0.000 C 
ATOM      3  O   UNL     1       3.081   6.890  18.189  0.00  0.00    +0.000 OA
ATOM      4  N   UNL     1       1.822   7.904  19.825  0.00  0.00    +0.000 N 
ATOM      5  C   UNL     1       1.583   9.102  19.010  0.00  0.00    +0.000 C 
ATOM      6  C   UNL     1       0.158   9.656  19.223  0.00  0.00    +0.000 C 
ATOM      7  N   UNL     1      -0.073   9.839  20.667  0.00  0.00    +0.000 N 
ATOM      8  C   UNL     1       0.092   8.621  21.472  0.00  0.00    +0.000 C 
ATOM      9  C   UNL     1       1.502   8.054  21.248  0.00  0.00    +0.000 C 
BRANCH   7  10
ATOM     10  C   UNL     1      -0.747  10.926  21.180  0.00  0.00    +0.000 A 
ATOM     11  C   UNL     1      -0.908  11.134  22.558  0.00  0.00    +0.000 A 
ATOM     12  C   UNL     1      -1.647  12.217  23.044  0.00  0.00    +0.000 A 
ATOM     13  C   UNL     1      -2.239  13.100  22.152  0.00  0.00    +0.000 A 
ATOM     14  F   UNL     1      -2.961  14.127  22.615  0.00  0.00    +0.000 F 
ATOM     15  C   UNL     1      -2.101  12.924  20.784  0.00  0.00    +0.000 A 
ATOM     16  C   UNL     1      -1.355  11.847  20.309  0.00  0.00    +0.000 A 
ENDBRANCH   7  10
ENDBRANCH   1   2
BRANCH   1  17
ATOM     17  N   UNL     1       2.097   4.303  19.327  0.00  0.00    +0.000 NA
ATOM     18  C   UNL     1       0.819   3.785  19.875  0.00  0.00    +0.000 C 
BRANCH  17  19
ATOM     19  S   UNL     1       3.390   3.167  19.253  0.00  0.00    +0.000 S 
ATOM     20  O   UNL     1       2.830   1.973  18.655  0.00  0.00    +0.000 OA
ATOM     21  O   UNL     1       4.056   3.137  20.535  0.00  0.00    +0.000 OA
BRANCH  19  25
ATOM     22  C   UNL     1       6.275   5.024  16.236  0.00  0.00    +0.000 A 
ATOM     23  C   UNL     1       5.155   4.286  15.815  0.00  0.00    +0.000 A 
ATOM     24  C   UNL     1       4.269   3.741  16.736  0.00  0.00    +0.000 A 
ATOM     25  C   UNL     1       4.552   3.838  18.093  0.00  0.00    +0.000 A 
ATOM     26  C   UNL     1       5.730   4.443  18.528  0.00  0.00    +0.000 A 
ATOM     27  C   UNL     1       6.591   5.068  17.608  0.00  0.00    +0.000 A 
BRANCH  22  29
ATOM     28  C   UNL     1       7.212   5.011  14.062  0.00  0.00    +0.000 C 
ATOM     29  O   UNL     1       7.044   5.688  15.315  0.00  0.00    +0.000 OA
ENDBRANCH  22  29
BRANCH  27  30
ATOM     30  O   UNL     1       7.636   5.681  18.243  0.00  0.00    +0.000 OA
ATOM     31  C   UNL     1       7.731   5.636  19.657  0.00  0.00    +0.000 C 
ENDBRANCH  27  30
ENDBRANCH  19  25
ENDBRANCH  17  19
ENDBRANCH   1  17
TORSDOF 7
ENDMDL
MODEL 3
REMARK VINA RESULT:      -7.8      1.357      1.784
REMARK  Name = 
REMARK  10 active torsions:
REMARK  status: ('A' for Active; 'I' for Inactive)
REMARK    1  A    between atoms: C_1  and  O_2
REMARK    2  A    between atoms: O_2  and  C_3
REMARK    3  A    between atoms: C_6  and  S_7
REMARK    4  A    between atoms: S_7  and  N_10
REMARK    5  A    between atoms: N_10  and  C_11
REMARK    6  A    between atoms: N_10  and  C_12
REMARK    7  A    between atoms: C_12  and  C_13
REMARK    8  A    between atoms: N_18  and  C_19
REMARK    9  A    between atoms: C_29  and  O_30
REMARK   10  A    between atoms: O_30  and  C_31
REMARK                            x       y       z     vdW  Elec       q    Type
REMARK                         _______ _______ _______ _____ _____    ______ ____
ROOT
ATOM      1  C   UNL     1       3.020   6.007  19.364  0.00  0.00    +0.000 C 
ENDROOT
BRANCH   1   2
ATOM      2  C   UNL     1       2.730   7.272  18.574  0.00  0.00    +0.000 C 
ATOM      3  O   UNL     1       3.143   7.406  17.415  0.00  0.00    +0.000 OA
ATOM      4  N   UNL     1       1.988   8.253  19.214  0.00  0.00    +0.000 N 
ATOM      5  C   UNL     1       1.484   9.402  18.450  0.00  0.00    +0.000 C 
ATOM      6  C   UNL     1       0.038   9.761  18.856  0.00  0.00    +0.000 C 
ATOM      7  N   UNL     1      -0.022   9.923  20.319  0.00  0.00    +0.000 N 
ATOM      8  C   UNL     1       0.411   8.745  21.083  0.00  0.00    +0.000 C 
ATOM      9  C   UNL     1       1.843   8.370  20.668  0.00  0.00    +0.000 C 
BRANCH   7  10
ATOM     10  C   UNL     1      -0.761  10.913  20.928  0.00  0.00    +0.000 A 
ATOM     11  C   UNL     1      -1.583  11.794  20.210  0.00  0.00    +0.000 A 
ATOM     12  C   UNL     1      -2.275  12.825  20.853  0.00  0.00    +0.000 A 
ATOM     13  C   UNL     1      -2.144  12.987  22.225  0.00  0.00    +0.000 A 
ATOM     14  F   UNL     1      -2.793  13.984  22.840  0.00  0.00    +0.000 F 
ATOM     15  C   UNL     1      -1.340  12.135  22.966  0.00  0.00    +0.000 A 
ATOM     16  C   UNL     1      -0.662  11.106  22.318  0.00  0.00    +0.000 A 
ENDBRANCH   7  10
ENDBRANCH   1   2
BRANCH   1  17
ATOM     17  N   UNL     1       1.935   4.954  19.296  0.00  0.00    +0.000 NA
ATOM     18  C   UNL     1       1.177   4.936  20.572  0.00  0.00    +0.000 C 
BRANCH  17  19
ATOM     19  S   UNL     1       2.586   3.439  18.796  0.00  0.00    +0.000 S 
ATOM     20  O   UNL     1       1.632   2.894  17.853  0.00  0.00    +0.000 OA
ATOM     21  O   UNL     1       3.004   2.704  19.968  0.00  0.00    +0.000 OA
BRANCH  19  25
ATOM     22  C   UNL     1       6.322   4.597  16.435  0.00  0.00    +0.000 A 
ATOM     23  C   UNL     1       5.110   4.306  15.785  0.00  0.00    +0.000 A 
ATOM     24  C   UNL     1       3.971   3.975  16.508  0.00  0.00    +0.000 A 
ATOM     25  C   UNL     1       4.059   3.826  17.888  0.00  0.00    +0.000 A 
ATOM     26  C   UNL     1       5.284   3.972  18.537  0.00  0.00    +0.000 A 
ATOM     27  C   UNL     1       6.423   4.386  17.824  0.00  0.00    +0.000 A 
BRANCH  22  29
ATOM     28  C   UNL     1       7.220   5.051  14.292  0.00  0.00    +0.000 C 
ATOM     29  O   UNL     1       7.387   5.077  15.716  0.00  0.00    +0.000 OA
ENDBRANCH  22  29
BRANCH  27  30
ATOM     30  O   UNL     1       7.494   4.559  18.657  0.00  0.00    +0.000 OA
ATOM     31  C   UNL     1       7.685   5.798  19.319  0.00  0.00    +0.000 C 
ENDBRANCH  27  30
ENDBRANCH  19  25
ENDBRANCH  17  19
ENDBRANCH   1  17
TORSDOF 7
ENDMDL
MODEL 4
REMARK VINA RESULT:      -7.8      1.467      1.703
REMARK  Name = 
REMARK  10 active torsions:
REMARK  status: ('A' for Active; 'I' for Inactive)
REMARK    1  A    between atoms: C_1  and  O_2
REMARK    2  A    between atoms: O_2  and  C_3
REMARK    3  A    between atoms: C_6  and  S_7
REMARK    4  A    between atoms: S_7  and  N_10
REMARK    5  A    between atoms: N_10  and  C_11
REMARK    6  A    between atoms: N_10  and  C_12
REMARK    7  A    between atoms: C_12  and  C_13
REMARK    8  A    between atoms: N_18  and  C_19
REMARK    9  A    between atoms: C_29  and  O_30
REMARK   10  A    between atoms: O_30  and  C_31
REMARK                            x       y       z     vdW  Elec       q    Type
REMARK                         _______ _______ _______ _____ _____    ______ ____
ROOT
ATOM      1  C   UNL     1       2.241   5.292  19.843  0.00  0.00    +0.000 C 
ENDROOT
BRANCH   1   2
ATOM      2  C   UNL     1       2.377   6.585  19.058  0.00  0.00    +0.000 C 
ATOM      3  O   UNL     1       2.869   6.589  17.923  0.00  0.00    +0.000 OA
ATOM      4  N   UNL     1       1.925   7.742  19.674  0.00  0.00    +0.000 N 
ATOM      5  C   UNL     1       1.822   8.988  18.903  0.00  0.00    +0.000 C 
ATOM      6  C   UNL     1       0.527   9.758  19.242  0.00  0.00    +0.000 C 
ATOM      7  N   UNL     1       0.444   9.932  20.703  0.00  0.00    +0.000 N 
ATOM      8  C   UNL     1       0.471   8.680  21.470  0.00  0.00    +0.000 C 
ATOM      9  C   UNL     1       1.747   7.899  21.121  0.00  0.00    +0.000 C 
BRANCH   7  10
ATOM     10  C   UNL     1      -0.001  11.097  21.288  0.00  0.00    +0.000 A 
ATOM     11  C   UNL     1       0.456  12.364  20.895  0.00  0.00    +0.000 A 
ATOM     12  C   UNL     1       0.027  13.522  21.550  0.00  0.00    +0.000 A 
ATOM     13  C   UNL     1      -0.860  13.422  22.612  0.00  0.00    +0.000 A 
ATOM     14  F   UNL     1      -1.259  14.529  23.251  0.00  0.00    +0.000 F 
ATOM     15  C   UNL     1      -1.332  12.187  23.027  0.00  0.00    +0.000 A 
ATOM     16  C   UNL     1      -0.906  11.039  22.363  0.00  0.00    +0.000 A 
ENDBRANCH   7  10
ENDBRANCH   1   2
BRANCH   1  17
ATOM     17  N   UNL     1       1.982   4.062  19.000  0.00  0.00    +0.000 NA
ATOM     18  C   UNL     1       0.651   3.497  19.338  0.00  0.00    +0.000 C 
BRANCH  17  19
ATOM     19  S   UNL     1       3.304   2.962  19.104  0.00  0.00    +0.000 S 
ATOM     20  O   UNL     1       2.845   1.737  18.482  0.00  0.00    +0.000 OA
ATOM     21  O   UNL     1       3.823   2.984  20.453  0.00  0.00    +0.000 OA
BRANCH  19  25
ATOM     22  C   UNL     1       6.462   4.826  16.379  0.00  0.00    +0.000 A 
ATOM     23  C   UNL     1       5.395   4.078  15.853  0.00  0.00    +0.000 A 
ATOM     24  C   UNL     1       4.426   3.530  16.683  0.00  0.00    +0.000 A 
ATOM     25  C   UNL     1       4.571   3.636  18.062  0.00  0.00    +0.000 A 
ATOM     26  C   UNL     1       5.695   4.252  18.608  0.00  0.00    +0.000 A 
ATOM     27  C   UNL     1       6.639   4.879  17.775  0.00  0.00    +0.000 A 
BRANCH  22  29
ATOM     28  C   UNL     1       7.213   5.122  14.154  0.00  0.00    +0.000 C 
ATOM     29  O   UNL     1       7.315   5.492  15.536  0.00  0.00    +0.000 OA
ENDBRANCH  22  29
BRANCH  27  30
ATOM     30  O   UNL     1       7.611   5.503  18.508  0.00  0.00    +0.000 OA
ATOM     31  C   UNL     1       7.853   6.888  18.333  0.00  0.00    +0.000 C 
ENDBRANCH  27  30
ENDBRANCH  19  25
ENDBRANCH  17  19
ENDBRANCH   1  17
TORSDOF 7
ENDMDL
MODEL 5
REMARK VINA RESULT:      -7.7      1.368      2.311
REMARK  Name = 
REMARK  10 active torsions:
REMARK  status: ('A' for Active; 'I' for Inactive)
REMARK    1  A    between atoms: C_1  and  O_2
REMARK    2  A    between atoms: O_2  and  C_3
REMARK    3  A    between atoms: C_6  and  S_7
REMARK    4  A    between atoms: S_7  and  N_10
REMARK    5  A    between atoms: N_10  and  C_11
REMARK    6  A    between atoms: N_10  and  C_12
REMARK    7  A    between atoms: C_12  and  C_13
REMARK    8  A    between atoms: N_18  and  C_19
REMARK    9  A    between atoms: C_29  and  O_30
REMARK   10  A    between atoms: O_30  and  C_31
REMARK                            x       y       z     vdW  Elec       q    Type
REMARK                         _______ _______ _______ _____ _____    ______ ____
ROOT
ATOM      1  C   UNL     1       2.238   5.422  19.795  0.00  0.00    +0.000 C 
ENDROOT
BRANCH   1   2
ATOM      2  C   UNL     1       2.262   6.740  19.041  0.00  0.00    +0.000 C 
ATOM      3  O   UNL     1       2.685   6.800  17.879  0.00  0.00    +0.000 OA
ATOM      4  N   UNL     1       1.790   7.857  19.714  0.00  0.00    +0.000 N 
ATOM      5  C   UNL     1       1.579   9.114  18.987  0.00  0.00    +0.000 C 
ATOM      6  C   UNL     1       0.270   9.807  19.422  0.00  0.00    +0.000 C 
ATOM      7  N   UNL     1       0.264   9.940  20.890  0.00  0.00    +0.000 N 
ATOM      8  C   UNL     1       0.400   8.671  21.618  0.00  0.00    +0.000 C 
ATOM      9  C   UNL     1       1.691   7.966  21.173  0.00  0.00    +0.000 C 
BRANCH   7  10
ATOM     10  C   UNL     1      -0.202  11.064  21.534  0.00  0.00    +0.000 A 
ATOM     11  C   UNL     1       0.270  12.353  21.243  0.00  0.00    +0.000 A 
ATOM     12  C   UNL     1      -0.185  13.467  21.956  0.00  0.00    +0.000 A 
ATOM     13  C   UNL     1      -1.112  13.299  22.974  0.00  0.00    +0.000 A 
ATOM     14  F   UNL     1      -1.535  14.363  23.669  0.00  0.00    +0.000 F 
ATOM     15  C   UNL     1      -1.599  12.040  23.288  0.00  0.00    +0.000 A 
ATOM     16  C   UNL     1      -1.148  10.938  22.567  0.00  0.00    +0.000 A 
ENDBRANCH   7  10
ENDBRANCH   1   2
BRANCH   1  17
ATOM     17  N   UNL     1       2.076   4.195  18.923  0.00  0.00    +0.000 NA
ATOM     18  C   UNL     1       0.896   3.415  19.376  0.00  0.00    +0.000 C 
BRANCH  17  19
ATOM     19  S   UNL     1       3.555   3.317  18.825  0.00  0.00    +0.000 S 
ATOM     20  O   UNL     1       3.357   2.330  17.784  0.00  0.00    +0.000 OA
ATOM     21  O   UNL     1       3.964   2.944  20.160  0.00  0.00    +0.000 OA
BRANCH  19  25
ATOM     22  C   UNL     1       6.781   6.180  17.319  0.00  0.00    +0.000 A 
ATOM     23  C   UNL     1       6.564   5.984  18.694  0.00  0.00    +0.000 A 
ATOM     24  C   UNL     1       5.596   5.097  19.147  0.00  0.00    +0.000 A 
ATOM     25  C   UNL     1       4.760   4.473  18.228  0.00  0.00    +0.000 A 
ATOM     26  C   UNL     1       4.865   4.760  16.869  0.00  0.00    +0.000 A 
ATOM     27  C   UNL     1       5.894   5.594  16.395  0.00  0.00    +0.000 A 
BRANCH  22  29
ATOM     28  C   UNL     1       8.012   8.186  17.571  0.00  0.00    +0.000 C 
ATOM     29  O   UNL     1       7.845   6.933  16.893  0.00  0.00    +0.000 OA
ENDBRANCH  22  29
BRANCH  27  30
ATOM     30  O   UNL     1       5.880   5.672  15.029  0.00  0.00    +0.000 OA
ATOM     31  C   UNL     1       6.801   4.912  14.265  0.00  0.00    +0.000 C 
ENDBRANCH  27  30
ENDBRANCH  19  25
ENDBRANCH  17  19
ENDBRANCH   1  17
TORSDOF 7
ENDMDL
MODEL 6
REMARK VINA RESULT:      -7.2      1.707      2.303
REMARK  Name = 
REMARK  10 active torsions:
REMARK  status: ('A' for Active; 'I' for Inactive)
REMARK    1  A    between atoms: C_1  and  O_2
REMARK    2  A    between atoms: O_2  and  C_3
REMARK    3  A    between atoms: C_6  and  S_7
REMARK    4  A    between atoms: S_7  and  N_10
REMARK    5  A    between atoms: N_10  and  C_11
REMARK    6  A    between atoms: N_10  and  C_12
REMARK    7  A    between atoms: C_12  and  C_13
REMARK    8  A    between atoms: N_18  and  C_19
REMARK    9  A    between atoms: C_29  and  O_30
REMARK   10  A    between atoms: O_30  and  C_31
REMARK                            x       y       z     vdW  Elec       q    Type
REMARK                         _______ _______ _______ _____ _____    ______ ____
ROOT
ATOM      1  C   UNL     1       1.990   5.027  19.631  0.00  0.00    +0.000 C 
ENDROOT
BRANCH   1   2
ATOM      2  C   UNL     1       2.258   6.341  18.920  0.00  0.00    +0.000 C 
ATOM      3  O   UNL     1       2.812   6.364  17.814  0.00  0.00    +0.000 OA
ATOM      4  N   UNL     1       1.852   7.498  19.568  0.00  0.00    +0.000 N 
ATOM      5  C   UNL     1       1.877   8.782  18.857  0.00  0.00    +0.000 C 
ATOM      6  C   UNL     1       0.621   9.626  19.165  0.00  0.00    +0.000 C 
ATOM      7  N   UNL     1       0.467   9.737  20.626  0.00  0.00    +0.000 N 
ATOM      8  C   UNL     1       0.366   8.451  21.330  0.00  0.00    +0.000 C 
ATOM      9  C   UNL     1       1.604   7.599  21.010  0.00  0.00    +0.000 C 
BRANCH   7  10
ATOM     10  C   UNL     1       0.071  10.902  21.245  0.00  0.00    +0.000 A 
ATOM     11  C   UNL     1       0.611  12.154  20.918  0.00  0.00    +0.000 A 
ATOM     12  C   UNL     1       0.227  13.310  21.606  0.00  0.00    +0.000 A 
ATOM     13  C   UNL     1      -0.697  13.219  22.637  0.00  0.00    +0.000 A 
ATOM     14  F   UNL     1      -1.053  14.322  23.308  0.00  0.00    +0.000 F 
ATOM     15  C   UNL     1      -1.251  11.998  22.987  0.00  0.00    +0.000 A 
ATOM     16  C   UNL     1      -0.870  10.854  22.290  0.00  0.00    +0.000 A 
ENDBRANCH   7  10
ENDBRANCH   1   2
BRANCH   1  17
ATOM     17  N   UNL     1       1.843   3.829  18.716  0.00  0.00    +0.000 NA
ATOM     18  C   UNL     1       0.516   3.199  18.929  0.00  0.00    +0.000 C 
BRANCH  17  19
ATOM     19  S   UNL     1       3.199   2.777  18.867  0.00  0.00    +0.000 S 
ATOM     20  O   UNL     1       2.989   1.725  17.894  0.00  0.00    +0.000 OA
ATOM     21  O   UNL     1       3.410   2.488  20.267  0.00  0.00    +0.000 OA
BRANCH  19  25
ATOM     22  C   UNL     1       6.702   5.331  17.426  0.00  0.00    +0.000 A 
ATOM     23  C   UNL     1       5.904   4.611  16.521  0.00  0.00    +0.000 A 
ATOM     24  C   UNL     1       4.827   3.852  16.961  0.00  0.00    +0.000 A 
ATOM     25  C   UNL     1       4.600   3.720  18.326  0.00  0.00    +0.000 A 
ATOM     26  C   UNL     1       5.463   4.311  19.246  0.00  0.00    +0.000 A 
ATOM     27  C   UNL     1       6.507   5.146  18.809  0.00  0.00    +0.000 A 
BRANCH  22  29
ATOM     28  C   UNL     1       7.477   7.567  17.351  0.00  0.00    +0.000 C 
ATOM     29  O   UNL     1       7.656   6.199  16.959  0.00  0.00    +0.000 OA
ENDBRANCH  22  29
BRANCH  27  30
ATOM     30  O   UNL     1       7.176   5.700  19.865  0.00  0.00    +0.000 OA
ATOM     31  C   UNL     1       8.448   5.200  20.242  0.00  0.00    +0.000 C 
ENDBRANCH  27  30
ENDBRANCH  19  25
ENDBRANCH  17  19
ENDBRANCH   1  17
TORSDOF 7
ENDMDL
MODEL 7
REMARK VINA RESULT:      -7.2      5.184     10.817
REMARK  Name = 
REMARK  10 active torsions:
REMARK  status: ('A' for Active; 'I' for Inactive)
REMARK    1  A    between atoms: C_1  and  O_2
REMARK    2  A    between atoms: O_2  and  C_3
REMARK    3  A    between atoms: C_6  and  S_7
REMARK    4  A    between atoms: S_7  and  N_10
REMARK    5  A    between atoms: N_10  and  C_11
REMARK    6  A    between atoms: N_10  and  C_12
REMARK    7  A    between atoms: C_12  and  C_13
REMARK    8  A    between atoms: N_18  and  C_19
REMARK    9  A    between atoms: C_29  and  O_30
REMARK   10  A    between atoms: O_30  and  C_31
REMARK                            x       y       z     vdW  Elec       q    Type
REMARK                         _______ _______ _______ _____ _____    ______ ____
ROOT
ATOM      1  C   UNL     1       0.900  11.325  20.923  0.00  0.00    +0.000 C 
ENDROOT
BRANCH   1   2
ATOM      2  C   UNL     1       0.995  10.941  19.456  0.00  0.00    +0.000 C 
ATOM      3  O   UNL     1       0.824  11.785  18.567  0.00  0.00    +0.000 OA
ATOM      4  N   UNL     1       1.282   9.615  19.173  0.00  0.00    +0.000 N 
ATOM      5  C   UNL     1       1.603   9.214  17.797  0.00  0.00    +0.000 C 
ATOM      6  C   UNL     1       2.771   8.204  17.759  0.00  0.00    +0.000 C 
ATOM      7  N   UNL     1       2.465   7.086  18.668  0.00  0.00    +0.000 N 
ATOM      8  C   UNL     1       2.218   7.481  20.062  0.00  0.00    +0.000 C 
ATOM      9  C   UNL     1       1.070   8.501  20.104  0.00  0.00    +0.000 C 
BRANCH   7  10
ATOM     10  C   UNL     1       2.752   5.775  18.358  0.00  0.00    +0.000 A 
ATOM     11  C   UNL     1       1.772   4.865  17.934  0.00  0.00    +0.000 A 
ATOM     12  C   UNL     1       2.088   3.527  17.682  0.00  0.00    +0.000 A 
ATOM     13  C   UNL     1       3.392   3.084  17.860  0.00  0.00    +0.000 A 
ATOM     14  F   UNL     1       3.693   1.799  17.635  0.00  0.00    +0.000 F 
ATOM     15  C   UNL     1       4.385   3.955  18.277  0.00  0.00    +0.000 A 
ATOM     16  C   UNL     1       4.062   5.289  18.517  0.00  0.00    +0.000 A 
ENDBRANCH   7  10
ENDBRANCH   1   2
BRANCH   1  17
ATOM     17  N   UNL     1       0.341  12.708  21.183  0.00  0.00    +0.000 NA
ATOM     18  C   UNL     1       1.457  13.676  21.333  0.00  0.00    +0.000 C 
BRANCH  17  19
ATOM     19  S   UNL     1      -0.794  12.673  22.478  0.00  0.00    +0.000 S 
ATOM     20  O   UNL     1      -0.653  13.945  23.157  0.00  0.00    +0.000 OA
ATOM     21  O   UNL     1      -0.661  11.416  23.179  0.00  0.00    +0.000 OA
BRANCH  19  25
ATOM     22  C   UNL     1      -4.893  12.478  20.470  0.00  0.00    +0.000 A 
ATOM     23  C   UNL     1      -3.714  12.585  19.712  0.00  0.00    +0.000 A 
ATOM     24  C   UNL     1      -2.469  12.623  20.326  0.00  0.00    +0.000 A 
ATOM     25  C   UNL     1      -2.394  12.661  21.714  0.00  0.00    +0.000 A 
ATOM     26  C   UNL     1      -3.555  12.699  22.483  0.00  0.00    +0.000 A 
ATOM     27  C   UNL     1      -4.817  12.579  21.873  0.00  0.00    +0.000 A 
BRANCH  22  29
ATOM     28  C   UNL     1      -6.010  11.703  18.533  0.00  0.00    +0.000 C 
ATOM     29  O   UNL     1      -6.096  12.280  19.843  0.00  0.00    +0.000 OA
ENDBRANCH  22  29
BRANCH  27  30
ATOM     30  O   UNL     1      -5.817  12.544  22.805  0.00  0.00    +0.000 OA
ATOM     31  C   UNL     1      -5.716  13.323  23.985  0.00  0.00    +0.000 C 
ENDBRANCH  27  30
ENDBRANCH  19  25
ENDBRANCH  17  19
ENDBRANCH   1  17
TORSDOF 7
ENDMDL
MODEL 8
REMARK VINA RESULT:      -7.1      5.319     10.969
REMARK  Name = 
REMARK  10 active torsions:
REMARK  status: ('A' for Active; 'I' for Inactive)
REMARK    1  A    between atoms: C_1  and  O_2
REMARK    2  A    between atoms: O_2  and  C_3
REMARK    3  A    between atoms: C_6  and  S_7
REMARK    4  A    between atoms: S_7  and  N_10
REMARK    5  A    between atoms: N_10  and  C_11
REMARK    6  A    between atoms: N_10  and  C_12
REMARK    7  A    between atoms: C_12  and  C_13
REMARK    8  A    between atoms: N_18  and  C_19
REMARK    9  A    between atoms: C_29  and  O_30
REMARK   10  A    between atoms: O_30  and  C_31
REMARK                            x       y       z     vdW  Elec       q    Type
REMARK                         _______ _______ _______ _____ _____    ______ ____
ROOT
ATOM      1  C   UNL     1       1.070  12.101  20.531  0.00  0.00    +0.000 C 
ENDROOT
BRANCH   1   2
ATOM      2  C   UNL     1       1.224  11.396  19.195  0.00  0.00    +0.000 C 
ATOM      3  O   UNL     1       1.310  12.042  18.142  0.00  0.00    +0.000 OA
ATOM      4  N   UNL     1       1.265  10.010  19.218  0.00  0.00    +0.000 N 
ATOM      5  C   UNL     1       1.629   9.269  18.004  0.00  0.00    +0.000 C 
ATOM      6  C   UNL     1       2.569   8.087  18.322  0.00  0.00    +0.000 C 
ATOM      7  N   UNL     1       1.960   7.265  19.383  0.00  0.00    +0.000 N 
ATOM      8  C   UNL     1       1.667   7.991  20.626  0.00  0.00    +0.000 C 
ATOM      9  C   UNL     1       0.748   9.182  20.312  0.00  0.00    +0.000 C 
BRANCH   7  10
ATOM     10  C   UNL     1       2.008   5.888  19.377  0.00  0.00    +0.000 A 
ATOM     11  C   UNL     1       2.141   5.141  18.197  0.00  0.00    +0.000 A 
ATOM     12  C   UNL     1       2.128   3.743  18.221  0.00  0.00    +0.000 A 
ATOM     13  C   UNL     1       1.974   3.079  19.430  0.00  0.00    +0.000 A 
ATOM     14  F   UNL     1       1.944   1.740  19.452  0.00  0.00    +0.000 F 
ATOM     15  C   UNL     1       1.840   3.785  20.614  0.00  0.00    +0.000 A 
ATOM     16  C   UNL     1       1.863   5.177  20.582  0.00  0.00    +0.000 A 
ENDBRANCH   7  10
ENDBRANCH   1   2
BRANCH   1  17
ATOM     17  N   UNL     1      -0.312  12.656  20.800  0.00  0.00    +0.000 NA
ATOM     18  C   UNL     1      -0.403  14.042  20.276  0.00  0.00    +0.000 C 
BRANCH  17  19
ATOM     19  S   UNL     1      -0.737  12.458  22.458  0.00  0.00    +0.000 S 
ATOM     20  O   UNL     1      -0.185  13.608  23.144  0.00  0.00    +0.000 OA
ATOM     21  O   UNL     1      -0.422  11.107  22.861  0.00  0.00    +0.000 OA
BRANCH  19  25
ATOM     22  C   UNL     1      -5.268  13.011  22.665  0.00  0.00    +0.000 A 
ATOM     23  C   UNL     1      -4.498  12.850  23.831  0.00  0.00    +0.000 A 
ATOM     24  C   UNL     1      -3.119  12.704  23.765  0.00  0.00    +0.000 A 
ATOM     25  C   UNL     1      -2.503  12.609  22.522  0.00  0.00    +0.000 A 
ATOM     26  C   UNL     1      -3.263  12.625  21.354  0.00  0.00    +0.000 A 
ATOM     27  C   UNL     1      -4.650  12.854  21.410  0.00  0.00    +0.000 A 
BRANCH  22  29
ATOM     28  C   UNL     1      -7.370  12.427  23.583  0.00  0.00    +0.000 C 
ATOM     29  O   UNL     1      -6.601  13.315  22.760  0.00  0.00    +0.000 OA
ENDBRANCH  22  29
BRANCH  27  30
ATOM     30  O   UNL     1      -5.191  12.925  20.156  0.00  0.00    +0.000 OA
ATOM     31  C   UNL     1      -5.789  11.778  19.574  0.00  0.00    +0.000 C 
ENDBRANCH  27  30
ENDBRANCH  19  25
ENDBRANCH  17  19
ENDBRANCH   1  17
TORSDOF 7
ENDMDL
MODEL 9
REMARK VINA RESULT:      -7.1      2.460      3.381
REMARK  Name = 
REMARK  10 active torsions:
REMARK  status: ('A' for Active; 'I' for Inactive)
REMARK    1  A    between atoms: C_1  and  O_2
REMARK    2  A    between atoms: O_2  and  C_3
REMARK    3  A    between atoms: C_6  and  S_7
REMARK    4  A    between atoms: S_7  and  N_10
REMARK    5  A    between atoms: N_10  and  C_11
REMARK    6  A    between atoms: N_10  and  C_12
REMARK    7  A    between atoms: C_12  and  C_13
REMARK    8  A    between atoms: N_18  and  C_19
REMARK    9  A    between atoms: C_29  and  O_30
REMARK   10  A    between atoms: O_30  and  C_31
REMARK                            x       y       z     vdW  Elec       q    Type
REMARK                         _______ _______ _______ _____ _____    ______ ____
ROOT
ATOM      1  C   UNL     1       3.439   4.633  19.737  0.00  0.00    +0.000 C 
ENDROOT
BRANCH   1   2
ATOM      2  C   UNL     1       2.333   5.267  20.562  0.00  0.00    +0.000 C 
ATOM      3  O   UNL     1       1.885   4.699  21.566  0.00  0.00    +0.000 OA
ATOM      4  N   UNL     1       1.862   6.500  20.136  0.00  0.00    +0.000 N 
ATOM      5  C   UNL     1       0.955   7.272  20.995  0.00  0.00    +0.000 C 
ATOM      6  C   UNL     1       1.312   8.774  20.990  0.00  0.00    +0.000 C 
ATOM      7  N   UNL     1       1.384   9.243  19.595  0.00  0.00    +0.000 N 
ATOM      8  C   UNL     1       2.348   8.519  18.755  0.00  0.00    +0.000 C 
ATOM      9  C   UNL     1       2.009   7.020  18.773  0.00  0.00    +0.000 C 
BRANCH   7  10
ATOM     10  C   UNL     1       0.900  10.469  19.197  0.00  0.00    +0.000 A 
ATOM     11  C   UNL     1       1.723  11.471  18.662  0.00  0.00    +0.000 A 
ATOM     12  C   UNL     1       1.208  12.726  18.321  0.00  0.00    +0.000 A 
ATOM     13  C   UNL     1      -0.139  12.992  18.521  0.00  0.00    +0.000 A 
ATOM     14  F   UNL     1      -0.631  14.198  18.211  0.00  0.00    +0.000 F 
ATOM     15  C   UNL     1      -0.982  12.026  19.048  0.00  0.00    +0.000 A 
ATOM     16  C   UNL     1      -0.461  10.776  19.376  0.00  0.00    +0.000 A 
ENDBRANCH   7  10
ENDBRANCH   1   2
BRANCH   1  17
ATOM     17  N   UNL     1       3.190   3.193  19.341  0.00  0.00    +0.000 NA
ATOM     18  C   UNL     1       3.921   2.289  20.264  0.00  0.00    +0.000 C 
BRANCH  17  19
ATOM     19  S   UNL     1       3.507   2.958  17.663  0.00  0.00    +0.000 S 
ATOM     20  O   UNL     1       2.326   3.433  16.971  0.00  0.00    +0.000 OA
ATOM     21  O   UNL     1       4.018   1.621  17.469  0.00  0.00    +0.000 OA
BRANCH  19  25
ATOM     22  C   UNL     1       6.825   5.950  16.708  0.00  0.00    +0.000 A 
ATOM     23  C   UNL     1       5.668   5.867  15.915  0.00  0.00    +0.000 A 
ATOM     24  C   UNL     1       4.652   4.970  16.221  0.00  0.00    +0.000 A 
ATOM     25  C   UNL     1       4.830   4.070  17.265  0.00  0.00    +0.000 A 
ATOM     26  C   UNL     1       6.028   4.041  17.976  0.00  0.00    +0.000 A 
ATOM     27  C   UNL     1       7.029   4.997  17.725  0.00  0.00    +0.000 A 
BRANCH  22  29
ATOM     28  C   UNL     1       7.643   8.069  17.374  0.00  0.00    +0.000 C 
ATOM     29  O   UNL     1       7.739   6.948  16.485  0.00  0.00    +0.000 OA
ENDBRANCH  22  29
BRANCH  27  30
ATOM     30  O   UNL     1       8.079   4.854  18.589  0.00  0.00    +0.000 OA
ATOM     31  C   UNL     1       8.073   5.533  19.833  0.00  0.00    +0.000 C 
ENDBRANCH  27  30
ENDBRANCH  19  25
ENDBRANCH  17  19
ENDBRANCH   1  17
TORSDOF 7
ENDMDL
