MODEL 1
REMARK VINA RESULT:      -6.9      0.000      0.000
REMARK  Name = 
REMARK  15 active torsions:
REMARK  status: ('A' for Active; 'I' for Inactive)
REMARK    1  A    between atoms: C_1  and  O_2
REMARK    2  A    between atoms: O_2  and  C_3
REMARK    3  A    between atoms: C_5  and  O_6
REMARK    4  A    between atoms: O_6  and  C_7
REMARK    5  A    between atoms: C_8  and  C_9
REMARK    6  A    between atoms: C_10  and  S_11
REMARK    7  A    between atoms: S_11  and  C_14
REMARK    8  A    between atoms: C_14  and  C_15
REMARK    9  A    between atoms: C_18  and  O_19
REMARK   10  A    between atoms: O_19  and  C_20
REMARK   11  A    between atoms: C_21  and  O_22
REMARK   12  A    between atoms: O_22  and  P_23
REMARK   13  A    between atoms: P_23  and  O_26
REMARK   14  A    between atoms: C_28  and  O_29
REMARK   15  A    between atoms: O_29  and  C_30
REMARK                            x       y       z     vdW  Elec       q    Type
REMARK                         _______ _______ _______ _____ _____    ______ ____
ROOT
ATOM      1  S   UNL     1       1.281   9.484  18.321  0.00  0.00    +0.000 S 
ATOM      2  O   UNL     1       0.755   8.695  17.226  0.00  0.00    +0.000 OA
ATOM      3  O   UNL     1       2.118  10.644  18.073  0.00  0.00    +0.000 OA
ENDROOT
BRANCH   1   5
ATOM      4  C   UNL     1       0.070  11.025  20.136  0.00  0.00    +0.000 C 
ATOM      5  C   UNL     1      -0.091  10.016  19.263  0.00  0.00    +0.000 C 
BRANCH   4   9
ATOM      6  C   UNL     1      -2.987  12.636  22.686  0.00  0.00    +0.000 A 
ATOM      7  C   UNL     1      -3.090  12.773  21.305  0.00  0.00    +0.000 A 
ATOM      8  C   UNL     1      -2.146  12.198  20.438  0.00  0.00    +0.000 A 
ATOM      9  C   UNL     1      -1.024  11.544  20.970  0.00  0.00    +0.000 A 
ATOM     10  C   UNL     1      -0.913  11.417  22.378  0.00  0.00    +0.000 A 
ATOM     11  C   UNL     1      -1.890  11.971  23.223  0.00  0.00    +0.000 A 
BRANCH   6  13
ATOM     12  C   UNL     1      -4.424  12.481  24.574  0.00  0.00    +0.000 C 
ATOM     13  O   UNL     1      -4.034  13.175  23.390  0.00  0.00    +0.000 OA
ENDBRANCH   6  13
BRANCH   8  14
ATOM     14  O   UNL     1      -2.464  12.429  19.124  0.00  0.00    +0.000 OA
ATOM     15  C   UNL     1      -3.542  11.699  18.551  0.00  0.00    +0.000 C 
ENDBRANCH   8  14
BRANCH  10  16
ATOM     16  O   UNL     1       0.181  10.724  22.845  0.00  0.00    +0.000 OA
ATOM     17  C   UNL     1      -0.015   9.418  23.374  0.00  0.00    +0.000 C 
ENDBRANCH  10  16
ENDBRANCH   4   9
ENDBRANCH   1   5
BRANCH   1  18
ATOM     18  C   UNL     1       2.086   8.379  19.484  0.00  0.00    +0.000 C 
BRANCH  18  19
ATOM     19  C   UNL     1       2.492   7.104  18.817  0.00  0.00    +0.000 A 
ATOM     20  C   UNL     1       1.911   5.888  19.173  0.00  0.00    +0.000 A 
ATOM     21  C   UNL     1       2.364   4.706  18.587  0.00  0.00    +0.000 A 
ATOM     22  C   UNL     1       3.402   4.716  17.648  0.00  0.00    +0.000 A 
ATOM     23  C   UNL     1       4.016   5.931  17.315  0.00  0.00    +0.000 A 
ATOM     24  C   UNL     1       3.528   7.117  17.872  0.00  0.00    +0.000 A 
BRANCH  22  25
ATOM     25  O   UNL     1       3.740   3.465  17.200  0.00  0.00    +0.000 OA
ATOM     26  C   UNL     1       3.157   2.379  17.909  0.00  0.00    +0.000 C 
ENDBRANCH  22  25
BRANCH  23  27
ATOM     27  O   UNL     1       5.121   5.949  16.505  0.00  0.00    +0.000 OA
BRANCH  27  28
ATOM     28  P   UNL     1       6.618   5.646  17.056  0.00  0.00    +0.000 P 
ATOM     29  O   UNL     1       7.641   6.166  16.081  0.00  0.00    +0.000 OA
ATOM     30  O   UNL     1       6.763   5.910  18.531  0.00  0.00    +0.000 OA
BRANCH  28  31
ATOM     31  O   UNL     1       6.688   4.056  16.823  0.00  0.00    +0.000 OA
ATOM     32  H   UNL     1       5.764   3.835  16.616  0.00  0.00    +0.000 HD
ENDBRANCH  28  31
ENDBRANCH  27  28
ENDBRANCH  23  27
ENDBRANCH  18  19
ENDBRANCH   1  18
TORSDOF 11
ENDMDL
MODEL 2
REMARK VINA RESULT:      -6.9      0.530      2.265
REMARK  Name = 
REMARK  15 active torsions:
REMARK  status: ('A' for Active; 'I' for Inactive)
REMARK    1  A    between atoms: C_1  and  O_2
REMARK    2  A    between atoms: O_2  and  C_3
REMARK    3  A    between atoms: C_5  and  O_6
REMARK    4  A    between atoms: O_6  and  C_7
REMARK    5  A    between atoms: C_8  and  C_9
REMARK    6  A    between atoms: C_10  and  S_11
REMARK    7  A    between atoms: S_11  and  C_14
REMARK    8  A    between atoms: C_14  and  C_15
REMARK    9  A    between atoms: C_18  and  O_19
REMARK   10  A    between atoms: O_19  and  C_20
REMARK   11  A    between atoms: C_21  and  O_22
REMARK   12  A    between atoms: O_22  and  P_23
REMARK   13  A    between atoms: P_23  and  O_26
REMARK   14  A    between atoms: C_28  and  O_29
REMARK   15  A    between atoms: O_29  and  C_30
REMARK                            x       y       z     vdW  Elec       q    Type
REMARK                         _______ _______ _______ _____ _____    ______ ____
ROOT
ATOM      1  S   UNL     1       1.438   9.207  18.445  0.00  0.00    +0.000 S 
ATOM      2  O   UNL     1       0.853   8.435  17.368  0.00  0.00    +0.000 OA
ATOM      3  O   UNL     1       2.290  10.351  18.171  0.00  0.00    +0.000 OA
ENDROOT
BRANCH   1   5
ATOM      4  C   UNL     1       0.124  11.031  19.888  0.00  0.00    +0.000 C 
ATOM      5  C   UNL     1       0.115   9.763  19.443  0.00  0.00    +0.000 C 
BRANCH   4   9
ATOM      6  C   UNL     1      -3.130  12.571  22.230  0.00  0.00    +0.000 A 
ATOM      7  C   UNL     1      -2.061  11.938  22.856  0.00  0.00    +0.000 A 
ATOM      8  C   UNL     1      -0.948  11.484  22.129  0.00  0.00    +0.000 A 
ATOM      9  C   UNL     1      -0.944  11.591  20.729  0.00  0.00    +0.000 A 
ATOM     10  C   UNL     1      -2.040  12.224  20.090  0.00  0.00    +0.000 A 
ATOM     11  C   UNL     1      -3.127  12.700  20.844  0.00  0.00    +0.000 A 
BRANCH   6  13
ATOM     12  C   UNL     1      -4.100  12.480  24.399  0.00  0.00    +0.000 C 
ATOM     13  O   UNL     1      -4.096  13.037  23.085  0.00  0.00    +0.000 OA
ENDBRANCH   6  13
BRANCH   8  14
ATOM     14  O   UNL     1      -0.004  10.925  22.952  0.00  0.00    +0.000 OA
ATOM     15  C   UNL     1      -0.124   9.545  23.277  0.00  0.00    +0.000 C 
ENDBRANCH   8  14
BRANCH  10  16
ATOM     16  O   UNL     1      -1.963  12.345  18.721  0.00  0.00    +0.000 OA
ATOM     17  C   UNL     1      -2.872  11.600  17.920  0.00  0.00    +0.000 C 
ENDBRANCH  10  16
ENDBRANCH   4   9
ENDBRANCH   1   5
BRANCH   1  18
ATOM     18  C   UNL     1       2.264   8.079  19.572  0.00  0.00    +0.000 C 
BRANCH  18  19
ATOM     19  C   UNL     1       2.658   6.818  18.872  0.00  0.00    +0.000 A 
ATOM     20  C   UNL     1       2.065   5.598  19.195  0.00  0.00    +0.000 A 
ATOM     21  C   UNL     1       2.506   4.428  18.579  0.00  0.00    +0.000 A 
ATOM     22  C   UNL     1       3.547   4.453  17.642  0.00  0.00    +0.000 A 
ATOM     23  C   UNL     1       4.174   5.670  17.342  0.00  0.00    +0.000 A 
ATOM     24  C   UNL     1       3.696   6.845  17.929  0.00  0.00    +0.000 A 
BRANCH  22  25
ATOM     25  O   UNL     1       3.873   3.210  17.162  0.00  0.00    +0.000 OA
ATOM     26  C   UNL     1       3.352   2.110  17.896  0.00  0.00    +0.000 C 
ENDBRANCH  22  25
BRANCH  23  27
ATOM     27  O   UNL     1       5.280   5.698  16.535  0.00  0.00    +0.000 OA
BRANCH  27  28
ATOM     28  P   UNL     1       6.793   5.614  17.118  0.00  0.00    +0.000 P 
ATOM     29  O   UNL     1       7.469   6.955  16.991  0.00  0.00    +0.000 OA
ATOM     30  O   UNL     1       6.884   4.829  18.399  0.00  0.00    +0.000 OA
BRANCH  28  31
ATOM     31  O   UNL     1       7.498   4.756  15.954  0.00  0.00    +0.000 OA
ATOM     32  H   UNL     1       6.759   4.222  15.614  0.00  0.00    +0.000 HD
ENDBRANCH  28  31
ENDBRANCH  27  28
ENDBRANCH  23  27
ENDBRANCH  18  19
ENDBRANCH   1  18
TORSDOF 11
ENDMDL
MODEL 3
REMARK VINA RESULT:      -6.6      2.539      4.470
REMARK  Name = 
REMARK  15 active torsions:
REMARK  status: ('A' for Active; 'I' for Inactive)
REMARK    1  A    between atoms: C_1  and  O_2
REMARK    2  A    between atoms: O_2  and  C_3
REMARK    3  A    between atoms: C_5  and  O_6
REMARK    4  A    between atoms: O_6  and  C_7
REMARK    5  A    between atoms: C_8  and  C_9
REMARK    6  A    between atoms: C_10  and  S_11
REMARK    7  A    between atoms: S_11  and  C_14
REMARK    8  A    between atoms: C_14  and  C_15
REMARK    9  A    between atoms: C_18  and  O_19
REMARK   10  A    between atoms: O_19  and  C_20
REMARK   11  A    between atoms: C_21  and  O_22
REMARK   12  A    between atoms: O_22  and  P_23
REMARK   13  A    between atoms: P_23  and  O_26
REMARK   14  A    between atoms: C_28  and  O_29
REMARK   15  A    between atoms: O_29  and  C_30
REMARK                            x       y       z     vdW  Elec       q    Type
REMARK                         _______ _______ _______ _____ _____    ______ ____
ROOT
ATOM      1  S   UNL     1       1.181   9.570  18.897  0.00  0.00    +0.000 S 
ATOM      2  O   UNL     1       1.845  10.757  18.401  0.00  0.00    +0.000 OA
ATOM      3  O   UNL     1       1.500   9.024  20.205  0.00  0.00    +0.000 OA
ENDROOT
BRANCH   1   5
ATOM      4  C   UNL     1      -0.986  10.931  18.133  0.00  0.00    +0.000 C 
ATOM      5  C   UNL     1      -0.534   9.903  18.870  0.00  0.00    +0.000 C 
BRANCH   4   9
ATOM      6  C   UNL     1      -5.183  11.785  17.819  0.00  0.00    +0.000 A 
ATOM      7  C   UNL     1      -4.490  12.119  18.979  0.00  0.00    +0.000 A 
ATOM      8  C   UNL     1      -3.105  11.918  19.090  0.00  0.00    +0.000 A 
ATOM      9  C   UNL     1      -2.409  11.288  18.045  0.00  0.00    +0.000 A 
ATOM     10  C   UNL     1      -3.119  10.937  16.869  0.00  0.00    +0.000 A 
ATOM     11  C   UNL     1      -4.500  11.179  16.769  0.00  0.00    +0.000 A 
BRANCH   6  13
ATOM     12  C   UNL     1      -6.902  13.121  18.777  0.00  0.00    +0.000 C 
ATOM     13  O   UNL     1      -6.512  12.125  17.832  0.00  0.00    +0.000 OA
ENDBRANCH   6  13
BRANCH   8  14
ATOM     14  O   UNL     1      -2.630  12.349  20.302  0.00  0.00    +0.000 OA
ATOM     15  C   UNL     1      -1.911  13.577  20.348  0.00  0.00    +0.000 C 
ENDBRANCH   8  14
BRANCH  10  16
ATOM     16  O   UNL     1      -2.380  10.367  15.857  0.00  0.00    +0.000 OA
ATOM     17  C   UNL     1      -3.003  10.155  14.596  0.00  0.00    +0.000 C 
ENDBRANCH  10  16
ENDBRANCH   4   9
ENDBRANCH   1   5
BRANCH   1  18
ATOM     18  C   UNL     1       1.299   8.287  17.648  0.00  0.00    +0.000 C 
BRANCH  18  19
ATOM     19  C   UNL     1       2.403   7.330  17.966  0.00  0.00    +0.000 A 
ATOM     20  C   UNL     1       3.722   7.607  17.611  0.00  0.00    +0.000 A 
ATOM     21  C   UNL     1       4.718   6.662  17.854  0.00  0.00    +0.000 A 
ATOM     22  C   UNL     1       4.416   5.429  18.445  0.00  0.00    +0.000 A 
ATOM     23  C   UNL     1       3.086   5.129  18.768  0.00  0.00    +0.000 A 
ATOM     24  C   UNL     1       2.099   6.098  18.564  0.00  0.00    +0.000 A 
BRANCH  22  25
ATOM     25  O   UNL     1       5.508   4.610  18.579  0.00  0.00    +0.000 OA
ATOM     26  C   UNL     1       6.562   4.831  17.651  0.00  0.00    +0.000 C 
ENDBRANCH  22  25
BRANCH  23  27
ATOM     27  O   UNL     1       2.748   3.879  19.219  0.00  0.00    +0.000 OA
BRANCH  27  28
ATOM     28  P   UNL     1       1.982   2.790  18.290  0.00  0.00    +0.000 P 
ATOM     29  O   UNL     1       0.643   2.452  18.890  0.00  0.00    +0.000 OA
ATOM     30  O   UNL     1       2.110   3.082  16.819  0.00  0.00    +0.000 OA
BRANCH  28  31
ATOM     31  O   UNL     1       2.853   1.478  18.617  0.00  0.00    +0.000 OA
ATOM     32  H   UNL     1       3.526   1.495  17.915  0.00  0.00    +0.000 HD
ENDBRANCH  28  31
ENDBRANCH  27  28
ENDBRANCH  23  27
ENDBRANCH  18  19
ENDBRANCH   1  18
TORSDOF 11
ENDMDL
MODEL 4
REMARK VINA RESULT:      -6.6      1.027      2.495
REMARK  Name = 
REMARK  15 active torsions:
REMARK  status: ('A' for Active; 'I' for Inactive)
REMARK    1  A    between atoms: C_1  and  O_2
REMARK    2  A    between atoms: O_2  and  C_3
REMARK    3  A    between atoms: C_5  and  O_6
REMARK    4  A    between atoms: O_6  and  C_7
REMARK    5  A    between atoms: C_8  and  C_9
REMARK    6  A    between atoms: C_10  and  S_11
REMARK    7  A    between atoms: S_11  and  C_14
REMARK    8  A    between atoms: C_14  and  C_15
REMARK    9  A    between atoms: C_18  and  O_19
REMARK   10  A    between atoms: O_19  and  C_20
REMARK   11  A    between atoms: C_21  and  O_22
REMARK   12  A    between atoms: O_22  and  P_23
REMARK   13  A    between atoms: P_23  and  O_26
REMARK   14  A    between atoms: C_28  and  O_29
REMARK   15  A    between atoms: O_29  and  C_30
REMARK                            x       y       z     vdW  Elec       q    Type
REMARK                         _______ _______ _______ _____ _____    ______ ____
ROOT
ATOM      1  S   UNL     1       1.704   9.032  18.186  0.00  0.00    +0.000 S 
ATOM      2  O   UNL     1       0.613   8.507  17.391  0.00  0.00    +0.000 OA
ATOM      3  O   UNL     1       2.908   9.549  17.558  0.00  0.00    +0.000 OA
ENDROOT
BRANCH   1   5
ATOM      4  C   UNL     1      -0.216  10.185  19.642  0.00  0.00    +0.000 C 
ATOM      5  C   UNL     1       1.038  10.309  19.175  0.00  0.00    +0.000 C 
BRANCH   4   9
ATOM      6  C   UNL     1      -2.282  13.095  22.032  0.00  0.00    +0.000 A 
ATOM      7  C   UNL     1      -1.327  12.267  22.614  0.00  0.00    +0.000 A 
ATOM      8  C   UNL     1      -0.583  11.353  21.851  0.00  0.00    +0.000 A 
ATOM      9  C   UNL     1      -0.862  11.203  20.483  0.00  0.00    +0.000 A 
ATOM     10  C   UNL     1      -1.845  12.038  19.892  0.00  0.00    +0.000 A 
ATOM     11  C   UNL     1      -2.552  12.969  20.673  0.00  0.00    +0.000 A 
BRANCH   6  13
ATOM     12  C   UNL     1      -2.097  14.339  24.049  0.00  0.00    +0.000 C 
ATOM     13  O   UNL     1      -2.857  13.994  22.892  0.00  0.00    +0.000 OA
ENDBRANCH   6  13
BRANCH   8  14
ATOM     14  O   UNL     1       0.321  10.671  22.624  0.00  0.00    +0.000 OA
ATOM     15  C   UNL     1      -0.132   9.529  23.343  0.00  0.00    +0.000 C 
ENDBRANCH   8  14
BRANCH  10  16
ATOM     16  O   UNL     1      -2.044  11.883  18.539  0.00  0.00    +0.000 OA
ATOM     17  C   UNL     1      -3.347  11.545  18.078  0.00  0.00    +0.000 C 
ENDBRANCH  10  16
ENDBRANCH   4   9
ENDBRANCH   1   5
BRANCH   1  18
ATOM     18  C   UNL     1       2.133   7.819  19.437  0.00  0.00    +0.000 C 
BRANCH  18  19
ATOM     19  C   UNL     1       2.637   6.559  18.811  0.00  0.00    +0.000 A 
ATOM     20  C   UNL     1       1.810   5.446  18.665  0.00  0.00    +0.000 A 
ATOM     21  C   UNL     1       2.328   4.261  18.145  0.00  0.00    +0.000 A 
ATOM     22  C   UNL     1       3.674   4.163  17.772  0.00  0.00    +0.000 A 
ATOM     23  C   UNL     1       4.520   5.266  17.952  0.00  0.00    +0.000 A 
ATOM     24  C   UNL     1       3.983   6.465  18.431  0.00  0.00    +0.000 A 
BRANCH  22  25
ATOM     25  O   UNL     1       4.020   2.918  17.313  0.00  0.00    +0.000 OA
ATOM     26  C   UNL     1       3.477   1.822  18.036  0.00  0.00    +0.000 C 
ENDBRANCH  22  25
BRANCH  23  27
ATOM     27  O   UNL     1       5.866   5.152  17.723  0.00  0.00    +0.000 OA
BRANCH  27  28
ATOM     28  P   UNL     1       6.615   5.915  16.502  0.00  0.00    +0.000 P 
ATOM     29  O   UNL     1       5.673   6.072  15.337  0.00  0.00    +0.000 OA
ATOM     30  O   UNL     1       7.459   7.073  16.965  0.00  0.00    +0.000 OA
BRANCH  28  31
ATOM     31  O   UNL     1       7.601   4.747  16.001  0.00  0.00    +0.000 OA
ATOM     32  H   UNL     1       7.192   4.476  15.161  0.00  0.00    +0.000 HD
ENDBRANCH  28  31
ENDBRANCH  27  28
ENDBRANCH  23  27
ENDBRANCH  18  19
ENDBRANCH   1  18
TORSDOF 11
ENDMDL
MODEL 5
REMARK VINA RESULT:      -6.6      2.581      4.644
REMARK  Name = 
REMARK  15 active torsions:
REMARK  status: ('A' for Active; 'I' for Inactive)
REMARK    1  A    between atoms: C_1  and  O_2
REMARK    2  A    between atoms: O_2  and  C_3
REMARK    3  A    between atoms: C_5  and  O_6
REMARK    4  A    between atoms: O_6  and  C_7
REMARK    5  A    between atoms: C_8  and  C_9
REMARK    6  A    between atoms: C_10  and  S_11
REMARK    7  A    between atoms: S_11  and  C_14
REMARK    8  A    between atoms: C_14  and  C_15
REMARK    9  A    between atoms: C_18  and  O_19
REMARK   10  A    between atoms: O_19  and  C_20
REMARK   11  A    between atoms: C_21  and  O_22
REMARK   12  A    between atoms: O_22  and  P_23
REMARK   13  A    between atoms: P_23  and  O_26
REMARK   14  A    between atoms: C_28  and  O_29
REMARK   15  A    between atoms: O_29  and  C_30
REMARK                            x       y       z     vdW  Elec       q    Type
REMARK                         _______ _______ _______ _____ _____    ______ ____
ROOT
ATOM      1  S   UNL     1       1.237  10.361  18.883  0.00  0.00    +0.000 S 
ATOM      2  O   UNL     1       2.268  11.234  18.359  0.00  0.00    +0.000 OA
ATOM      3  O   UNL     1       1.272   9.902  20.260  0.00  0.00    +0.000 OA
ENDROOT
BRANCH   1   5
ATOM      4  C   UNL     1      -1.336  10.480  18.175  0.00  0.00    +0.000 C 
ATOM      5  C   UNL     1      -0.288  11.180  18.640  0.00  0.00    +0.000 C 
BRANCH   4   9
ATOM      6  C   UNL     1      -5.260  12.053  17.419  0.00  0.00    +0.000 A 
ATOM      7  C   UNL     1      -4.674  12.219  18.670  0.00  0.00    +0.000 A 
ATOM      8  C   UNL     1      -3.366  11.779  18.931  0.00  0.00    +0.000 A 
ATOM      9  C   UNL     1      -2.658  11.079  17.940  0.00  0.00    +0.000 A 
ATOM     10  C   UNL     1      -3.262  10.900  16.670  0.00  0.00    +0.000 A 
ATOM     11  C   UNL     1      -4.560  11.379  16.423  0.00  0.00    +0.000 A 
BRANCH   6  13
ATOM     12  C   UNL     1      -6.925  13.465  18.362  0.00  0.00    +0.000 C 
ATOM     13  O   UNL     1      -6.505  12.616  17.295  0.00  0.00    +0.000 OA
ENDBRANCH   6  13
BRANCH   8  14
ATOM     14  O   UNL     1      -2.983  12.076  20.214  0.00  0.00    +0.000 OA
ATOM     15  C   UNL     1      -3.259  13.378  20.717  0.00  0.00    +0.000 C 
ENDBRANCH   8  14
BRANCH  10  16
ATOM     16  O   UNL     1      -2.506  10.250  15.721  0.00  0.00    +0.000 OA
ATOM     17  C   UNL     1      -3.089   9.985  14.451  0.00  0.00    +0.000 C 
ENDBRANCH  10  16
ENDBRANCH   4   9
ENDBRANCH   1   5
BRANCH   1  18
ATOM     18  C   UNL     1       1.055   8.964  17.771  0.00  0.00    +0.000 C 
BRANCH  18  19
ATOM     19  C   UNL     1       2.125   7.948  18.009  0.00  0.00    +0.000 A 
ATOM     20  C   UNL     1       3.333   7.997  17.314  0.00  0.00    +0.000 A 
ATOM     21  C   UNL     1       4.282   6.993  17.502  0.00  0.00    +0.000 A 
ATOM     22  C   UNL     1       4.041   5.925  18.375  0.00  0.00    +0.000 A 
ATOM     23  C   UNL     1       2.814   5.849  19.046  0.00  0.00    +0.000 A 
ATOM     24  C   UNL     1       1.885   6.882  18.888  0.00  0.00    +0.000 A 
BRANCH  22  25
ATOM     25  O   UNL     1       5.067   5.015  18.413  0.00  0.00    +0.000 OA
ATOM     26  C   UNL     1       6.153   5.345  19.267  0.00  0.00    +0.000 C 
ENDBRANCH  22  25
BRANCH  23  27
ATOM     27  O   UNL     1       2.502   4.746  19.797  0.00  0.00    +0.000 OA
BRANCH  27  28
ATOM     28  P   UNL     1       1.778   3.435  19.170  0.00  0.00    +0.000 P 
ATOM     29  O   UNL     1       1.193   3.765  17.822  0.00  0.00    +0.000 OA
ATOM     30  O   UNL     1       2.576   2.173  19.371  0.00  0.00    +0.000 OA
BRANCH  28  31
ATOM     31  O   UNL     1       0.474   3.356  20.109  0.00  0.00    +0.000 OA
ATOM     32  H   UNL     1      -0.193   2.986  19.506  0.00  0.00    +0.000 HD
ENDBRANCH  28  31
ENDBRANCH  27  28
ENDBRANCH  23  27
ENDBRANCH  18  19
ENDBRANCH   1  18
TORSDOF 11
ENDMDL
MODEL 6
REMARK VINA RESULT:      -6.6      4.367      9.301
REMARK  Name = 
REMARK  15 active torsions:
REMARK  status: ('A' for Active; 'I' for Inactive)
REMARK    1  A    between atoms: C_1  and  O_2
REMARK    2  A    between atoms: O_2  and  C_3
REMARK    3  A    between atoms: C_5  and  O_6
REMARK    4  A    between atoms: O_6  and  C_7
REMARK    5  A    between atoms: C_8  and  C_9
REMARK    6  A    between atoms: C_10  and  S_11
REMARK    7  A    between atoms: S_11  and  C_14
REMARK    8  A    between atoms: C_14  and  C_15
REMARK    9  A    between atoms: C_18  and  O_19
REMARK   10  A    between atoms: O_19  and  C_20
REMARK   11  A    between atoms: C_21  and  O_22
REMARK   12  A    between atoms: O_22  and  P_23
REMARK   13  A    between atoms: P_23  and  O_26
REMARK   14  A    between atoms: C_28  and  O_29
REMARK   15  A    between atoms: O_29  and  C_30
REMARK                            x       y       z     vdW  Elec       q    Type
REMARK                         _______ _______ _______ _____ _____    ______ ____
ROOT
ATOM      1  S   UNL     1       3.297   2.702  20.062  0.00  0.00    +0.000 S 
ATOM      2  O   UNL     1       3.431   1.773  18.959  0.00  0.00    +0.000 OA
ATOM      3  O   UNL     1       3.599   2.296  21.424  0.00  0.00    +0.000 OA
ENDROOT
BRANCH   1   5
ATOM      4  C   UNL     1       5.126   4.015  18.624  0.00  0.00    +0.000 C 
ATOM      5  C   UNL     1       4.307   4.078  19.687  0.00  0.00    +0.000 C 
BRANCH   4   9
ATOM      6  C   UNL     1       7.544   7.351  17.414  0.00  0.00    +0.000 A 
ATOM      7  C   UNL     1       7.725   6.781  18.670  0.00  0.00    +0.000 A 
ATOM      8  C   UNL     1       7.001   5.646  19.072  0.00  0.00    +0.000 A 
ATOM      9  C   UNL     1       6.010   5.121  18.228  0.00  0.00    +0.000 A 
ATOM     10  C   UNL     1       5.817   5.711  16.953  0.00  0.00    +0.000 A 
ATOM     11  C   UNL     1       6.579   6.826  16.561  0.00  0.00    +0.000 A 
BRANCH   6  13
ATOM     12  C   UNL     1       8.444   9.440  18.107  0.00  0.00    +0.000 C 
ATOM     13  O   UNL     1       8.389   8.396  17.137  0.00  0.00    +0.000 OA
ENDBRANCH   6  13
BRANCH   8  14
ATOM     14  O   UNL     1       7.364   5.238  20.330  0.00  0.00    +0.000 OA
ATOM     15  C   UNL     1       8.750   5.103  20.622  0.00  0.00    +0.000 C 
ENDBRANCH   8  14
BRANCH  10  16
ATOM     16  O   UNL     1       4.867   5.127  16.146  0.00  0.00    +0.000 OA
ATOM     17  C   UNL     1       5.295   4.453  14.969  0.00  0.00    +0.000 C 
ENDBRANCH  10  16
ENDBRANCH   4   9
ENDBRANCH   1   5
BRANCH   1  18
ATOM     18  C   UNL     1       1.665   3.445  19.986  0.00  0.00    +0.000 C 
BRANCH  18  19
ATOM     19  C   UNL     1       1.755   4.901  19.658  0.00  0.00    +0.000 A 
ATOM     20  C   UNL     1       2.069   5.331  18.370  0.00  0.00    +0.000 A 
ATOM     21  C   UNL     1       2.219   6.693  18.112  0.00  0.00    +0.000 A 
ATOM     22  C   UNL     1       2.066   7.643  19.130  0.00  0.00    +0.000 A 
ATOM     23  C   UNL     1       1.789   7.214  20.434  0.00  0.00    +0.000 A 
ATOM     24  C   UNL     1       1.595   5.851  20.677  0.00  0.00    +0.000 A 
BRANCH  22  25
ATOM     25  O   UNL     1       2.281   8.929  18.706  0.00  0.00    +0.000 OA
ATOM     26  C   UNL     1       1.385   9.408  17.711  0.00  0.00    +0.000 C 
ENDBRANCH  22  25
BRANCH  23  27
ATOM     27  O   UNL     1       1.771   8.112  21.469  0.00  0.00    +0.000 OA
BRANCH  27  28
ATOM     28  P   UNL     1       0.467   9.009  21.828  0.00  0.00    +0.000 P 
ATOM     29  O   UNL     1       0.467  10.270  21.005  0.00  0.00    +0.000 OA
ATOM     30  O   UNL     1      -0.788   8.188  21.971  0.00  0.00    +0.000 OA
BRANCH  28  31
ATOM     31  O   UNL     1       0.884   9.543  23.287  0.00  0.00    +0.000 OA
ATOM     32  H   UNL     1       1.612   8.945  23.527  0.00  0.00    +0.000 HD
ENDBRANCH  28  31
ENDBRANCH  27  28
ENDBRANCH  23  27
ENDBRANCH  18  19
ENDBRANCH   1  18
TORSDOF 11
ENDMDL
MODEL 7
REMARK VINA RESULT:      -6.5      2.108      3.589
REMARK  Name = 
REMARK  15 active torsions:
REMARK  status: ('A' for Active; 'I' for Inactive)
REMARK    1  A    between atoms: C_1  and  O_2
REMARK    2  A    between atoms: O_2  and  C_3
REMARK    3  A    between atoms: C_5  and  O_6
REMARK    4  A    between atoms: O_6  and  C_7
REMARK    5  A    between atoms: C_8  and  C_9
REMARK    6  A    between atoms: C_10  and  S_11
REMARK    7  A    between atoms: S_11  and  C_14
REMARK    8  A    between atoms: C_14  and  C_15
REMARK    9  A    between atoms: C_18  and  O_19
REMARK   10  A    between atoms: O_19  and  C_20
REMARK   11  A    between atoms: C_21  and  O_22
REMARK   12  A    between atoms: O_22  and  P_23
REMARK   13  A    between atoms: P_23  and  O_26
REMARK   14  A    between atoms: C_28  and  O_29
REMARK   15  A    between atoms: O_29  and  C_30
REMARK                            x       y       z     vdW  Elec       q    Type
REMARK                         _______ _______ _______ _____ _____    ______ ____
ROOT
ATOM      1  S   UNL     1       1.382   9.764  18.953  0.00  0.00    +0.000 S 
ATOM      2  O   UNL     1       2.028  10.955  18.438  0.00  0.00    +0.000 OA
ATOM      3  O   UNL     1       1.742   9.218  20.249  0.00  0.00    +0.000 OA
ENDROOT
BRANCH   1   5
ATOM      4  C   UNL     1      -0.790  11.221  18.409  0.00  0.00    +0.000 C 
ATOM      5  C   UNL     1      -0.334  10.092  18.978  0.00  0.00    +0.000 C 
BRANCH   4   9
ATOM      6  C   UNL     1      -4.992  12.093  18.247  0.00  0.00    +0.000 A 
ATOM      7  C   UNL     1      -4.276  12.332  19.416  0.00  0.00    +0.000 A 
ATOM      8  C   UNL     1      -2.889  12.125  19.484  0.00  0.00    +0.000 A 
ATOM      9  C   UNL     1      -2.214  11.583  18.378  0.00  0.00    +0.000 A 
ATOM     10  C   UNL     1      -2.946  11.327  17.191  0.00  0.00    +0.000 A 
ATOM     11  C   UNL     1      -4.329  11.576  17.138  0.00  0.00    +0.000 A 
BRANCH   6  13
ATOM     12  C   UNL     1      -7.227  11.372  18.616  0.00  0.00    +0.000 C 
ATOM     13  O   UNL     1      -6.319  12.430  18.313  0.00  0.00    +0.000 OA
ENDBRANCH   6  13
BRANCH   8  14
ATOM     14  O   UNL     1      -2.391  12.456  20.718  0.00  0.00    +0.000 OA
ATOM     15  C   UNL     1      -1.945  13.791  20.930  0.00  0.00    +0.000 C 
ENDBRANCH   8  14
BRANCH  10  16
ATOM     16  O   UNL     1      -2.227  10.842  16.122  0.00  0.00    +0.000 OA
ATOM     17  C   UNL     1      -2.936  10.283  15.022  0.00  0.00    +0.000 C 
ENDBRANCH  10  16
ENDBRANCH   4   9
ENDBRANCH   1   5
BRANCH   1  18
ATOM     18  C   UNL     1       1.467   8.484  17.698  0.00  0.00    +0.000 C 
BRANCH  18  19
ATOM     19  C   UNL     1       2.412   7.398  18.104  0.00  0.00    +0.000 A 
ATOM     20  C   UNL     1       2.105   6.530  19.150  0.00  0.00    +0.000 A 
ATOM     21  C   UNL     1       3.037   5.576  19.555  0.00  0.00    +0.000 A 
ATOM     22  C   UNL     1       4.287   5.477  18.931  0.00  0.00    +0.000 A 
ATOM     23  C   UNL     1       4.617   6.372  17.905  0.00  0.00    +0.000 A 
ATOM     24  C   UNL     1       3.660   7.296  17.474  0.00  0.00    +0.000 A 
BRANCH  22  25
ATOM     25  O   UNL     1       5.089   4.507  19.477  0.00  0.00    +0.000 OA
ATOM     26  C   UNL     1       4.544   3.195  19.496  0.00  0.00    +0.000 C 
ENDBRANCH  22  25
BRANCH  23  27
ATOM     27  O   UNL     1       5.880   6.383  17.375  0.00  0.00    +0.000 OA
BRANCH  27  28
ATOM     28  P   UNL     1       6.377   5.304  16.269  0.00  0.00    +0.000 P 
ATOM     29  O   UNL     1       5.187   4.632  15.635  0.00  0.00    +0.000 OA
ATOM     30  O   UNL     1       7.510   5.815  15.420  0.00  0.00    +0.000 OA
BRANCH  28  31
ATOM     31  O   UNL     1       6.954   4.154  17.235  0.00  0.00    +0.000 OA
ATOM     32  H   UNL     1       7.414   4.670  17.920  0.00  0.00    +0.000 HD
ENDBRANCH  28  31
ENDBRANCH  27  28
ENDBRANCH  23  27
ENDBRANCH  18  19
ENDBRANCH   1  18
TORSDOF 11
ENDMDL
MODEL 8
REMARK VINA RESULT:      -6.5      2.599      4.376
REMARK  Name = 
REMARK  15 active torsions:
REMARK  status: ('A' for Active; 'I' for Inactive)
REMARK    1  A    between atoms: C_1  and  O_2
REMARK    2  A    between atoms: O_2  and  C_3
REMARK    3  A    between atoms: C_5  and  O_6
REMARK    4  A    between atoms: O_6  and  C_7
REMARK    5  A    between atoms: C_8  and  C_9
REMARK    6  A    between atoms: C_10  and  S_11
REMARK    7  A    between atoms: S_11  and  C_14
REMARK    8  A    between atoms: C_14  and  C_15
REMARK    9  A    between atoms: C_18  and  O_19
REMARK   10  A    between atoms: O_19  and  C_20
REMARK   11  A    between atoms: C_21  and  O_22
REMARK   12  A    between atoms: O_22  and  P_23
REMARK   13  A    between atoms: P_23  and  O_26
REMARK   14  A    between atoms: C_28  and  O_29
REMARK   15  A    between atoms: O_29  and  C_30
REMARK                            x       y       z     vdW  Elec       q    Type
REMARK                         _______ _______ _______ _____ _____    ______ ____
ROOT
ATOM      1  S   UNL     1       1.286  10.121  18.620  0.00  0.00    +0.000 S 
ATOM      2  O   UNL     1       2.353  10.987  18.162  0.00  0.00    +0.000 OA
ATOM      3  O   UNL     1       1.175   9.742  20.018  0.00  0.00    +0.000 OA
ENDROOT
BRANCH   1   5
ATOM      4  C   UNL     1      -1.373  10.248  18.401  0.00  0.00    +0.000 C 
ATOM      5  C   UNL     1      -0.216  10.888  18.162  0.00  0.00    +0.000 C 
BRANCH   4   9
ATOM      6  C   UNL     1      -5.136  12.079  17.436  0.00  0.00    +0.000 A 
ATOM      7  C   UNL     1      -4.526  11.223  16.525  0.00  0.00    +0.000 A 
ATOM      8  C   UNL     1      -3.331  10.553  16.834  0.00  0.00    +0.000 A 
ATOM      9  C   UNL     1      -2.686  10.812  18.054  0.00  0.00    +0.000 A 
ATOM     10  C   UNL     1      -3.303  11.695  18.977  0.00  0.00    +0.000 A 
ATOM     11  C   UNL     1      -4.517  12.327  18.657  0.00  0.00    +0.000 A 
BRANCH   6  13
ATOM     12  C   UNL     1      -7.365  12.675  18.012  0.00  0.00    +0.000 C 
ATOM     13  O   UNL     1      -6.342  12.585  17.022  0.00  0.00    +0.000 OA
ENDBRANCH   6  13
BRANCH   8  14
ATOM     14  O   UNL     1      -2.930   9.739  15.806  0.00  0.00    +0.000 OA
ATOM     15  C   UNL     1      -3.292  10.101  14.478  0.00  0.00    +0.000 C 
ENDBRANCH   8  14
BRANCH  10  16
ATOM     16  O   UNL     1      -2.653  11.876  20.177  0.00  0.00    +0.000 OA
ATOM     17  C   UNL     1      -2.675  13.167  20.775  0.00  0.00    +0.000 C 
ENDBRANCH  10  16
ENDBRANCH   4   9
ENDBRANCH   1   5
BRANCH   1  18
ATOM     18  C   UNL     1       1.254   8.659  17.579  0.00  0.00    +0.000 C 
BRANCH  18  19
ATOM     19  C   UNL     1       2.321   7.692  17.981  0.00  0.00    +0.000 A 
ATOM     20  C   UNL     1       3.606   7.774  17.447  0.00  0.00    +0.000 A 
ATOM     21  C   UNL     1       4.559   6.813  17.784  0.00  0.00    +0.000 A 
ATOM     22  C   UNL     1       4.246   5.757  18.648  0.00  0.00    +0.000 A 
ATOM     23  C   UNL     1       2.945   5.647  19.158  0.00  0.00    +0.000 A 
ATOM     24  C   UNL     1       2.008   6.639  18.852  0.00  0.00    +0.000 A 
BRANCH  22  25
ATOM     25  O   UNL     1       5.290   4.890  18.843  0.00  0.00    +0.000 OA
ATOM     26  C   UNL     1       6.590   5.446  18.696  0.00  0.00    +0.000 C 
ENDBRANCH  22  25
BRANCH  23  27
ATOM     27  O   UNL     1       2.580   4.550  19.893  0.00  0.00    +0.000 OA
BRANCH  27  28
ATOM     28  P   UNL     1       1.703   3.332  19.274  0.00  0.00    +0.000 P 
ATOM     29  O   UNL     1       1.229   3.691  17.890  0.00  0.00    +0.000 OA
ATOM     30  O   UNL     1       2.304   1.979  19.550  0.00  0.00    +0.000 OA
BRANCH  28  31
ATOM     31  O   UNL     1       0.363   3.474  20.152  0.00  0.00    +0.000 OA
ATOM     32  H   UNL     1       0.447   2.736  20.780  0.00  0.00    +0.000 HD
ENDBRANCH  28  31
ENDBRANCH  27  28
ENDBRANCH  23  27
ENDBRANCH  18  19
ENDBRANCH   1  18
TORSDOF 11
ENDMDL
MODEL 9
REMARK VINA RESULT:      -6.5      1.073      2.383
REMARK  Name = 
REMARK  15 active torsions:
REMARK  status: ('A' for Active; 'I' for Inactive)
REMARK    1  A    between atoms: C_1  and  O_2
REMARK    2  A    between atoms: O_2  and  C_3
REMARK    3  A    between atoms: C_5  and  O_6
REMARK    4  A    between atoms: O_6  and  C_7
REMARK    5  A    between atoms: C_8  and  C_9
REMARK    6  A    between atoms: C_10  and  S_11
REMARK    7  A    between atoms: S_11  and  C_14
REMARK    8  A    between atoms: C_14  and  C_15
REMARK    9  A    between atoms: C_18  and  O_19
REMARK   10  A    between atoms: O_19  and  C_20
REMARK   11  A    between atoms: C_21  and  O_22
REMARK   12  A    between atoms: O_22  and  P_23
REMARK   13  A    between atoms: P_23  and  O_26
REMARK   14  A    between atoms: C_28  and  O_29
REMARK   15  A    between atoms: O_29  and  C_30
REMARK                            x       y       z     vdW  Elec       q    Type
REMARK                         _______ _______ _______ _____ _____    ______ ____
ROOT
ATOM      1  S   UNL     1       1.388   9.288  18.255  0.00  0.00    +0.000 S 
ATOM      2  O   UNL     1       0.657   8.478  17.302  0.00  0.00    +0.000 OA
ATOM      3  O   UNL     1       2.354  10.278  17.812  0.00  0.00    +0.000 OA
ENDROOT
BRANCH   1   5
ATOM      4  C   UNL     1       0.591  11.129  20.019  0.00  0.00    +0.000 C 
ATOM      5  C   UNL     1       0.197  10.115  19.231  0.00  0.00    +0.000 C 
BRANCH   4   9
ATOM      6  C   UNL     1      -2.258  13.317  22.372  0.00  0.00    +0.000 A 
ATOM      7  C   UNL     1      -1.549  12.264  22.941  0.00  0.00    +0.000 A 
ATOM      8  C   UNL     1      -0.560  11.572  22.223  0.00  0.00    +0.000 A 
ATOM      9  C   UNL     1      -0.336  11.887  20.873  0.00  0.00    +0.000 A 
ATOM     10  C   UNL     1      -1.068  12.952  20.290  0.00  0.00    +0.000 A 
ATOM     11  C   UNL     1      -2.029  13.651  21.041  0.00  0.00    +0.000 A 
BRANCH   6  13
ATOM     12  C   UNL     1      -4.310  14.487  22.648  0.00  0.00    +0.000 C 
ATOM     13  O   UNL     1      -3.123  13.950  23.229  0.00  0.00    +0.000 OA
ENDBRANCH   6  13
BRANCH   8  14
ATOM     14  O   UNL     1       0.030  10.600  22.989  0.00  0.00    +0.000 OA
ATOM     15  C   UNL     1      -0.421   9.258  22.842  0.00  0.00    +0.000 C 
ENDBRANCH   8  14
BRANCH  10  16
ATOM     16  O   UNL     1      -0.774  13.250  18.979  0.00  0.00    +0.000 OA
ATOM     17  C   UNL     1      -0.139  14.489  18.689  0.00  0.00    +0.000 C 
ENDBRANCH  10  16
ENDBRANCH   4   9
ENDBRANCH   1   5
BRANCH   1  18
ATOM     18  C   UNL     1       2.132   8.201  19.474  0.00  0.00    +0.000 C 
BRANCH  18  19
ATOM     19  C   UNL     1       2.592   6.926  18.843  0.00  0.00    +0.000 A 
ATOM     20  C   UNL     1       2.133   5.690  19.297  0.00  0.00    +0.000 A 
ATOM     21  C   UNL     1       2.637   4.516  18.739  0.00  0.00    +0.000 A 
ATOM     22  C   UNL     1       3.608   4.554  17.730  0.00  0.00    +0.000 A 
ATOM     23  C   UNL     1       4.102   5.791  17.298  0.00  0.00    +0.000 A 
ATOM     24  C   UNL     1       3.560   6.965  17.829  0.00  0.00    +0.000 A 
BRANCH  22  25
ATOM     25  O   UNL     1       4.013   3.309  17.322  0.00  0.00    +0.000 OA
ATOM     26  C   UNL     1       3.197   2.225  17.747  0.00  0.00    +0.000 C 
ENDBRANCH  22  25
BRANCH  23  27
ATOM     27  O   UNL     1       5.147   5.849  16.412  0.00  0.00    +0.000 OA
BRANCH  27  28
ATOM     28  P   UNL     1       6.687   6.049  16.886  0.00  0.00    +0.000 P 
ATOM     29  O   UNL     1       6.991   7.516  17.041  0.00  0.00    +0.000 OA
ATOM     30  O   UNL     1       7.107   5.064  17.944  0.00  0.00    +0.000 OA
BRANCH  28  31
ATOM     31  O   UNL     1       7.453   5.675  15.522  0.00  0.00    +0.000 OA
ATOM     32  H   UNL     1       7.194   6.404  14.932  0.00  0.00    +0.000 HD
ENDBRANCH  28  31
ENDBRANCH  27  28
ENDBRANCH  23  27
ENDBRANCH  18  19
ENDBRANCH   1  18
TORSDOF 11
ENDMDL
