MODEL 1
REMARK VINA RESULT:      -6.8      0.000      0.000
REMARK  Name = 
REMARK  15 active torsions:
REMARK  status: ('A' for Active; 'I' for Inactive)
REMARK    1  A    between atoms: C_1  and  O_2
REMARK    2  A    between atoms: O_2  and  C_3
REMARK    3  A    between atoms: C_6  and  N_7
REMARK    4  A    between atoms: C_8  and  C_10
REMARK    5  A    between atoms: C_10  and  C_11
REMARK    6  A    between atoms: C_10  and  N_12
REMARK    7  A    between atoms: N_12  and  C_13
REMARK    8  A    between atoms: C_14  and  N_15
REMARK    9  A    between atoms: C_19  and  C_20
REMARK   10  A    between atoms: N_22  and  C_23
REMARK   11  A    between atoms: C_23  and  C_24
REMARK   12  A    between atoms: C_24  and  N_25
REMARK   13  A    between atoms: N_25  and  C_26
REMARK   14  A    between atoms: N_25  and  C_27
REMARK   15  A    between atoms: C_29  and  N_30
REMARK                            x       y       z     vdW  Elec       q    Type
REMARK                         _______ _______ _______ _____ _____    ______ ____
ROOT
ATOM      1  C   UNL     1      -0.665  10.748  20.316  0.00  0.00    +0.000 A 
ATOM      2  C   UNL     1      -0.714  10.609  21.726  0.00  0.00    +0.000 A 
ATOM      3  C   UNL     1      -1.276  11.571  22.592  0.00  0.00    +0.000 A 
ATOM      4  C   UNL     1      -1.780  12.757  22.074  0.00  0.00    +0.000 A 
ATOM      5  C   UNL     1      -1.716  12.980  20.701  0.00  0.00    +0.000 A 
ATOM      6  C   UNL     1      -1.187  11.993  19.836  0.00  0.00    +0.000 A 
ENDROOT
BRANCH   4   7
ATOM      7  C   UNL     1      -2.322  13.824  22.955  0.00  0.00    +0.000 C 
ATOM      8  O   UNL     1      -1.609  14.762  23.278  0.00  0.00    +0.000 OA
ATOM      9  N   UNL     1      -3.633  13.672  23.344  0.00  0.00    +0.000 N 
ATOM     10  H   UNL     1      -4.243  13.084  22.789  0.00  0.00    +0.000 HD
BRANCH   9  11
ATOM     11  C   UNL     1      -4.305  14.695  24.128  0.00  0.00    +0.000 C 
BRANCH  11  12
ATOM     12  C   UNL     1      -5.802  14.816  23.782  0.00  0.00    +0.000 C 
BRANCH  12  13
ATOM     13  N   UNL     1      -6.367  13.654  23.055  0.00  0.00    +0.000 NA
ATOM     14  C   UNL     1      -7.389  12.956  23.839  0.00  0.00    +0.000 C 
ATOM     15  C   UNL     1      -6.964  14.120  21.795  0.00  0.00    +0.000 C 
ENDBRANCH  12  13
ENDBRANCH  11  12
ENDBRANCH   9  11
ENDBRANCH   4   7
BRANCH   2  16
ATOM     16  N   UNL     1      -0.120   9.484  22.421  0.00  0.00    +0.000 N 
ATOM     17  O   UNL     1       0.443   9.710  23.497  0.00  0.00    +0.000 OA
ATOM     18  O   UNL     1      -0.286   8.369  21.908  0.00  0.00    +0.000 OA
ENDBRANCH   2  16
BRANCH   6  19
ATOM     19  N   UNL     1      -1.244  12.306  18.389  0.00  0.00    +0.000 N 
ATOM     20  O   UNL     1      -1.917  11.563  17.657  0.00  0.00    +0.000 OA
ATOM     21  O   UNL     1      -0.629  13.302  17.984  0.00  0.00    +0.000 OA
ENDBRANCH   6  19
BRANCH   1  22
ATOM     22  N   UNL     1      -0.024   9.847  19.436  0.00  0.00    +0.000 N 
ATOM     23  H   UNL     1      -0.360   8.888  19.605  0.00  0.00    +0.000 HD
BRANCH  22  24
ATOM     24  C   UNL     1       1.452   9.807  19.261  0.00  0.00    +0.000 C 
ATOM     25  C   UNL     1       1.877  10.792  18.174  0.00  0.00    +0.000 C 
BRANCH  24  27
ATOM     26  N   UNL     1       2.059   7.524  19.978  0.00  0.00    +0.000 N 
ATOM     27  C   UNL     1       1.913   8.380  18.896  0.00  0.00    +0.000 C 
ATOM     28  O   UNL     1       2.135   8.107  17.716  0.00  0.00    +0.000 OA
ATOM     29  H   UNL     1       1.875   7.899  20.901  0.00  0.00    +0.000 HD
BRANCH  26  33
ATOM     30  C   UNL     1       3.323   3.491  19.779  0.00  0.00    +0.000 A 
ATOM     31  C   UNL     1       2.049   3.793  20.247  0.00  0.00    +0.000 A 
ATOM     32  C   UNL     1       1.611   5.117  20.314  0.00  0.00    +0.000 A 
ATOM     33  C   UNL     1       2.447   6.165  19.929  0.00  0.00    +0.000 A 
ATOM     34  C   UNL     1       3.740   5.860  19.482  0.00  0.00    +0.000 A 
ATOM     35  C   UNL     1       4.177   4.526  19.407  0.00  0.00    +0.000 A 
BRANCH  30  37
ATOM     36  C   UNL     1       3.443   1.492  18.533  0.00  0.00    +0.000 C 
ATOM     37  O   UNL     1       3.630   2.160  19.773  0.00  0.00    +0.000 OA
ENDBRANCH  30  37
ENDBRANCH  26  33
ENDBRANCH  24  27
ENDBRANCH  22  24
ENDBRANCH   1  22
TORSDOF 11
ENDMDL
MODEL 2
REMARK VINA RESULT:      -6.7      1.835      3.308
REMARK  Name = 
REMARK  15 active torsions:
REMARK  status: ('A' for Active; 'I' for Inactive)
REMARK    1  A    between atoms: C_1  and  O_2
REMARK    2  A    between atoms: O_2  and  C_3
REMARK    3  A    between atoms: C_6  and  N_7
REMARK    4  A    between atoms: C_8  and  C_10
REMARK    5  A    between atoms: C_10  and  C_11
REMARK    6  A    between atoms: C_10  and  N_12
REMARK    7  A    between atoms: N_12  and  C_13
REMARK    8  A    between atoms: C_14  and  N_15
REMARK    9  A    between atoms: C_19  and  C_20
REMARK   10  A    between atoms: N_22  and  C_23
REMARK   11  A    between atoms: C_23  and  C_24
REMARK   12  A    between atoms: C_24  and  N_25
REMARK   13  A    between atoms: N_25  and  C_26
REMARK   14  A    between atoms: N_25  and  C_27
REMARK   15  A    between atoms: C_29  and  N_30
REMARK                            x       y       z     vdW  Elec       q    Type
REMARK                         _______ _______ _______ _____ _____    ______ ____
ROOT
ATOM      1  C   UNL     1      -0.525  10.685  20.237  0.00  0.00    +0.000 A 
ATOM      2  C   UNL     1      -1.471  11.715  20.002  0.00  0.00    +0.000 A 
ATOM      3  C   UNL     1      -2.188  12.373  21.024  0.00  0.00    +0.000 A 
ATOM      4  C   UNL     1      -2.015  11.987  22.347  0.00  0.00    +0.000 A 
ATOM      5  C   UNL     1      -1.138  10.946  22.643  0.00  0.00    +0.000 A 
ATOM      6  C   UNL     1      -0.395  10.318  21.616  0.00  0.00    +0.000 A 
ENDROOT
BRANCH   4   7
ATOM      7  C   UNL     1      -2.795  12.610  23.449  0.00  0.00    +0.000 C 
ATOM      8  O   UNL     1      -3.685  11.974  23.993  0.00  0.00    +0.000 OA
ATOM      9  N   UNL     1      -2.436  13.894  23.786  0.00  0.00    +0.000 N 
ATOM     10  H   UNL     1      -1.509  14.223  23.544  0.00  0.00    +0.000 HD
BRANCH   9  11
ATOM     11  C   UNL     1      -3.061  14.576  24.908  0.00  0.00    +0.000 C 
BRANCH  11  12
ATOM     12  C   UNL     1      -2.480  15.984  25.140  0.00  0.00    +0.000 C 
BRANCH  12  13
ATOM     13  N   UNL     1      -3.344  17.097  24.673  0.00  0.00    +0.000 NA
ATOM     14  C   UNL     1      -4.766  16.749  24.722  0.00  0.00    +0.000 C 
ATOM     15  C   UNL     1      -3.108  18.275  25.520  0.00  0.00    +0.000 C 
ENDBRANCH  12  13
ENDBRANCH  11  12
ENDBRANCH   9  11
ENDBRANCH   4   7
BRANCH   2  16
ATOM     16  N   UNL     1      -1.847  12.141  18.669  0.00  0.00    +0.000 N 
ATOM     17  O   UNL     1      -1.019  12.793  18.022  0.00  0.00    +0.000 OA
ATOM     18  O   UNL     1      -2.950  11.757  18.257  0.00  0.00    +0.000 OA
ENDBRANCH   2  16
BRANCH   6  19
ATOM     19  N   UNL     1       0.566   9.280  22.057  0.00  0.00    +0.000 N 
ATOM     20  O   UNL     1       0.457   8.142  21.576  0.00  0.00    +0.000 OA
ATOM     21  O   UNL     1       1.439   9.605  22.873  0.00  0.00    +0.000 OA
ENDBRANCH   6  19
BRANCH   1  22
ATOM     22  N   UNL     1       0.133   9.945  19.229  0.00  0.00    +0.000 N 
ATOM     23  H   UNL     1      -0.137   8.952  19.286  0.00  0.00    +0.000 HD
BRANCH  22  24
ATOM     24  C   UNL     1       1.600  10.023  19.001  0.00  0.00    +0.000 C 
ATOM     25  C   UNL     1       1.937  11.269  18.183  0.00  0.00    +0.000 C 
BRANCH  24  27
ATOM     26  N   UNL     1       2.292   7.656  19.096  0.00  0.00    +0.000 N 
ATOM     27  C   UNL     1       2.102   8.758  18.275  0.00  0.00    +0.000 C 
ATOM     28  O   UNL     1       2.315   8.809  17.063  0.00  0.00    +0.000 OA
ATOM     29  H   UNL     1       2.110   7.771  20.085  0.00  0.00    +0.000 HD
BRANCH  26  33
ATOM     30  C   UNL     1       3.695   3.855  17.877  0.00  0.00    +0.000 A 
ATOM     31  C   UNL     1       2.335   4.053  18.093  0.00  0.00    +0.000 A 
ATOM     32  C   UNL     1       1.852   5.301  18.489  0.00  0.00    +0.000 A 
ATOM     33  C   UNL     1       2.724   6.371  18.692  0.00  0.00    +0.000 A 
ATOM     34  C   UNL     1       4.096   6.163  18.499  0.00  0.00    +0.000 A 
ATOM     35  C   UNL     1       4.580   4.908  18.092  0.00  0.00    +0.000 A 
BRANCH  30  37
ATOM     36  C   UNL     1       3.458   1.541  18.270  0.00  0.00    +0.000 C 
ATOM     37  O   UNL     1       4.036   2.586  17.501  0.00  0.00    +0.000 OA
ENDBRANCH  30  37
ENDBRANCH  26  33
ENDBRANCH  24  27
ENDBRANCH  22  24
ENDBRANCH   1  22
TORSDOF 11
ENDMDL
MODEL 3
REMARK VINA RESULT:      -6.7      0.768      1.271
REMARK  Name = 
REMARK  15 active torsions:
REMARK  status: ('A' for Active; 'I' for Inactive)
REMARK    1  A    between atoms: C_1  and  O_2
REMARK    2  A    between atoms: O_2  and  C_3
REMARK    3  A    between atoms: C_6  and  N_7
REMARK    4  A    between atoms: C_8  and  C_10
REMARK    5  A    between atoms: C_10  and  C_11
REMARK    6  A    between atoms: C_10  and  N_12
REMARK    7  A    between atoms: N_12  and  C_13
REMARK    8  A    between atoms: C_14  and  N_15
REMARK    9  A    between atoms: C_19  and  C_20
REMARK   10  A    between atoms: N_22  and  C_23
REMARK   11  A    between atoms: C_23  and  C_24
REMARK   12  A    between atoms: C_24  and  N_25
REMARK   13  A    between atoms: N_25  and  C_26
REMARK   14  A    between atoms: N_25  and  C_27
REMARK   15  A    between atoms: C_29  and  N_30
REMARK                            x       y       z     vdW  Elec       q    Type
REMARK                         _______ _______ _______ _____ _____    ______ ____
ROOT
ATOM      1  C   UNL     1      -0.620  10.810  20.433  0.00  0.00    +0.000 A 
ATOM      2  C   UNL     1      -0.643  10.585  21.832  0.00  0.00    +0.000 A 
ATOM      3  C   UNL     1      -1.200  11.486  22.765  0.00  0.00    +0.000 A 
ATOM      4  C   UNL     1      -1.726  12.695  22.328  0.00  0.00    +0.000 A 
ATOM      5  C   UNL     1      -1.689  13.001  20.970  0.00  0.00    +0.000 A 
ATOM      6  C   UNL     1      -1.164  12.075  20.038  0.00  0.00    +0.000 A 
ENDROOT
BRANCH   4   7
ATOM      7  C   UNL     1      -2.266  13.700  23.281  0.00  0.00    +0.000 C 
ATOM      8  O   UNL     1      -1.509  14.260  24.061  0.00  0.00    +0.000 OA
ATOM      9  N   UNL     1      -3.619  13.936  23.203  0.00  0.00    +0.000 N 
ATOM     10  H   UNL     1      -4.106  13.705  22.346  0.00  0.00    +0.000 HD
BRANCH   9  11
ATOM     11  C   UNL     1      -4.248  14.963  24.017  0.00  0.00    +0.000 C 
BRANCH  11  12
ATOM     12  C   UNL     1      -4.666  16.195  23.192  0.00  0.00    +0.000 C 
BRANCH  12  13
ATOM     13  N   UNL     1      -6.081  16.194  22.747  0.00  0.00    +0.000 NA
ATOM     14  C   UNL     1      -6.240  15.607  21.414  0.00  0.00    +0.000 C 
ATOM     15  C   UNL     1      -6.886  15.428  23.709  0.00  0.00    +0.000 C 
ENDBRANCH  12  13
ENDBRANCH  11  12
ENDBRANCH   9  11
ENDBRANCH   4   7
BRANCH   2  16
ATOM     16  N   UNL     1      -0.025   9.428  22.448  0.00  0.00    +0.000 N 
ATOM     17  O   UNL     1       0.592   9.602  23.504  0.00  0.00    +0.000 OA
ATOM     18  O   UNL     1      -0.224   8.337  21.895  0.00  0.00    +0.000 OA
ENDBRANCH   2  16
BRANCH   6  19
ATOM     19  N   UNL     1      -1.250  12.475  18.614  0.00  0.00    +0.000 N 
ATOM     20  O   UNL     1      -1.966  11.798  17.860  0.00  0.00    +0.000 OA
ATOM     21  O   UNL     1      -0.614  13.473  18.250  0.00  0.00    +0.000 OA
ENDBRANCH   6  19
BRANCH   1  22
ATOM     22  N   UNL     1       0.016   9.972  19.489  0.00  0.00    +0.000 N 
ATOM     23  H   UNL     1      -0.315   9.002  19.598  0.00  0.00    +0.000 HD
BRANCH  22  24
ATOM     24  C   UNL     1       1.490   9.950  19.297  0.00  0.00    +0.000 C 
ATOM     25  C   UNL     1       1.889  10.928  18.194  0.00  0.00    +0.000 C 
BRANCH  24  27
ATOM     26  N   UNL     1       2.025   7.651  20.019  0.00  0.00    +0.000 N 
ATOM     27  C   UNL     1       1.967   8.525  18.943  0.00  0.00    +0.000 C 
ATOM     28  O   UNL     1       2.274   8.270  17.779  0.00  0.00    +0.000 OA
ATOM     29  H   UNL     1       1.776   8.012  20.931  0.00  0.00    +0.000 HD
BRANCH  26  33
ATOM     30  C   UNL     1       3.073   3.552  19.962  0.00  0.00    +0.000 A 
ATOM     31  C   UNL     1       3.886   4.481  19.321  0.00  0.00    +0.000 A 
ATOM     32  C   UNL     1       3.560   5.839  19.334  0.00  0.00    +0.000 A 
ATOM     33  C   UNL     1       2.406   6.289  19.975  0.00  0.00    +0.000 A 
ATOM     34  C   UNL     1       1.576   5.348  20.599  0.00  0.00    +0.000 A 
ATOM     35  C   UNL     1       1.909   3.982  20.593  0.00  0.00    +0.000 A 
BRANCH  30  37
ATOM     36  C   UNL     1       3.413   1.675  18.574  0.00  0.00    +0.000 C 
ATOM     37  O   UNL     1       3.500   2.257  19.867  0.00  0.00    +0.000 OA
ENDBRANCH  30  37
ENDBRANCH  26  33
ENDBRANCH  24  27
ENDBRANCH  22  24
ENDBRANCH   1  22
TORSDOF 11
ENDMDL
MODEL 4
REMARK VINA RESULT:      -6.6      2.252      4.112
REMARK  Name = 
REMARK  15 active torsions:
REMARK  status: ('A' for Active; 'I' for Inactive)
REMARK    1  A    between atoms: C_1  and  O_2
REMARK    2  A    between atoms: O_2  and  C_3
REMARK    3  A    between atoms: C_6  and  N_7
REMARK    4  A    between atoms: C_8  and  C_10
REMARK    5  A    between atoms: C_10  and  C_11
REMARK    6  A    between atoms: C_10  and  N_12
REMARK    7  A    between atoms: N_12  and  C_13
REMARK    8  A    between atoms: C_14  and  N_15
REMARK    9  A    between atoms: C_19  and  C_20
REMARK   10  A    between atoms: N_22  and  C_23
REMARK   11  A    between atoms: C_23  and  C_24
REMARK   12  A    between atoms: C_24  and  N_25
REMARK   13  A    between atoms: N_25  and  C_26
REMARK   14  A    between atoms: N_25  and  C_27
REMARK   15  A    between atoms: C_29  and  N_30
REMARK                            x       y       z     vdW  Elec       q    Type
REMARK                         _______ _______ _______ _____ _____    ______ ____
ROOT
ATOM      1  C   UNL     1      -0.384  10.910  20.635  0.00  0.00    +0.000 A 
ATOM      2  C   UNL     1      -0.746  12.172  20.099  0.00  0.00    +0.000 A 
ATOM      3  C   UNL     1      -1.237  13.244  20.874  0.00  0.00    +0.000 A 
ATOM      4  C   UNL     1      -1.433  13.077  22.239  0.00  0.00    +0.000 A 
ATOM      5  C   UNL     1      -1.146  11.845  22.821  0.00  0.00    +0.000 A 
ATOM      6  C   UNL     1      -0.617  10.788  22.043  0.00  0.00    +0.000 A 
ENDROOT
BRANCH   4   7
ATOM      7  C   UNL     1      -2.007  14.159  23.082  0.00  0.00    +0.000 C 
ATOM      8  O   UNL     1      -3.079  14.659  22.775  0.00  0.00    +0.000 OA
ATOM      9  N   UNL     1      -1.266  14.518  24.183  0.00  0.00    +0.000 N 
ATOM     10  H   UNL     1      -0.591  13.861  24.554  0.00  0.00    +0.000 HD
BRANCH   9  11
ATOM     11  C   UNL     1      -1.765  15.497  25.135  0.00  0.00    +0.000 C 
BRANCH  11  12
ATOM     12  C   UNL     1      -0.844  16.726  25.255  0.00  0.00    +0.000 C 
BRANCH  12  13
ATOM     13  N   UNL     1       0.459  16.464  25.912  0.00  0.00    +0.000 NA
ATOM     14  C   UNL     1       1.445  17.507  25.618  0.00  0.00    +0.000 C 
ATOM     15  C   UNL     1       0.258  16.390  27.367  0.00  0.00    +0.000 C 
ENDBRANCH  12  13
ENDBRANCH  11  12
ENDBRANCH   9  11
ENDBRANCH   4   7
BRANCH   2  16
ATOM     16  N   UNL     1      -0.712  12.456  18.678  0.00  0.00    +0.000 N 
ATOM     17  O   UNL     1       0.056  13.343  18.291  0.00  0.00    +0.000 OA
ATOM     18  O   UNL     1      -1.412  11.734  17.954  0.00  0.00    +0.000 OA
ENDBRANCH   2  16
BRANCH   6  19
ATOM     19  N   UNL     1      -0.275   9.551  22.784  0.00  0.00    +0.000 N 
ATOM     20  O   UNL     1       0.515   9.642  23.737  0.00  0.00    +0.000 OA
ATOM     21  O   UNL     1      -0.805   8.492  22.424  0.00  0.00    +0.000 OA
ENDBRANCH   6  19
BRANCH   1  22
ATOM     22  N   UNL     1       0.017   9.791  19.871  0.00  0.00    +0.000 N 
ATOM     23  H   UNL     1      -0.364   8.927  20.283  0.00  0.00    +0.000 HD
BRANCH  22  24
ATOM     24  C   UNL     1       1.432   9.547  19.485  0.00  0.00    +0.000 C 
ATOM     25  C   UNL     1       1.680  10.049  18.064  0.00  0.00    +0.000 C 
BRANCH  24  27
ATOM     26  N   UNL     1       2.151   7.456  18.387  0.00  0.00    +0.000 N 
ATOM     27  C   UNL     1       1.767   8.044  19.584  0.00  0.00    +0.000 C 
ATOM     28  O   UNL     1       1.656   7.477  20.671  0.00  0.00    +0.000 OA
ATOM     29  H   UNL     1       2.162   8.040  17.560  0.00  0.00    +0.000 HD
BRANCH  26  33
ATOM     30  C   UNL     1       3.401   3.452  17.832  0.00  0.00    +0.000 A 
ATOM     31  C   UNL     1       2.061   3.787  17.666  0.00  0.00    +0.000 A 
ATOM     32  C   UNL     1       1.630   5.103  17.838  0.00  0.00    +0.000 A 
ATOM     33  C   UNL     1       2.530   6.107  18.197  0.00  0.00    +0.000 A 
ATOM     34  C   UNL     1       3.875   5.763  18.388  0.00  0.00    +0.000 A 
ATOM     35  C   UNL     1       4.309   4.438  18.206  0.00  0.00    +0.000 A 
BRANCH  30  37
ATOM     36  C   UNL     1       3.936   1.379  18.823  0.00  0.00    +0.000 C 
ATOM     37  O   UNL     1       3.688   2.130  17.643  0.00  0.00    +0.000 OA
ENDBRANCH  30  37
ENDBRANCH  26  33
ENDBRANCH  24  27
ENDBRANCH  22  24
ENDBRANCH   1  22
TORSDOF 11
ENDMDL
MODEL 5
REMARK VINA RESULT:      -6.6      1.414      1.678
REMARK  Name = 
REMARK  15 active torsions:
REMARK  status: ('A' for Active; 'I' for Inactive)
REMARK    1  A    between atoms: C_1  and  O_2
REMARK    2  A    between atoms: O_2  and  C_3
REMARK    3  A    between atoms: C_6  and  N_7
REMARK    4  A    between atoms: C_8  and  C_10
REMARK    5  A    between atoms: C_10  and  C_11
REMARK    6  A    between atoms: C_10  and  N_12
REMARK    7  A    between atoms: N_12  and  C_13
REMARK    8  A    between atoms: C_14  and  N_15
REMARK    9  A    between atoms: C_19  and  C_20
REMARK   10  A    between atoms: N_22  and  C_23
REMARK   11  A    between atoms: C_23  and  C_24
REMARK   12  A    between atoms: C_24  and  N_25
REMARK   13  A    between atoms: N_25  and  C_26
REMARK   14  A    between atoms: N_25  and  C_27
REMARK   15  A    between atoms: C_29  and  N_30
REMARK                            x       y       z     vdW  Elec       q    Type
REMARK                         _______ _______ _______ _____ _____    ______ ____
ROOT
ATOM      1  C   UNL     1       0.382  11.384  20.685  0.00  0.00    +0.000 A 
ATOM      2  C   UNL     1      -0.178  10.594  21.722  0.00  0.00    +0.000 A 
ATOM      3  C   UNL     1      -1.149  11.064  22.631  0.00  0.00    +0.000 A 
ATOM      4  C   UNL     1      -1.574  12.385  22.567  0.00  0.00    +0.000 A 
ATOM      5  C   UNL     1      -1.026  13.229  21.605  0.00  0.00    +0.000 A 
ATOM      6  C   UNL     1      -0.081  12.739  20.672  0.00  0.00    +0.000 A 
ENDROOT
BRANCH   4   7
ATOM      7  C   UNL     1      -2.548  12.938  23.544  0.00  0.00    +0.000 C 
ATOM      8  O   UNL     1      -2.382  14.063  23.992  0.00  0.00    +0.000 OA
ATOM      9  N   UNL     1      -3.601  12.116  23.873  0.00  0.00    +0.000 N 
ATOM     10  H   UNL     1      -3.856  11.370  23.238  0.00  0.00    +0.000 HD
BRANCH   9  11
ATOM     11  C   UNL     1      -4.668  12.578  24.745  0.00  0.00    +0.000 C 
BRANCH  11  12
ATOM     12  C   UNL     1      -6.039  12.593  24.042  0.00  0.00    +0.000 C 
BRANCH  12  13
ATOM     13  N   UNL     1      -5.980  12.731  22.567  0.00  0.00    +0.000 NA
ATOM     14  C   UNL     1      -7.153  12.148  21.910  0.00  0.00    +0.000 C 
ATOM     15  C   UNL     1      -5.896  14.157  22.221  0.00  0.00    +0.000 C 
ENDBRANCH  12  13
ENDBRANCH  11  12
ENDBRANCH   9  11
ENDBRANCH   4   7
BRANCH   2  16
ATOM     16  N   UNL     1       0.254   9.237  21.989  0.00  0.00    +0.000 N 
ATOM     17  O   UNL     1      -0.562   8.329  21.797  0.00  0.00    +0.000 OA
ATOM     18  O   UNL     1       1.437   9.091  22.328  0.00  0.00    +0.000 OA
ENDBRANCH   2  16
BRANCH   6  19
ATOM     19  N   UNL     1       0.372  13.706  19.645  0.00  0.00    +0.000 N 
ATOM     20  O   UNL     1       1.589  13.921  19.543  0.00  0.00    +0.000 OA
ATOM     21  O   UNL     1      -0.487  14.240  18.930  0.00  0.00    +0.000 OA
ENDBRANCH   6  19
BRANCH   1  22
ATOM     22  N   UNL     1       1.423  10.969  19.825  0.00  0.00    +0.000 N 
ATOM     23  H   UNL     1       2.147  11.701  19.767  0.00  0.00    +0.000 HD
BRANCH  22  24
ATOM     24  C   UNL     1       1.174  10.442  18.457  0.00  0.00    +0.000 C 
ATOM     25  C   UNL     1      -0.328  10.375  18.188  0.00  0.00    +0.000 C 
BRANCH  24  27
ATOM     26  N   UNL     1       1.513   8.153  19.315  0.00  0.00    +0.000 N 
ATOM     27  C   UNL     1       1.807   9.044  18.294  0.00  0.00    +0.000 C 
ATOM     28  O   UNL     1       2.522   8.823  17.317  0.00  0.00    +0.000 OA
ATOM     29  H   UNL     1       0.937   8.487  20.078  0.00  0.00    +0.000 HD
BRANCH  26  33
ATOM     30  C   UNL     1       2.814   4.130  19.472  0.00  0.00    +0.000 A 
ATOM     31  C   UNL     1       2.329   4.744  20.622  0.00  0.00    +0.000 A 
ATOM     32  C   UNL     1       1.889   6.068  20.589  0.00  0.00    +0.000 A 
ATOM     33  C   UNL     1       1.942   6.808  19.407  0.00  0.00    +0.000 A 
ATOM     34  C   UNL     1       2.454   6.195  18.256  0.00  0.00    +0.000 A 
ATOM     35  C   UNL     1       2.889   4.859  18.288  0.00  0.00    +0.000 A 
BRANCH  30  37
ATOM     36  C   UNL     1       4.619   2.644  19.788  0.00  0.00    +0.000 C 
ATOM     37  O   UNL     1       3.219   2.836  19.642  0.00  0.00    +0.000 OA
ENDBRANCH  30  37
ENDBRANCH  26  33
ENDBRANCH  24  27
ENDBRANCH  22  24
ENDBRANCH   1  22
TORSDOF 11
ENDMDL
MODEL 6
REMARK VINA RESULT:      -6.6      1.305      2.933
REMARK  Name = 
REMARK  15 active torsions:
REMARK  status: ('A' for Active; 'I' for Inactive)
REMARK    1  A    between atoms: C_1  and  O_2
REMARK    2  A    between atoms: O_2  and  C_3
REMARK    3  A    between atoms: C_6  and  N_7
REMARK    4  A    between atoms: C_8  and  C_10
REMARK    5  A    between atoms: C_10  and  C_11
REMARK    6  A    between atoms: C_10  and  N_12
REMARK    7  A    between atoms: N_12  and  C_13
REMARK    8  A    between atoms: C_14  and  N_15
REMARK    9  A    between atoms: C_19  and  C_20
REMARK   10  A    between atoms: N_22  and  C_23
REMARK   11  A    between atoms: C_23  and  C_24
REMARK   12  A    between atoms: C_24  and  N_25
REMARK   13  A    between atoms: N_25  and  C_26
REMARK   14  A    between atoms: N_25  and  C_27
REMARK   15  A    between atoms: C_29  and  N_30
REMARK                            x       y       z     vdW  Elec       q    Type
REMARK                         _______ _______ _______ _____ _____    ______ ____
ROOT
ATOM      1  C   UNL     1       0.197  11.522  21.057  0.00  0.00    +0.000 A 
ATOM      2  C   UNL     1      -0.407  12.781  20.812  0.00  0.00    +0.000 A 
ATOM      3  C   UNL     1      -1.415  13.342  21.626  0.00  0.00    +0.000 A 
ATOM      4  C   UNL     1      -1.900  12.628  22.714  0.00  0.00    +0.000 A 
ATOM      5  C   UNL     1      -1.387  11.362  22.980  0.00  0.00    +0.000 A 
ATOM      6  C   UNL     1      -0.350  10.824  22.182  0.00  0.00    +0.000 A 
ENDROOT
BRANCH   4   7
ATOM      7  C   UNL     1      -3.004  13.154  23.560  0.00  0.00    +0.000 C 
ATOM      8  O   UNL     1      -2.820  14.148  24.245  0.00  0.00    +0.000 OA
ATOM      9  N   UNL     1      -4.191  12.460  23.496  0.00  0.00    +0.000 N 
ATOM     10  H   UNL     1      -4.375  11.880  22.687  0.00  0.00    +0.000 HD
BRANCH   9  11
ATOM     11  C   UNL     1      -5.371  12.929  24.204  0.00  0.00    +0.000 C 
BRANCH  11  12
ATOM     12  C   UNL     1      -6.314  13.747  23.301  0.00  0.00    +0.000 C 
BRANCH  12  13
ATOM     13  N   UNL     1      -6.812  15.008  23.902  0.00  0.00    +0.000 NA
ATOM     14  C   UNL     1      -5.763  16.027  23.996  0.00  0.00    +0.000 C 
ATOM     15  C   UNL     1      -7.915  15.528  23.082  0.00  0.00    +0.000 C 
ENDBRANCH  12  13
ENDBRANCH  11  12
ENDBRANCH   9  11
ENDBRANCH   4   7
BRANCH   2  16
ATOM     16  N   UNL     1      -0.091  13.586  19.649  0.00  0.00    +0.000 N 
ATOM     17  O   UNL     1       1.067  14.004  19.540  0.00  0.00    +0.000 OA
ATOM     18  O   UNL     1      -0.998  13.735  18.818  0.00  0.00    +0.000 OA
ENDBRANCH   2  16
BRANCH   6  19
ATOM     19  N   UNL     1       0.173   9.505  22.608  0.00  0.00    +0.000 N 
ATOM     20  O   UNL     1       0.067   8.553  21.820  0.00  0.00    +0.000 OA
ATOM     21  O   UNL     1       0.704   9.422  23.724  0.00  0.00    +0.000 OA
ENDBRANCH   6  19
BRANCH   1  22
ATOM     22  N   UNL     1       1.136  10.895  20.206  0.00  0.00    +0.000 N 
ATOM     23  H   UNL     1       2.010  11.441  20.184  0.00  0.00    +0.000 HD
BRANCH  22  24
ATOM     24  C   UNL     1       0.807  10.471  18.820  0.00  0.00    +0.000 C 
ATOM     25  C   UNL     1      -0.691  10.198  18.698  0.00  0.00    +0.000 C 
BRANCH  24  27
ATOM     26  N   UNL     1       1.743   8.277  19.455  0.00  0.00    +0.000 N 
ATOM     27  C   UNL     1       1.610   9.210  18.437  0.00  0.00    +0.000 C 
ATOM     28  O   UNL     1       2.082   9.124  17.304  0.00  0.00    +0.000 OA
ATOM     29  H   UNL     1       1.330   8.500  20.353  0.00  0.00    +0.000 HD
BRANCH  26  33
ATOM     30  C   UNL     1       3.789   4.590  19.112  0.00  0.00    +0.000 A 
ATOM     31  C   UNL     1       2.796   4.741  20.074  0.00  0.00    +0.000 A 
ATOM     32  C   UNL     1       2.105   5.948  20.199  0.00  0.00    +0.000 A 
ATOM     33  C   UNL     1       2.407   7.031  19.373  0.00  0.00    +0.000 A 
ATOM     34  C   UNL     1       3.426   6.884  18.422  0.00  0.00    +0.000 A 
ATOM     35  C   UNL     1       4.115   5.666  18.291  0.00  0.00    +0.000 A 
BRANCH  30  37
ATOM     36  C   UNL     1       3.517   2.247  19.157  0.00  0.00    +0.000 C 
ATOM     37  O   UNL     1       4.393   3.364  19.101  0.00  0.00    +0.000 OA
ENDBRANCH  30  37
ENDBRANCH  26  33
ENDBRANCH  24  27
ENDBRANCH  22  24
ENDBRANCH   1  22
TORSDOF 11
ENDMDL
MODEL 7
REMARK VINA RESULT:      -6.6      1.573      1.854
REMARK  Name = 
REMARK  15 active torsions:
REMARK  status: ('A' for Active; 'I' for Inactive)
REMARK    1  A    between atoms: C_1  and  O_2
REMARK    2  A    between atoms: O_2  and  C_3
REMARK    3  A    between atoms: C_6  and  N_7
REMARK    4  A    between atoms: C_8  and  C_10
REMARK    5  A    between atoms: C_10  and  C_11
REMARK    6  A    between atoms: C_10  and  N_12
REMARK    7  A    between atoms: N_12  and  C_13
REMARK    8  A    between atoms: C_14  and  N_15
REMARK    9  A    between atoms: C_19  and  C_20
REMARK   10  A    between atoms: N_22  and  C_23
REMARK   11  A    between atoms: C_23  and  C_24
REMARK   12  A    between atoms: C_24  and  N_25
REMARK   13  A    between atoms: N_25  and  C_26
REMARK   14  A    between atoms: N_25  and  C_27
REMARK   15  A    between atoms: C_29  and  N_30
REMARK                            x       y       z     vdW  Elec       q    Type
REMARK                         _______ _______ _______ _____ _____    ______ ____
ROOT
ATOM      1  C   UNL     1       0.028  11.447  21.063  0.00  0.00    +0.000 A 
ATOM      2  C   UNL     1      -0.651  10.847  22.153  0.00  0.00    +0.000 A 
ATOM      3  C   UNL     1      -1.736  11.443  22.828  0.00  0.00    +0.000 A 
ATOM      4  C   UNL     1      -2.166  12.712  22.460  0.00  0.00    +0.000 A 
ATOM      5  C   UNL     1      -1.509  13.379  21.430  0.00  0.00    +0.000 A 
ATOM      6  C   UNL     1      -0.446  12.757  20.733  0.00  0.00    +0.000 A 
ENDROOT
BRANCH   4   7
ATOM      7  C   UNL     1      -3.264  13.403  23.185  0.00  0.00    +0.000 C 
ATOM      8  O   UNL     1      -3.108  13.726  24.353  0.00  0.00    +0.000 OA
ATOM      9  N   UNL     1      -4.406  13.642  22.456  0.00  0.00    +0.000 N 
ATOM     10  H   UNL     1      -4.347  13.660  21.446  0.00  0.00    +0.000 HD
BRANCH   9  11
ATOM     11  C   UNL     1      -5.514  14.393  23.025  0.00  0.00    +0.000 C 
BRANCH  11  12
ATOM     12  C   UNL     1      -6.836  14.158  22.269  0.00  0.00    +0.000 C 
BRANCH  12  13
ATOM     13  N   UNL     1      -7.914  13.541  23.080  0.00  0.00    +0.000 NA
ATOM     14  C   UNL     1      -7.865  12.077  23.041  0.00  0.00    +0.000 C 
ATOM     15  C   UNL     1      -7.782  13.989  24.474  0.00  0.00    +0.000 C 
ENDBRANCH  12  13
ENDBRANCH  11  12
ENDBRANCH   9  11
ENDBRANCH   4   7
BRANCH   2  16
ATOM     16  N   UNL     1      -0.240   9.581  22.728  0.00  0.00    +0.000 N 
ATOM     17  O   UNL     1      -0.842   8.565  22.363  0.00  0.00    +0.000 OA
ATOM     18  O   UNL     1       0.734   9.612  23.493  0.00  0.00    +0.000 OA
ENDBRANCH   2  16
BRANCH   6  19
ATOM     19  N   UNL     1       0.123  13.529  19.603  0.00  0.00    +0.000 N 
ATOM     20  O   UNL     1      -0.589  13.713  18.604  0.00  0.00    +0.000 OA
ATOM     21  O   UNL     1       1.277  13.965  19.720  0.00  0.00    +0.000 OA
ENDBRANCH   6  19
BRANCH   1  22
ATOM     22  N   UNL     1       1.177  10.916  20.433  0.00  0.00    +0.000 N 
ATOM     23  H   UNL     1       1.911  11.637  20.370  0.00  0.00    +0.000 HD
BRANCH  22  24
ATOM     24  C   UNL     1       1.120  10.186  19.139  0.00  0.00    +0.000 C 
ATOM     25  C   UNL     1      -0.321  10.126  18.636  0.00  0.00    +0.000 C 
BRANCH  24  27
ATOM     26  N   UNL     1       2.053   8.147  18.109  0.00  0.00    +0.000 N 
ATOM     27  C   UNL     1       1.687   8.760  19.298  0.00  0.00    +0.000 C 
ATOM     28  O   UNL     1       1.757   8.266  20.423  0.00  0.00    +0.000 OA
ATOM     29  H   UNL     1       1.904   8.663  17.250  0.00  0.00    +0.000 HD
BRANCH  26  33
ATOM     30  C   UNL     1       3.838   4.339  17.640  0.00  0.00    +0.000 A 
ATOM     31  C   UNL     1       2.504   4.434  18.023  0.00  0.00    +0.000 A 
ATOM     32  C   UNL     1       1.895   5.681  18.176  0.00  0.00    +0.000 A 
ATOM     33  C   UNL     1       2.616   6.857  17.965  0.00  0.00    +0.000 A 
ATOM     34  C   UNL     1       3.966   6.759  17.605  0.00  0.00    +0.000 A 
ATOM     35  C   UNL     1       4.576   5.503  17.442  0.00  0.00    +0.000 A 
BRANCH  30  37
ATOM     36  C   UNL     1       3.445   2.042  18.005  0.00  0.00    +0.000 C 
ATOM     37  O   UNL     1       4.313   3.063  17.535  0.00  0.00    +0.000 OA
ENDBRANCH  30  37
ENDBRANCH  26  33
ENDBRANCH  24  27
ENDBRANCH  22  24
ENDBRANCH   1  22
TORSDOF 11
ENDMDL
MODEL 8
REMARK VINA RESULT:      -6.5      4.146     11.362
REMARK  Name = 
REMARK  15 active torsions:
REMARK  status: ('A' for Active; 'I' for Inactive)
REMARK    1  A    between atoms: C_1  and  O_2
REMARK    2  A    between atoms: O_2  and  C_3
REMARK    3  A    between atoms: C_6  and  N_7
REMARK    4  A    between atoms: C_8  and  C_10
REMARK    5  A    between atoms: C_10  and  C_11
REMARK    6  A    between atoms: C_10  and  N_12
REMARK    7  A    between atoms: N_12  and  C_13
REMARK    8  A    between atoms: C_14  and  N_15
REMARK    9  A    between atoms: C_19  and  C_20
REMARK   10  A    between atoms: N_22  and  C_23
REMARK   11  A    between atoms: C_23  and  C_24
REMARK   12  A    between atoms: C_24  and  N_25
REMARK   13  A    between atoms: N_25  and  C_26
REMARK   14  A    between atoms: N_25  and  C_27
REMARK   15  A    between atoms: C_29  and  N_30
REMARK                            x       y       z     vdW  Elec       q    Type
REMARK                         _______ _______ _______ _____ _____    ______ ____
ROOT
ATOM      1  C   UNL     1       3.360   5.094  18.145  0.00  0.00    +0.000 A 
ATOM      2  C   UNL     1       4.089   3.925  17.807  0.00  0.00    +0.000 A 
ATOM      3  C   UNL     1       5.154   3.902  16.881  0.00  0.00    +0.000 A 
ATOM      4  C   UNL     1       5.508   5.064  16.208  0.00  0.00    +0.000 A 
ATOM      5  C   UNL     1       4.799   6.236  16.455  0.00  0.00    +0.000 A 
ATOM      6  C   UNL     1       3.758   6.259  17.413  0.00  0.00    +0.000 A 
ENDROOT
BRANCH   4   7
ATOM      7  C   UNL     1       6.582   5.071  15.179  0.00  0.00    +0.000 C 
ATOM      8  O   UNL     1       7.635   5.646  15.409  0.00  0.00    +0.000 OA
ATOM      9  N   UNL     1       6.299   4.399  14.013  0.00  0.00    +0.000 N 
ATOM     10  H   UNL     1       5.579   3.687  14.021  0.00  0.00    +0.000 HD
BRANCH   9  11
ATOM     11  C   UNL     1       7.301   4.255  12.970  0.00  0.00    +0.000 C 
BRANCH  11  12
ATOM     12  C   UNL     1       6.730   3.623  11.686  0.00  0.00    +0.000 C 
BRANCH  12  13
ATOM     13  N   UNL     1       5.617   2.667  11.906  0.00  0.00    +0.000 NA
ATOM     14  C   UNL     1       4.358   3.143  11.327  0.00  0.00    +0.000 C 
ATOM     15  C   UNL     1       5.967   1.375  11.297  0.00  0.00    +0.000 C 
ENDBRANCH  12  13
ENDBRANCH  11  12
ENDBRANCH   9  11
ENDBRANCH   4   7
BRANCH   2  16
ATOM     16  N   UNL     1       3.756   2.617  18.336  0.00  0.00    +0.000 N 
ATOM     17  O   UNL     1       2.846   1.991  17.782  0.00  0.00    +0.000 OA
ATOM     18  O   UNL     1       4.463   2.202  19.265  0.00  0.00    +0.000 OA
ENDBRANCH   2  16
BRANCH   6  19
ATOM     19  N   UNL     1       3.128   7.579  17.650  0.00  0.00    +0.000 N 
ATOM     20  O   UNL     1       1.891   7.630  17.724  0.00  0.00    +0.000 OA
ATOM     21  O   UNL     1       3.870   8.563  17.777  0.00  0.00    +0.000 OA
ENDBRANCH   6  19
BRANCH   1  22
ATOM     22  N   UNL     1       2.230   5.126  18.993  0.00  0.00    +0.000 N 
ATOM     23  H   UNL     1       1.472   5.666  18.551  0.00  0.00    +0.000 HD
BRANCH  22  24
ATOM     24  C   UNL     1       2.311   5.511  20.426  0.00  0.00    +0.000 C 
ATOM     25  C   UNL     1       2.163   4.274  21.310  0.00  0.00    +0.000 C 
BRANCH  24  27
ATOM     26  N   UNL     1       1.680   7.842  20.939  0.00  0.00    +0.000 N 
ATOM     27  C   UNL     1       1.218   6.545  20.770  0.00  0.00    +0.000 C 
ATOM     28  O   UNL     1       0.053   6.164  20.891  0.00  0.00    +0.000 OA
ATOM     29  H   UNL     1       2.676   8.001  20.844  0.00  0.00    +0.000 HD
BRANCH  26  33
ATOM     30  C   UNL     1      -0.681  11.207  21.940  0.00  0.00    +0.000 A 
ATOM     31  C   UNL     1      -0.198  11.064  20.644  0.00  0.00    +0.000 A 
ATOM     32  C   UNL     1       0.577   9.957  20.292  0.00  0.00    +0.000 A 
ATOM     33  C   UNL     1       0.897   8.981  21.237  0.00  0.00    +0.000 A 
ATOM     34  C   UNL     1       0.430   9.141  22.548  0.00  0.00    +0.000 A 
ATOM     35  C   UNL     1      -0.357  10.251  22.899  0.00  0.00    +0.000 A 
BRANCH  30  37
ATOM     36  C   UNL     1      -0.690  13.470  22.605  0.00  0.00    +0.000 C 
ATOM     37  O   UNL     1      -1.418  12.337  22.154  0.00  0.00    +0.000 OA
ENDBRANCH  30  37
ENDBRANCH  26  33
ENDBRANCH  24  27
ENDBRANCH  22  24
ENDBRANCH   1  22
TORSDOF 11
ENDMDL
MODEL 9
REMARK VINA RESULT:      -6.5      2.990      9.030
REMARK  Name = 
REMARK  15 active torsions:
REMARK  status: ('A' for Active; 'I' for Inactive)
REMARK    1  A    between atoms: C_1  and  O_2
REMARK    2  A    between atoms: O_2  and  C_3
REMARK    3  A    between atoms: C_6  and  N_7
REMARK    4  A    between atoms: C_8  and  C_10
REMARK    5  A    between atoms: C_10  and  C_11
REMARK    6  A    between atoms: C_10  and  N_12
REMARK    7  A    between atoms: N_12  and  C_13
REMARK    8  A    between atoms: C_14  and  N_15
REMARK    9  A    between atoms: C_19  and  C_20
REMARK   10  A    between atoms: N_22  and  C_23
REMARK   11  A    between atoms: C_23  and  C_24
REMARK   12  A    between atoms: C_24  and  N_25
REMARK   13  A    between atoms: N_25  and  C_26
REMARK   14  A    between atoms: N_25  and  C_27
REMARK   15  A    between atoms: C_29  and  N_30
REMARK                            x       y       z     vdW  Elec       q    Type
REMARK                         _______ _______ _______ _____ _____    ______ ____
ROOT
ATOM      1  C   UNL     1      -0.784  11.176  20.600  0.00  0.00    +0.000 A 
ATOM      2  C   UNL     1       0.062  10.253  21.265  0.00  0.00    +0.000 A 
ATOM      3  C   UNL     1       0.979   9.408  20.603  0.00  0.00    +0.000 A 
ATOM      4  C   UNL     1       1.053   9.422  19.216  0.00  0.00    +0.000 A 
ATOM      5  C   UNL     1       0.212  10.269  18.499  0.00  0.00    +0.000 A 
ATOM      6  C   UNL     1      -0.676  11.140  19.172  0.00  0.00    +0.000 A 
ENDROOT
BRANCH   4   7
ATOM      7  C   UNL     1       1.958   8.505  18.475  0.00  0.00    +0.000 C 
ATOM      8  O   UNL     1       2.357   8.817  17.363  0.00  0.00    +0.000 OA
ATOM      9  N   UNL     1       2.296   7.340  19.126  0.00  0.00    +0.000 N 
ATOM     10  H   UNL     1       2.215   7.302  20.134  0.00  0.00    +0.000 HD
BRANCH   9  11
ATOM     11  C   UNL     1       3.247   6.407  18.545  0.00  0.00    +0.000 C 
BRANCH  11  12
ATOM     12  C   UNL     1       3.801   5.409  19.580  0.00  0.00    +0.000 C 
BRANCH  12  13
ATOM     13  N   UNL     1       4.517   4.246  19.000  0.00  0.00    +0.000 NA
ATOM     14  C   UNL     1       4.148   2.989  19.656  0.00  0.00    +0.000 C 
ATOM     15  C   UNL     1       4.200   4.152  17.568  0.00  0.00    +0.000 C 
ENDBRANCH  12  13
ENDBRANCH  11  12
ENDBRANCH   9  11
ENDBRANCH   4   7
BRANCH   2  16
ATOM     16  N   UNL     1       0.012  10.038  22.697  0.00  0.00    +0.000 N 
ATOM     17  O   UNL     1      -1.083  10.160  23.256  0.00  0.00    +0.000 OA
ATOM     18  O   UNL     1       1.068   9.682  23.239  0.00  0.00    +0.000 OA
ENDBRANCH   2  16
BRANCH   6  19
ATOM     19  N   UNL     1      -1.463  12.053  18.310  0.00  0.00    +0.000 N 
ATOM     20  O   UNL     1      -0.868  12.990  17.756  0.00  0.00    +0.000 OA
ATOM     21  O   UNL     1      -2.672  11.825  18.173  0.00  0.00    +0.000 OA
ENDBRANCH   6  19
BRANCH   1  22
ATOM     22  N   UNL     1      -1.777  11.962  21.229  0.00  0.00    +0.000 N 
ATOM     23  H   UNL     1      -2.650  11.932  20.682  0.00  0.00    +0.000 HD
BRANCH  22  24
ATOM     24  C   UNL     1      -1.537  13.364  21.661  0.00  0.00    +0.000 C 
ATOM     25  C   UNL     1      -2.483  14.308  20.921  0.00  0.00    +0.000 C 
BRANCH  24  27
ATOM     26  N   UNL     1       0.147  14.397  20.183  0.00  0.00    +0.000 N 
ATOM     27  C   UNL     1      -0.071  13.767  21.399  0.00  0.00    +0.000 C 
ATOM     28  O   UNL     1       0.783  13.496  22.243  0.00  0.00    +0.000 OA
ATOM     29  H   UNL     1      -0.649  14.522  19.569  0.00  0.00    +0.000 HD
BRANCH  26  33
ATOM     30  C   UNL     1       3.812  15.972  18.772  0.00  0.00    +0.000 A 
ATOM     31  C   UNL     1       3.505  14.634  18.550  0.00  0.00    +0.000 A 
ATOM     32  C   UNL     1       2.298  14.097  19.002  0.00  0.00    +0.000 A 
ATOM     33  C   UNL     1       1.383  14.886  19.699  0.00  0.00    +0.000 A 
ATOM     34  C   UNL     1       1.706  16.228  19.943  0.00  0.00    +0.000 A 
ATOM     35  C   UNL     1       2.918  16.770  19.480  0.00  0.00    +0.000 A 
BRANCH  30  37
ATOM     36  C   UNL     1       5.819  17.146  19.172  0.00  0.00    +0.000 C 
ATOM     37  O   UNL     1       5.026  16.368  18.287  0.00  0.00    +0.000 OA
ENDBRANCH  30  37
ENDBRANCH  26  33
ENDBRANCH  24  27
ENDBRANCH  22  24
ENDBRANCH   1  22
TORSDOF 11
ENDMDL
