MODEL 1
REMARK VINA RESULT:      -7.3      0.000      0.000
REMARK  Name = 
REMARK  6 active torsions:
REMARK  status: ('A' for Active; 'I' for Inactive)
REMARK    1  A    between atoms: C_11  and  C_12
REMARK    2  A    between atoms: C_11  and  C_17
REMARK    3  A    between atoms: C_13  and  C_14
REMARK    4  A    between atoms: C_21  and  O_22
REMARK    5  A    between atoms: O_22  and  C_23
REMARK    6  A    between atoms: C_23  and  C_24
REMARK                            x       y       z     vdW  Elec       q    Type
REMARK                         _______ _______ _______ _____ _____    ______ ____
ROOT
ATOM      1  O   UNL     1       2.831   9.272  17.499  0.00  0.00    +0.000 OA
ATOM      2  C   UNL     1       1.755   9.471  18.080  0.00  0.00    +0.000 C 
ATOM      3  N   UNL     1       0.584   9.545  17.392  0.00  0.00    +0.000 N 
ATOM      4  C   UNL     1      -0.596  10.047  17.948  0.00  0.00    +0.000 A 
ATOM      5  C   UNL     1      -1.750  10.069  17.166  0.00  0.00    +0.000 A 
ATOM      6  C   UNL     1      -2.907  10.683  17.646  0.00  0.00    +0.000 A 
ATOM      7  C   UNL     1      -2.887  11.305  18.893  0.00  0.00    +0.000 A 
ATOM      8 CL   UNL     1      -4.295  12.109  19.468  0.00  0.00    +0.000 Cl
ATOM      9  C   UNL     1      -1.739  11.286  19.669  0.00  0.00    +0.000 A 
ATOM     10  C   UNL     1      -0.579  10.608  19.232  0.00  0.00    +0.000 A 
ATOM     11  C   UNL     1       0.680  10.527  20.101  0.00  0.00    +0.000 C 
ATOM     12  C   UNL     1       1.640   9.424  19.593  0.00  0.00    +0.000 C 
ATOM     13  H   UNL     1       0.631   9.342  16.404  0.00  0.00    +0.000 HD
ENDROOT
BRANCH  11  14
ATOM     14  C   UNL     1       0.328  10.192  21.589  0.00  0.00    +0.000 C 
ATOM     15  F   UNL     1      -0.112  11.270  22.288  0.00  0.00    +0.000 F 
ATOM     16  F   UNL     1      -0.630   9.248  21.736  0.00  0.00    +0.000 F 
ATOM     17  F   UNL     1       1.396   9.722  22.282  0.00  0.00    +0.000 F 
ENDBRANCH  11  14
BRANCH  11  18
ATOM     18  C   UNL     1       1.377  11.857  20.022  0.00  0.00    +0.000 C 
ATOM     19  C   UNL     1       1.924  12.917  19.891  0.00  0.00    +0.000 C 
BRANCH  19  20
ATOM     20  C   UNL     1       2.525  14.197  19.630  0.00  0.00    +0.000 C 
ATOM     21  C   UNL     1       3.248  14.488  18.342  0.00  0.00    +0.000 C 
ATOM     22  C   UNL     1       1.872  15.041  18.562  0.00  0.00    +0.000 C 
ENDBRANCH  19  20
ENDBRANCH  11  18
BRANCH  12  23
ATOM     23  O   UNL     1       1.125   8.117  19.911  0.00  0.00    +0.000 OA
BRANCH  23  24
ATOM     24  C   UNL     1       2.123   7.203  20.371  0.00  0.00    +0.000 C 
BRANCH  24  25
ATOM     25  C   UNL     1       1.818   5.858  19.786  0.00  0.00    +0.000 A 
ATOM     26  C   UNL     1       1.150   4.887  20.544  0.00  0.00    +0.000 A 
ATOM     27  C   UNL     1       0.905   3.619  20.011  0.00  0.00    +0.000 A 
ATOM     28  C   UNL     1       1.314   3.313  18.713  0.00  0.00    +0.000 A 
ATOM     29  C   UNL     1       1.956   4.281  17.943  0.00  0.00    +0.000 A 
ATOM     30  C   UNL     1       2.203   5.541  18.482  0.00  0.00    +0.000 A 
ATOM     31  F   UNL     1       2.829   6.453  17.723  0.00  0.00    +0.000 F 
ENDBRANCH  24  25
ENDBRANCH  23  24
ENDBRANCH  12  23
TORSDOF 6
ENDMDL
MODEL 2
REMARK VINA RESULT:      -6.9      0.892      1.432
REMARK  Name = 
REMARK  6 active torsions:
REMARK  status: ('A' for Active; 'I' for Inactive)
REMARK    1  A    between atoms: C_11  and  C_12
REMARK    2  A    between atoms: C_11  and  C_17
REMARK    3  A    between atoms: C_13  and  C_14
REMARK    4  A    between atoms: C_21  and  O_22
REMARK    5  A    between atoms: O_22  and  C_23
REMARK    6  A    between atoms: C_23  and  C_24
REMARK                            x       y       z     vdW  Elec       q    Type
REMARK                         _______ _______ _______ _____ _____    ______ ____
ROOT
ATOM      1  O   UNL     1       2.834   9.209  17.439  0.00  0.00    +0.000 OA
ATOM      2  C   UNL     1       1.759   9.418  18.018  0.00  0.00    +0.000 C 
ATOM      3  N   UNL     1       0.584   9.452  17.334  0.00  0.00    +0.000 N 
ATOM      4  C   UNL     1      -0.599   9.962  17.877  0.00  0.00    +0.000 A 
ATOM      5  C   UNL     1      -1.757   9.941  17.101  0.00  0.00    +0.000 A 
ATOM      6  C   UNL     1      -2.918  10.560  17.564  0.00  0.00    +0.000 A 
ATOM      7  C   UNL     1      -2.900  11.227  18.786  0.00  0.00    +0.000 A 
ATOM      8 CL   UNL     1      -4.314  12.037  19.339  0.00  0.00    +0.000 Cl
ATOM      9  C   UNL     1      -1.748  11.251  19.557  0.00  0.00    +0.000 A 
ATOM     10  C   UNL     1      -0.583  10.569  19.140  0.00  0.00    +0.000 A 
ATOM     11  C   UNL     1       0.681  10.535  20.005  0.00  0.00    +0.000 C 
ATOM     12  C   UNL     1       1.652   9.425  19.533  0.00  0.00    +0.000 C 
ATOM     13  H   UNL     1       0.629   9.213  16.354  0.00  0.00    +0.000 HD
ENDROOT
BRANCH  11  14
ATOM     14  C   UNL     1       0.340  10.252  21.506  0.00  0.00    +0.000 C 
ATOM     15  F   UNL     1       1.398   9.776  22.212  0.00  0.00    +0.000 F 
ATOM     16  F   UNL     1      -0.098  11.332  22.191  0.00  0.00    +0.000 F 
ATOM     17  F   UNL     1      -0.639   9.323  21.649  0.00  0.00    +0.000 F 
ENDBRANCH  11  14
BRANCH  11  18
ATOM     18  C   UNL     1       1.363  11.869  19.872  0.00  0.00    +0.000 C 
ATOM     19  C   UNL     1       1.875  12.942  19.707  0.00  0.00    +0.000 C 
BRANCH  19  20
ATOM     20  C   UNL     1       2.402  14.252  19.432  0.00  0.00    +0.000 C 
ATOM     21  C   UNL     1       3.850  14.592  19.671  0.00  0.00    +0.000 C 
ATOM     22  C   UNL     1       3.362  14.359  18.272  0.00  0.00    +0.000 C 
ENDBRANCH  19  20
ENDBRANCH  11  18
BRANCH  12  23
ATOM     23  O   UNL     1       1.154   8.125  19.901  0.00  0.00    +0.000 OA
BRANCH  23  24
ATOM     24  C   UNL     1       2.171   7.227  20.350  0.00  0.00    +0.000 C 
BRANCH  24  25
ATOM     25  C   UNL     1       1.960   5.914  19.659  0.00  0.00    +0.000 A 
ATOM     26  C   UNL     1       1.867   5.851  18.262  0.00  0.00    +0.000 A 
ATOM     27  C   UNL     1       1.627   4.633  17.623  0.00  0.00    +0.000 A 
ATOM     28  C   UNL     1       1.490   3.464  18.372  0.00  0.00    +0.000 A 
ATOM     29  C   UNL     1       1.606   3.513  19.760  0.00  0.00    +0.000 A 
ATOM     30  C   UNL     1       1.839   4.731  20.391  0.00  0.00    +0.000 A 
ATOM     31  F   UNL     1       1.940   4.753  21.728  0.00  0.00    +0.000 F 
ENDBRANCH  24  25
ENDBRANCH  23  24
ENDBRANCH  12  23
TORSDOF 6
ENDMDL
MODEL 3
REMARK VINA RESULT:      -6.9      0.932      1.474
REMARK  Name = 
REMARK  6 active torsions:
REMARK  status: ('A' for Active; 'I' for Inactive)
REMARK    1  A    between atoms: C_11  and  C_12
REMARK    2  A    between atoms: C_11  and  C_17
REMARK    3  A    between atoms: C_13  and  C_14
REMARK    4  A    between atoms: C_21  and  O_22
REMARK    5  A    between atoms: O_22  and  C_23
REMARK    6  A    between atoms: C_23  and  C_24
REMARK                            x       y       z     vdW  Elec       q    Type
REMARK                         _______ _______ _______ _____ _____    ______ ____
ROOT
ATOM      1  O   UNL     1       2.564   9.315  17.446  0.00  0.00    +0.000 OA
ATOM      2  C   UNL     1       1.524   9.558  18.074  0.00  0.00    +0.000 C 
ATOM      3  N   UNL     1       0.326   9.668  17.440  0.00  0.00    +0.000 N 
ATOM      4  C   UNL     1      -0.808  10.218  18.045  0.00  0.00    +0.000 A 
ATOM      5  C   UNL     1      -1.996  10.275  17.317  0.00  0.00    +0.000 A 
ATOM      6  C   UNL     1      -3.106  10.935  17.843  0.00  0.00    +0.000 A 
ATOM      7  C   UNL     1      -3.007  11.565  19.082  0.00  0.00    +0.000 A 
ATOM      8 CL   UNL     1      -4.357  12.424  19.714  0.00  0.00    +0.000 Cl
ATOM      9  C   UNL     1      -1.825  11.510  19.805  0.00  0.00    +0.000 A 
ATOM     10  C   UNL     1      -0.712  10.787  19.322  0.00  0.00    +0.000 A 
ATOM     11  C   UNL     1       0.582  10.667  20.133  0.00  0.00    +0.000 C 
ATOM     12  C   UNL     1       1.477   9.526  19.591  0.00  0.00    +0.000 C 
ATOM     13  H   UNL     1       0.320   9.456  16.453  0.00  0.00    +0.000 HD
ENDROOT
BRANCH  11  14
ATOM     14  C   UNL     1       0.287  10.356  21.638  0.00  0.00    +0.000 C 
ATOM     15  F   UNL     1      -0.694   9.432  21.809  0.00  0.00    +0.000 F 
ATOM     16  F   UNL     1       1.351   9.889  22.330  0.00  0.00    +0.000 F 
ATOM     17  F   UNL     1      -0.126  11.454  22.323  0.00  0.00    +0.000 F 
ENDBRANCH  11  14
BRANCH  11  18
ATOM     18  C   UNL     1       1.322  11.970  20.009  0.00  0.00    +0.000 C 
ATOM     19  C   UNL     1       1.891  13.026  19.973  0.00  0.00    +0.000 C 
BRANCH  19  20
ATOM     20  C   UNL     1       2.565  14.295  20.046  0.00  0.00    +0.000 C 
ATOM     21  C   UNL     1       3.796  14.589  19.231  0.00  0.00    +0.000 C 
ATOM     22  C   UNL     1       2.477  15.172  18.821  0.00  0.00    +0.000 C 
ENDBRANCH  19  20
ENDBRANCH  11  18
BRANCH  12  23
ATOM     23  O   UNL     1       0.931   8.241  19.944  0.00  0.00    +0.000 OA
BRANCH  23  24
ATOM     24  C   UNL     1       1.867   7.378  20.594  0.00  0.00    +0.000 C 
BRANCH  24  25
ATOM     25  C   UNL     1       2.185   6.256  19.654  0.00  0.00    +0.000 A 
ATOM     26  C   UNL     1       3.131   6.428  18.634  0.00  0.00    +0.000 A 
ATOM     27  C   UNL     1       3.395   5.395  17.732  0.00  0.00    +0.000 A 
ATOM     28  C   UNL     1       2.725   4.177  17.847  0.00  0.00    +0.000 A 
ATOM     29  C   UNL     1       1.802   3.988  18.873  0.00  0.00    +0.000 A 
ATOM     30  C   UNL     1       1.539   5.023  19.765  0.00  0.00    +0.000 A 
ATOM     31  F   UNL     1       0.641   4.819  20.740  0.00  0.00    +0.000 F 
ENDBRANCH  24  25
ENDBRANCH  23  24
ENDBRANCH  12  23
TORSDOF 6
ENDMDL
MODEL 4
REMARK VINA RESULT:      -6.9      3.904      6.783
REMARK  Name = 
REMARK  6 active torsions:
REMARK  status: ('A' for Active; 'I' for Inactive)
REMARK    1  A    between atoms: C_11  and  C_12
REMARK    2  A    between atoms: C_11  and  C_17
REMARK    3  A    between atoms: C_13  and  C_14
REMARK    4  A    between atoms: C_21  and  O_22
REMARK    5  A    between atoms: O_22  and  C_23
REMARK    6  A    between atoms: C_23  and  C_24
REMARK                            x       y       z     vdW  Elec       q    Type
REMARK                         _______ _______ _______ _____ _____    ______ ____
ROOT
ATOM      1  O   UNL     1      -1.731  14.591  21.681  0.00  0.00    +0.000 OA
ATOM      2  C   UNL     1      -1.557  13.406  21.362  0.00  0.00    +0.000 C 
ATOM      3  N   UNL     1      -1.231  12.467  22.289  0.00  0.00    +0.000 N 
ATOM      4  C   UNL     1      -0.747  11.200  21.952  0.00  0.00    +0.000 A 
ATOM      5  C   UNL     1      -0.454  10.299  22.975  0.00  0.00    +0.000 A 
ATOM      6  C   UNL     1       0.153   9.079  22.678  0.00  0.00    +0.000 A 
ATOM      7  C   UNL     1       0.495   8.785  21.360  0.00  0.00    +0.000 A 
ATOM      8 CL   UNL     1       1.291   7.304  20.994  0.00  0.00    +0.000 Cl
ATOM      9  C   UNL     1       0.207   9.682  20.343  0.00  0.00    +0.000 A 
ATOM     10  C   UNL     1      -0.472  10.891  20.613  0.00  0.00    +0.000 A 
ATOM     11  C   UNL     1      -0.851  11.867  19.495  0.00  0.00    +0.000 C 
ATOM     12  C   UNL     1      -1.909  12.888  19.979  0.00  0.00    +0.000 C 
ATOM     13  H   UNL     1      -1.226  12.770  23.253  0.00  0.00    +0.000 HD
ENDROOT
BRANCH  11  14
ATOM     14  C   UNL     1      -1.455  11.117  18.261  0.00  0.00    +0.000 C 
ATOM     15  F   UNL     1      -2.393  10.197  18.604  0.00  0.00    +0.000 F 
ATOM     16  F   UNL     1      -2.051  11.924  17.355  0.00  0.00    +0.000 F 
ATOM     17  F   UNL     1      -0.515  10.432  17.560  0.00  0.00    +0.000 F 
ENDBRANCH  11  14
BRANCH  11  18
ATOM     18  C   UNL     1       0.395  12.607  19.091  0.00  0.00    +0.000 C 
ATOM     19  C   UNL     1       1.378  13.177  18.705  0.00  0.00    +0.000 C 
BRANCH  19  20
ATOM     20  C   UNL     1       2.511  13.854  18.135  0.00  0.00    +0.000 C 
ATOM     21  C   UNL     1       2.635  15.354  18.158  0.00  0.00    +0.000 C 
ATOM     22  C   UNL     1       3.450  14.527  19.107  0.00  0.00    +0.000 C 
ENDBRANCH  19  20
ENDBRANCH  11  18
BRANCH  12  23
ATOM     23  O   UNL     1      -3.199  12.261  20.107  0.00  0.00    +0.000 OA
BRANCH  23  24
ATOM     24  C   UNL     1      -4.286  13.188  20.148  0.00  0.00    +0.000 C 
BRANCH  24  25
ATOM     25  C   UNL     1      -5.546  12.407  20.365  0.00  0.00    +0.000 A 
ATOM     26  C   UNL     1      -6.321  12.610  21.515  0.00  0.00    +0.000 A 
ATOM     27  C   UNL     1      -7.471  11.850  21.736  0.00  0.00    +0.000 A 
ATOM     28  C   UNL     1      -7.865  10.888  20.806  0.00  0.00    +0.000 A 
ATOM     29  C   UNL     1      -7.115  10.696  19.647  0.00  0.00    +0.000 A 
ATOM     30  C   UNL     1      -5.966  11.453  19.436  0.00  0.00    +0.000 A 
ATOM     31  F   UNL     1      -5.258  11.245  18.316  0.00  0.00    +0.000 F 
ENDBRANCH  24  25
ENDBRANCH  23  24
ENDBRANCH  12  23
TORSDOF 6
ENDMDL
MODEL 5
REMARK VINA RESULT:      -6.7      3.768      6.846
REMARK  Name = 
REMARK  6 active torsions:
REMARK  status: ('A' for Active; 'I' for Inactive)
REMARK    1  A    between atoms: C_11  and  C_12
REMARK    2  A    between atoms: C_11  and  C_17
REMARK    3  A    between atoms: C_13  and  C_14
REMARK    4  A    between atoms: C_21  and  O_22
REMARK    5  A    between atoms: O_22  and  C_23
REMARK    6  A    between atoms: C_23  and  C_24
REMARK                            x       y       z     vdW  Elec       q    Type
REMARK                         _______ _______ _______ _____ _____    ______ ____
ROOT
ATOM      1  O   UNL     1       1.818   9.694  17.925  0.00  0.00    +0.000 OA
ATOM      2  C   UNL     1       1.269  10.374  18.803  0.00  0.00    +0.000 C 
ATOM      3  N   UNL     1       1.051   9.876  20.049  0.00  0.00    +0.000 N 
ATOM      4  C   UNL     1       0.193  10.480  20.972  0.00  0.00    +0.000 A 
ATOM      5  C   UNL     1       0.046   9.901  22.232  0.00  0.00    +0.000 A 
ATOM      6  C   UNL     1      -0.900  10.403  23.125  0.00  0.00    +0.000 A 
ATOM      7  C   UNL     1      -1.718  11.462  22.736  0.00  0.00    +0.000 A 
ATOM      8 CL   UNL     1      -2.921  12.053  23.814  0.00  0.00    +0.000 Cl
ATOM      9  C   UNL     1      -1.573  12.037  21.482  0.00  0.00    +0.000 A 
ATOM     10  C   UNL     1      -0.574  11.590  20.590  0.00  0.00    +0.000 A 
ATOM     11  C   UNL     1      -0.361  12.251  19.225  0.00  0.00    +0.000 C 
ATOM     12  C   UNL     1       1.010  11.859  18.622  0.00  0.00    +0.000 C 
ATOM     13  H   UNL     1       1.437   8.963  20.241  0.00  0.00    +0.000 HD
ENDROOT
BRANCH  11  14
ATOM     14  C   UNL     1      -0.397  13.812  19.333  0.00  0.00    +0.000 C 
ATOM     15  F   UNL     1       0.317  14.289  20.385  0.00  0.00    +0.000 F 
ATOM     16  F   UNL     1       0.082  14.457  18.245  0.00  0.00    +0.000 F 
ATOM     17  F   UNL     1      -1.656  14.291  19.501  0.00  0.00    +0.000 F 
ENDBRANCH  11  14
BRANCH  11  18
ATOM     18  C   UNL     1      -1.453  11.770  18.308  0.00  0.00    +0.000 C 
ATOM     19  C   UNL     1      -2.346  11.452  17.573  0.00  0.00    +0.000 C 
BRANCH  19  20
ATOM     20  C   UNL     1      -3.422  11.182  16.658  0.00  0.00    +0.000 C 
ATOM     21  C   UNL     1      -3.173  10.887  15.202  0.00  0.00    +0.000 C 
ATOM     22  C   UNL     1      -3.522   9.768  16.138  0.00  0.00    +0.000 C 
ENDBRANCH  19  20
ENDBRANCH  11  18
BRANCH  12  23
ATOM     23  O   UNL     1       2.079  12.536  19.310  0.00  0.00    +0.000 OA
BRANCH  23  24
ATOM     24  C   UNL     1       3.041  13.129  18.435  0.00  0.00    +0.000 C 
BRANCH  24  25
ATOM     25  C   UNL     1       3.419  14.461  19.006  0.00  0.00    +0.000 A 
ATOM     26  C   UNL     1       3.604  14.618  20.387  0.00  0.00    +0.000 A 
ATOM     27  C   UNL     1       3.914  15.870  20.921  0.00  0.00    +0.000 A 
ATOM     28  C   UNL     1       4.055  16.975  20.081  0.00  0.00    +0.000 A 
ATOM     29  C   UNL     1       3.898  16.824  18.705  0.00  0.00    +0.000 A 
ATOM     30  C   UNL     1       3.583  15.574  18.179  0.00  0.00    +0.000 A 
ATOM     31  F   UNL     1       3.431  15.456  16.852  0.00  0.00    +0.000 F 
ENDBRANCH  24  25
ENDBRANCH  23  24
ENDBRANCH  12  23
TORSDOF 6
ENDMDL
MODEL 6
REMARK VINA RESULT:      -6.7      3.473      7.012
REMARK  Name = 
REMARK  6 active torsions:
REMARK  status: ('A' for Active; 'I' for Inactive)
REMARK    1  A    between atoms: C_11  and  C_12
REMARK    2  A    between atoms: C_11  and  C_17
REMARK    3  A    between atoms: C_13  and  C_14
REMARK    4  A    between atoms: C_21  and  O_22
REMARK    5  A    between atoms: O_22  and  C_23
REMARK    6  A    between atoms: C_23  and  C_24
REMARK                            x       y       z     vdW  Elec       q    Type
REMARK                         _______ _______ _______ _____ _____    ______ ____
ROOT
ATOM      1  O   UNL     1      -2.259  11.795  17.256  0.00  0.00    +0.000 OA
ATOM      2  C   UNL     1      -1.463  12.175  18.126  0.00  0.00    +0.000 C 
ATOM      3  N   UNL     1      -0.717  13.299  17.959  0.00  0.00    +0.000 N 
ATOM      4  C   UNL     1       0.385  13.609  18.761  0.00  0.00    +0.000 A 
ATOM      5  C   UNL     1       1.080  14.794  18.519  0.00  0.00    +0.000 A 
ATOM      6  C   UNL     1       2.258  15.066  19.214  0.00  0.00    +0.000 A 
ATOM      7  C   UNL     1       2.753  14.131  20.120  0.00  0.00    +0.000 A 
ATOM      8 CL   UNL     1       4.232  14.437  20.942  0.00  0.00    +0.000 Cl
ATOM      9  C   UNL     1       2.064  12.951  20.359  0.00  0.00    +0.000 A 
ATOM     10  C   UNL     1       0.832  12.689  19.719  0.00  0.00    +0.000 A 
ATOM     11  C   UNL     1       0.028  11.418  20.013  0.00  0.00    +0.000 C 
ATOM     12  C   UNL     1      -1.430  11.550  19.510  0.00  0.00    +0.000 C 
ATOM     13  H   UNL     1      -0.911  13.848  17.133  0.00  0.00    +0.000 HD
ENDROOT
BRANCH  11  14
ATOM     14  C   UNL     1      -0.031  11.122  21.549  0.00  0.00    +0.000 C 
ATOM     15  F   UNL     1       1.050  10.435  22.001  0.00  0.00    +0.000 F 
ATOM     16  F   UNL     1      -0.113  12.225  22.327  0.00  0.00    +0.000 F 
ATOM     17  F   UNL     1      -1.108  10.368  21.890  0.00  0.00    +0.000 F 
ENDBRANCH  11  14
BRANCH  11  18
ATOM     18  C   UNL     1       0.693  10.278  19.292  0.00  0.00    +0.000 C 
ATOM     19  C   UNL     1       1.186   9.384  18.661  0.00  0.00    +0.000 C 
BRANCH  19  20
ATOM     20  C   UNL     1       1.739   8.366  17.809  0.00  0.00    +0.000 C 
ATOM     21  C   UNL     1       3.221   8.120  17.723  0.00  0.00    +0.000 C 
ATOM     22  C   UNL     1       2.356   7.174  18.500  0.00  0.00    +0.000 C 
ENDBRANCH  19  20
ENDBRANCH  11  18
BRANCH  12  23
ATOM     23  O   UNL     1      -2.183  12.433  20.362  0.00  0.00    +0.000 OA
BRANCH  23  24
ATOM     24  C   UNL     1      -3.587  12.432  20.092  0.00  0.00    +0.000 C 
BRANCH  24  25
ATOM     25  C   UNL     1      -4.303  12.628  21.394  0.00  0.00    +0.000 A 
ATOM     26  C   UNL     1      -3.585  12.755  22.590  0.00  0.00    +0.000 A 
ATOM     27  C   UNL     1      -4.256  12.895  23.807  0.00  0.00    +0.000 A 
ATOM     28  C   UNL     1      -5.650  12.921  23.839  0.00  0.00    +0.000 A 
ATOM     29  C   UNL     1      -6.373  12.821  22.652  0.00  0.00    +0.000 A 
ATOM     30  C   UNL     1      -5.698  12.676  21.443  0.00  0.00    +0.000 A 
ATOM     31  F   UNL     1      -6.416  12.576  20.315  0.00  0.00    +0.000 F 
ENDBRANCH  24  25
ENDBRANCH  23  24
ENDBRANCH  12  23
TORSDOF 6
ENDMDL
MODEL 7
REMARK VINA RESULT:      -6.7      4.099      7.267
REMARK  Name = 
REMARK  6 active torsions:
REMARK  status: ('A' for Active; 'I' for Inactive)
REMARK    1  A    between atoms: C_11  and  C_12
REMARK    2  A    between atoms: C_11  and  C_17
REMARK    3  A    between atoms: C_13  and  C_14
REMARK    4  A    between atoms: C_21  and  O_22
REMARK    5  A    between atoms: O_22  and  C_23
REMARK    6  A    between atoms: C_23  and  C_24
REMARK                            x       y       z     vdW  Elec       q    Type
REMARK                         _______ _______ _______ _____ _____    ______ ____
ROOT
ATOM      1  O   UNL     1      -2.415  14.637  22.060  0.00  0.00    +0.000 OA
ATOM      2  C   UNL     1      -2.129  13.488  21.695  0.00  0.00    +0.000 C 
ATOM      3  N   UNL     1      -1.725  12.545  22.587  0.00  0.00    +0.000 N 
ATOM      4  C   UNL     1      -1.122  11.343  22.204  0.00  0.00    +0.000 A 
ATOM      5  C   UNL     1      -0.755  10.431  23.193  0.00  0.00    +0.000 A 
ATOM      6  C   UNL     1      -0.035   9.286  22.854  0.00  0.00    +0.000 A 
ATOM      7  C   UNL     1       0.345   9.081  21.530  0.00  0.00    +0.000 A 
ATOM      8 CL   UNL     1       1.278   7.697  21.113  0.00  0.00    +0.000 Cl
ATOM      9  C   UNL     1      -0.018   9.989  20.546  0.00  0.00    +0.000 A 
ATOM     10  C   UNL     1      -0.808  11.117  20.857  0.00  0.00    +0.000 A 
ATOM     11  C   UNL     1      -1.267  12.100  19.775  0.00  0.00    +0.000 C 
ATOM     12  C   UNL     1      -2.419  12.998  20.288  0.00  0.00    +0.000 C 
ATOM     13  H   UNL     1      -1.757  12.806  23.562  0.00  0.00    +0.000 HD
ENDROOT
BRANCH  11  14
ATOM     14  C   UNL     1      -1.787  11.349  18.504  0.00  0.00    +0.000 C 
ATOM     15  F   UNL     1      -2.509  10.238  18.801  0.00  0.00    +0.000 F 
ATOM     16  F   UNL     1      -2.581  12.095  17.703  0.00  0.00    +0.000 F 
ATOM     17  F   UNL     1      -0.777  10.924  17.703  0.00  0.00    +0.000 F 
ENDBRANCH  11  14
BRANCH  11  18
ATOM     18  C   UNL     1      -0.092  12.969  19.418  0.00  0.00    +0.000 C 
ATOM     19  C   UNL     1       0.838  13.693  19.193  0.00  0.00    +0.000 C 
BRANCH  19  20
ATOM     20  C   UNL     1       1.958  14.582  19.039  0.00  0.00    +0.000 C 
ATOM     21  C   UNL     1       3.220  14.418  19.844  0.00  0.00    +0.000 C 
ATOM     22  C   UNL     1       3.197  13.995  18.406  0.00  0.00    +0.000 C 
ENDBRANCH  19  20
ENDBRANCH  11  18
BRANCH  12  23
ATOM     23  O   UNL     1      -3.646  12.249  20.374  0.00  0.00    +0.000 OA
BRANCH  23  24
ATOM     24  C   UNL     1      -4.817  13.039  20.158  0.00  0.00    +0.000 C 
BRANCH  24  25
ATOM     25  C   UNL     1      -5.880  12.548  21.093  0.00  0.00    +0.000 A 
ATOM     26  C   UNL     1      -6.814  11.592  20.670  0.00  0.00    +0.000 A 
ATOM     27  C   UNL     1      -7.830  11.167  21.529  0.00  0.00    +0.000 A 
ATOM     28  C   UNL     1      -7.916  11.684  22.821  0.00  0.00    +0.000 A 
ATOM     29  C   UNL     1      -6.978  12.616  23.260  0.00  0.00    +0.000 A 
ATOM     30  C   UNL     1      -5.971  13.040  22.396  0.00  0.00    +0.000 A 
ATOM     31  F   UNL     1      -5.083  13.942  22.839  0.00  0.00    +0.000 F 
ENDBRANCH  24  25
ENDBRANCH  23  24
ENDBRANCH  12  23
TORSDOF 6
ENDMDL
MODEL 8
REMARK VINA RESULT:      -6.7      2.588      4.554
REMARK  Name = 
REMARK  6 active torsions:
REMARK  status: ('A' for Active; 'I' for Inactive)
REMARK    1  A    between atoms: C_11  and  C_12
REMARK    2  A    between atoms: C_11  and  C_17
REMARK    3  A    between atoms: C_13  and  C_14
REMARK    4  A    between atoms: C_21  and  O_22
REMARK    5  A    between atoms: O_22  and  C_23
REMARK    6  A    between atoms: C_23  and  C_24
REMARK                            x       y       z     vdW  Elec       q    Type
REMARK                         _______ _______ _______ _____ _____    ______ ____
ROOT
ATOM      1  O   UNL     1      -0.958   8.526  21.929  0.00  0.00    +0.000 OA
ATOM      2  C   UNL     1      -0.130   9.163  21.261  0.00  0.00    +0.000 C 
ATOM      3  N   UNL     1       0.349  10.362  21.688  0.00  0.00    +0.000 N 
ATOM      4  C   UNL     1       1.046  11.243  20.857  0.00  0.00    +0.000 A 
ATOM      5  C   UNL     1       1.510  12.444  21.391  0.00  0.00    +0.000 A 
ATOM      6  C   UNL     1       2.092  13.400  20.559  0.00  0.00    +0.000 A 
ATOM      7  C   UNL     1       2.172  13.160  19.189  0.00  0.00    +0.000 A 
ATOM      8 CL   UNL     1       2.841  14.356  18.150  0.00  0.00    +0.000 Cl
ATOM      9  C   UNL     1       1.707  11.966  18.656  0.00  0.00    +0.000 A 
ATOM     10  C   UNL     1       1.181  10.957  19.492  0.00  0.00    +0.000 A 
ATOM     11  C   UNL     1       0.717   9.609  18.929  0.00  0.00    +0.000 C 
ATOM     12  C   UNL     1       0.563   8.557  20.054  0.00  0.00    +0.000 C 
ATOM     13  H   UNL     1       0.062  10.656  22.610  0.00  0.00    +0.000 HD
ENDROOT
BRANCH  11  14
ATOM     14  C   UNL     1       1.740   9.040  17.891  0.00  0.00    +0.000 C 
ATOM     15  F   UNL     1       3.005   8.961  18.379  0.00  0.00    +0.000 F 
ATOM     16  F   UNL     1       1.446   7.799  17.442  0.00  0.00    +0.000 F 
ATOM     17  F   UNL     1       1.829   9.808  16.775  0.00  0.00    +0.000 F 
ENDBRANCH  11  14
BRANCH  11  18
ATOM     18  C   UNL     1      -0.620   9.823  18.273  0.00  0.00    +0.000 C 
ATOM     19  C   UNL     1      -1.658   9.976  17.690  0.00  0.00    +0.000 C 
BRANCH  19  20
ATOM     20  C   UNL     1      -2.858  10.092  16.907  0.00  0.00    +0.000 C 
ATOM     21  C   UNL     1      -2.994  11.114  15.809  0.00  0.00    +0.000 C 
ATOM     22  C   UNL     1      -2.757   9.675  15.459  0.00  0.00    +0.000 C 
ENDBRANCH  19  20
ENDBRANCH  11  18
BRANCH  12  23
ATOM     23  O   UNL     1       1.853   8.116  20.517  0.00  0.00    +0.000 OA
BRANCH  23  24
ATOM     24  C   UNL     1       1.849   6.791  21.053  0.00  0.00    +0.000 C 
BRANCH  24  25
ATOM     25  C   UNL     1       2.281   5.856  19.965  0.00  0.00    +0.000 A 
ATOM     26  C   UNL     1       3.441   6.115  19.221  0.00  0.00    +0.000 A 
ATOM     27  C   UNL     1       3.818   5.266  18.179  0.00  0.00    +0.000 A 
ATOM     28  C   UNL     1       3.047   4.143  17.877  0.00  0.00    +0.000 A 
ATOM     29  C   UNL     1       1.906   3.863  18.627  0.00  0.00    +0.000 A 
ATOM     30  C   UNL     1       1.533   4.717  19.661  0.00  0.00    +0.000 A 
ATOM     31  F   UNL     1       0.427   4.430  20.364  0.00  0.00    +0.000 F 
ENDBRANCH  24  25
ENDBRANCH  23  24
ENDBRANCH  12  23
TORSDOF 6
ENDMDL
MODEL 9
REMARK VINA RESULT:      -6.6      3.130      5.387
REMARK  Name = 
REMARK  6 active torsions:
REMARK  status: ('A' for Active; 'I' for Inactive)
REMARK    1  A    between atoms: C_11  and  C_12
REMARK    2  A    between atoms: C_11  and  C_17
REMARK    3  A    between atoms: C_13  and  C_14
REMARK    4  A    between atoms: C_21  and  O_22
REMARK    5  A    between atoms: O_22  and  C_23
REMARK    6  A    between atoms: C_23  and  C_24
REMARK                            x       y       z     vdW  Elec       q    Type
REMARK                         _______ _______ _______ _____ _____    ______ ____
ROOT
ATOM      1  O   UNL     1      -1.209  10.998  23.329  0.00  0.00    +0.000 OA
ATOM      2  C   UNL     1      -0.871  11.652  22.333  0.00  0.00    +0.000 C 
ATOM      3  N   UNL     1      -0.206  12.831  22.454  0.00  0.00    +0.000 N 
ATOM      4  C   UNL     1      -0.060  13.736  21.400  0.00  0.00    +0.000 A 
ATOM      5  C   UNL     1       0.652  14.915  21.619  0.00  0.00    +0.000 A 
ATOM      6  C   UNL     1       0.702  15.895  20.628  0.00  0.00    +0.000 A 
ATOM      7  C   UNL     1       0.007  15.703  19.436  0.00  0.00    +0.000 A 
ATOM      8 CL   UNL     1       0.023  16.930  18.231  0.00  0.00    +0.000 Cl
ATOM      9  C   UNL     1      -0.704  14.532  19.218  0.00  0.00    +0.000 A 
ATOM     10  C   UNL     1      -0.708  13.497  20.180  0.00  0.00    +0.000 A 
ATOM     11  C   UNL     1      -1.439  12.174  19.932  0.00  0.00    +0.000 C 
ATOM     12  C   UNL     1      -0.974  11.084  20.928  0.00  0.00    +0.000 C 
ATOM     13  H   UNL     1       0.071  13.096  23.389  0.00  0.00    +0.000 HD
ENDROOT
BRANCH  11  14
ATOM     14  C   UNL     1      -1.172  11.634  18.488  0.00  0.00    +0.000 C 
ATOM     15  F   UNL     1      -1.372  10.295  18.375  0.00  0.00    +0.000 F 
ATOM     16  F   UNL     1      -1.941  12.199  17.530  0.00  0.00    +0.000 F 
ATOM     17  F   UNL     1       0.107  11.845  18.084  0.00  0.00    +0.000 F 
ENDBRANCH  11  14
BRANCH  11  18
ATOM     18  C   UNL     1      -2.910  12.420  20.129  0.00  0.00    +0.000 C 
ATOM     19  C   UNL     1      -4.084  12.647  20.225  0.00  0.00    +0.000 C 
BRANCH  19  20
ATOM     20  C   UNL     1      -5.493  12.934  20.224  0.00  0.00    +0.000 C 
ATOM     21  C   UNL     1      -6.528  11.841  20.266  0.00  0.00    +0.000 C 
ATOM     22  C   UNL     1      -6.239  12.638  21.503  0.00  0.00    +0.000 C 
ENDBRANCH  19  20
ENDBRANCH  11  18
BRANCH  12  23
ATOM     23  O   UNL     1       0.347  10.618  20.591  0.00  0.00    +0.000 OA
BRANCH  23  24
ATOM     24  C   UNL     1       0.609   9.278  21.014  0.00  0.00    +0.000 C 
BRANCH  24  25
ATOM     25  C   UNL     1       1.414   8.609  19.942  0.00  0.00    +0.000 A 
ATOM     26  C   UNL     1       1.681   9.268  18.735  0.00  0.00    +0.000 A 
ATOM     27  C   UNL     1       2.394   8.626  17.721  0.00  0.00    +0.000 A 
ATOM     28  C   UNL     1       2.858   7.324  17.907  0.00  0.00    +0.000 A 
ATOM     29  C   UNL     1       2.619   6.669  19.113  0.00  0.00    +0.000 A 
ATOM     30  C   UNL     1       1.902   7.313  20.118  0.00  0.00    +0.000 A 
ATOM     31  F   UNL     1       1.680   6.659  21.268  0.00  0.00    +0.000 F 
ENDBRANCH  24  25
ENDBRANCH  23  24
ENDBRANCH  12  23
TORSDOF 6
ENDMDL
