MODEL 1
REMARK VINA RESULT:      -7.2      0.000      0.000
REMARK  Name = 
REMARK  0 active torsions:
REMARK  status: ('A' for Active; 'I' for Inactive)
REMARK                            x       y       z     vdW  Elec       q    Type
REMARK                         _______ _______ _______ _____ _____    ______ ____
ROOT
ATOM      1 CL   UNL     1       6.205   4.210  14.436  0.00  0.00    +0.000 Cl
ATOM      2  C   UNL     1       5.278   4.833  15.747  0.00  0.00    +0.000 A 
ATOM      3  C   UNL     1       5.300   6.204  16.012  0.00  0.00    +0.000 A 
ATOM      4  C   UNL     1       4.558   6.744  17.070  0.00  0.00    +0.000 A 
ATOM      5  C   UNL     1       3.809   5.845  17.828  0.00  0.00    +0.000 A 
ATOM      6  O   UNL     1       3.026   6.173  18.892  0.00  0.00    +0.000 OA
ATOM      7  C   UNL     1       2.471   5.016  19.350  0.00  0.00    +0.000 A 
ATOM      8  C   UNL     1       1.600   4.912  20.432  0.00  0.00    +0.000 A 
ATOM      9  C   UNL     1       1.140   3.628  20.743  0.00  0.00    +0.000 A 
ATOM     10  C   UNL     1       1.540   2.516  19.996  0.00  0.00    +0.000 A 
ATOM     11  C   UNL     1       2.417   2.653  18.911  0.00  0.00    +0.000 A 
ATOM     12  C   UNL     1       2.893   3.935  18.582  0.00  0.00    +0.000 A 
ATOM     13  C   UNL     1       3.764   4.474  17.591  0.00  0.00    +0.000 A 
ATOM     14  C   UNL     1       4.516   3.950  16.524  0.00  0.00    +0.000 A 
ENDROOT
TORSDOF 0
ENDMDL
MODEL 2
REMARK VINA RESULT:      -7.1      1.565      1.749
REMARK  Name = 
REMARK  0 active torsions:
REMARK  status: ('A' for Active; 'I' for Inactive)
REMARK                            x       y       z     vdW  Elec       q    Type
REMARK                         _______ _______ _______ _____ _____    ______ ____
ROOT
ATOM      1 CL   UNL     1       6.751   4.328  13.941  0.00  0.00    +0.000 Cl
ATOM      2  C   UNL     1       6.276   4.388  15.596  0.00  0.00    +0.000 A 
ATOM      3  C   UNL     1       7.231   4.679  16.573  0.00  0.00    +0.000 A 
ATOM      4  C   UNL     1       6.879   4.735  17.927  0.00  0.00    +0.000 A 
ATOM      5  C   UNL     1       5.542   4.487  18.234  0.00  0.00    +0.000 A 
ATOM      6  O   UNL     1       5.006   4.495  19.485  0.00  0.00    +0.000 OA
ATOM      7  C   UNL     1       3.682   4.208  19.354  0.00  0.00    +0.000 A 
ATOM      8  C   UNL     1       2.767   4.118  20.401  0.00  0.00    +0.000 A 
ATOM      9  C   UNL     1       1.447   3.811  20.054  0.00  0.00    +0.000 A 
ATOM     10  C   UNL     1       1.079   3.607  18.721  0.00  0.00    +0.000 A 
ATOM     11  C   UNL     1       2.021   3.705  17.689  0.00  0.00    +0.000 A 
ATOM     12  C   UNL     1       3.355   4.012  18.015  0.00  0.00    +0.000 A 
ATOM     13  C   UNL     1       4.566   4.194  17.286  0.00  0.00    +0.000 A 
ATOM     14  C   UNL     1       4.938   4.142  15.930  0.00  0.00    +0.000 A 
ENDROOT
TORSDOF 0
ENDMDL
MODEL 3
REMARK VINA RESULT:      -7.0      1.732      2.364
REMARK  Name = 
REMARK  0 active torsions:
REMARK  status: ('A' for Active; 'I' for Inactive)
REMARK                            x       y       z     vdW  Elec       q    Type
REMARK                         _______ _______ _______ _____ _____    ______ ____
ROOT
ATOM      1 CL   UNL     1       7.429   7.138  17.400  0.00  0.00    +0.000 Cl
ATOM      2  C   UNL     1       6.149   5.996  17.249  0.00  0.00    +0.000 A 
ATOM      3  C   UNL     1       6.068   5.204  16.102  0.00  0.00    +0.000 A 
ATOM      4  C   UNL     1       5.040   4.266  15.947  0.00  0.00    +0.000 A 
ATOM      5  C   UNL     1       4.119   4.173  16.990  0.00  0.00    +0.000 A 
ATOM      6  O   UNL     1       3.054   3.327  17.027  0.00  0.00    +0.000 OA
ATOM      7  C   UNL     1       2.410   3.548  18.206  0.00  0.00    +0.000 A 
ATOM      8  C   UNL     1       1.264   2.883  18.637  0.00  0.00    +0.000 A 
ATOM      9  C   UNL     1       0.755   3.258  19.885  0.00  0.00    +0.000 A 
ATOM     10  C   UNL     1       1.376   4.250  20.650  0.00  0.00    +0.000 A 
ATOM     11  C   UNL     1       2.530   4.900  20.191  0.00  0.00    +0.000 A 
ATOM     12  C   UNL     1       3.057   4.539  18.937  0.00  0.00    +0.000 A 
ATOM     13  C   UNL     1       4.170   4.946  18.146  0.00  0.00    +0.000 A 
ATOM     14  C   UNL     1       5.210   5.884  18.284  0.00  0.00    +0.000 A 
ENDROOT
TORSDOF 0
ENDMDL
MODEL 4
REMARK VINA RESULT:      -6.9      2.966      5.019
REMARK  Name = 
REMARK  0 active torsions:
REMARK  status: ('A' for Active; 'I' for Inactive)
REMARK                            x       y       z     vdW  Elec       q    Type
REMARK                         _______ _______ _______ _____ _____    ______ ____
ROOT
ATOM      1 CL   UNL     1       1.632   2.498  21.154  0.00  0.00    +0.000 Cl
ATOM      2  C   UNL     1       2.278   3.538  19.943  0.00  0.00    +0.000 A 
ATOM      3  C   UNL     1       1.456   3.972  18.901  0.00  0.00    +0.000 A 
ATOM      4  C   UNL     1       1.949   4.817  17.900  0.00  0.00    +0.000 A 
ATOM      5  C   UNL     1       3.287   5.193  18.006  0.00  0.00    +0.000 A 
ATOM      6  O   UNL     1       3.949   6.005  17.137  0.00  0.00    +0.000 OA
ATOM      7  C   UNL     1       5.227   6.122  17.594  0.00  0.00    +0.000 A 
ATOM      8  C   UNL     1       6.235   6.870  16.990  0.00  0.00    +0.000 A 
ATOM      9  C   UNL     1       7.484   6.859  17.619  0.00  0.00    +0.000 A 
ATOM     10  C   UNL     1       7.695   6.132  18.794  0.00  0.00    +0.000 A 
ATOM     11  C   UNL     1       6.661   5.389  19.379  0.00  0.00    +0.000 A 
ATOM     12  C   UNL     1       5.396   5.385  18.762  0.00  0.00    +0.000 A 
ATOM     13  C   UNL     1       4.135   4.780  19.030  0.00  0.00    +0.000 A 
ATOM     14  C   UNL     1       3.621   3.930  20.028  0.00  0.00    +0.000 A 
ENDROOT
TORSDOF 0
ENDMDL
MODEL 5
REMARK VINA RESULT:      -6.8      2.473      4.836
REMARK  Name = 
REMARK  0 active torsions:
REMARK  status: ('A' for Active; 'I' for Inactive)
REMARK                            x       y       z     vdW  Elec       q    Type
REMARK                         _______ _______ _______ _____ _____    ______ ____
ROOT
ATOM      1 CL   UNL     1       1.473   2.616  21.497  0.00  0.00    +0.000 Cl
ATOM      2  C   UNL     1       2.097   3.874  20.500  0.00  0.00    +0.000 A 
ATOM      3  C   UNL     1       1.812   5.204  20.817  0.00  0.00    +0.000 A 
ATOM      4  C   UNL     1       2.302   6.252  20.028  0.00  0.00    +0.000 A 
ATOM      5  C   UNL     1       3.080   5.892  18.928  0.00  0.00    +0.000 A 
ATOM      6  O   UNL     1       3.644   6.761  18.045  0.00  0.00    +0.000 OA
ATOM      7  C   UNL     1       4.316   6.014  17.126  0.00  0.00    +0.000 A 
ATOM      8  C   UNL     1       5.036   6.519  16.045  0.00  0.00    +0.000 A 
ATOM      9  C   UNL     1       5.657   5.581  15.213  0.00  0.00    +0.000 A 
ATOM     10  C   UNL     1       5.552   4.210  15.466  0.00  0.00    +0.000 A 
ATOM     11  C   UNL     1       4.821   3.731  16.562  0.00  0.00    +0.000 A 
ATOM     12  C   UNL     1       4.188   4.658  17.411  0.00  0.00    +0.000 A 
ATOM     13  C   UNL     1       3.383   4.578  18.584  0.00  0.00    +0.000 A 
ATOM     14  C   UNL     1       2.881   3.539  19.389  0.00  0.00    +0.000 A 
ENDROOT
TORSDOF 0
ENDMDL
MODEL 6
REMARK VINA RESULT:      -6.8      3.188      5.997
REMARK  Name = 
REMARK  0 active torsions:
REMARK  status: ('A' for Active; 'I' for Inactive)
REMARK                            x       y       z     vdW  Elec       q    Type
REMARK                         _______ _______ _______ _____ _____    ______ ____
ROOT
ATOM      1 CL   UNL     1       3.237   4.044  18.990  0.00  0.00    +0.000 Cl
ATOM      2  C   UNL     1       4.508   4.564  17.949  0.00  0.00    +0.000 A 
ATOM      3  C   UNL     1       5.475   5.447  18.436  0.00  0.00    +0.000 A 
ATOM      4  C   UNL     1       6.521   5.890  17.617  0.00  0.00    +0.000 A 
ATOM      5  C   UNL     1       6.538   5.404  16.311  0.00  0.00    +0.000 A 
ATOM      6  O   UNL     1       7.468   5.715  15.367  0.00  0.00    +0.000 OA
ATOM      7  C   UNL     1       7.128   5.038  14.235  0.00  0.00    +0.000 A 
ATOM      8  C   UNL     1       7.825   5.081  13.029  0.00  0.00    +0.000 A 
ATOM      9  C   UNL     1       7.310   4.310  11.981  0.00  0.00    +0.000 A 
ATOM     10  C   UNL     1       6.155   3.541  12.150  0.00  0.00    +0.000 A 
ATOM     11  C   UNL     1       5.476   3.517  13.376  0.00  0.00    +0.000 A 
ATOM     12  C   UNL     1       5.976   4.286  14.443  0.00  0.00    +0.000 A 
ATOM     13  C   UNL     1       5.592   4.524  15.794  0.00  0.00    +0.000 A 
ATOM     14  C   UNL     1       4.548   4.090  16.632  0.00  0.00    +0.000 A 
ENDROOT
TORSDOF 0
ENDMDL
MODEL 7
REMARK VINA RESULT:      -6.7      3.330      4.707
REMARK  Name = 
REMARK  0 active torsions:
REMARK  status: ('A' for Active; 'I' for Inactive)
REMARK                            x       y       z     vdW  Elec       q    Type
REMARK                         _______ _______ _______ _____ _____    ______ ____
ROOT
ATOM      1 CL   UNL     1       5.168   2.437  11.333  0.00  0.00    +0.000 Cl
ATOM      2  C   UNL     1       5.947   3.442  12.495  0.00  0.00    +0.000 A 
ATOM      3  C   UNL     1       7.021   4.242  12.100  0.00  0.00    +0.000 A 
ATOM      4  C   UNL     1       7.677   5.070  13.019  0.00  0.00    +0.000 A 
ATOM      5  C   UNL     1       7.200   5.047  14.328  0.00  0.00    +0.000 A 
ATOM      6  O   UNL     1       7.702   5.777  15.362  0.00  0.00    +0.000 OA
ATOM      7  C   UNL     1       6.963   5.469  16.464  0.00  0.00    +0.000 A 
ATOM      8  C   UNL     1       7.151   6.001  17.737  0.00  0.00    +0.000 A 
ATOM      9  C   UNL     1       6.282   5.553  18.737  0.00  0.00    +0.000 A 
ATOM     10  C   UNL     1       5.281   4.618  18.459  0.00  0.00    +0.000 A 
ATOM     11  C   UNL     1       5.116   4.100  17.167  0.00  0.00    +0.000 A 
ATOM     12  C   UNL     1       5.979   4.537  16.146  0.00  0.00    +0.000 A 
ATOM     13  C   UNL     1       6.134   4.262  14.756  0.00  0.00    +0.000 A 
ATOM     14  C   UNL     1       5.487   3.437  13.819  0.00  0.00    +0.000 A 
ENDROOT
TORSDOF 0
ENDMDL
MODEL 8
REMARK VINA RESULT:      -6.7      2.743      5.169
REMARK  Name = 
REMARK  0 active torsions:
REMARK  status: ('A' for Active; 'I' for Inactive)
REMARK                            x       y       z     vdW  Elec       q    Type
REMARK                         _______ _______ _______ _____ _____    ______ ____
ROOT
ATOM      1 CL   UNL     1       0.397   2.168  18.702  0.00  0.00    +0.000 Cl
ATOM      2  C   UNL     1       2.028   2.710  18.807  0.00  0.00    +0.000 A 
ATOM      3  C   UNL     1       2.676   2.697  20.044  0.00  0.00    +0.000 A 
ATOM      4  C   UNL     1       4.002   3.130  20.166  0.00  0.00    +0.000 A 
ATOM      5  C   UNL     1       4.624   3.567  18.997  0.00  0.00    +0.000 A 
ATOM      6  O   UNL     1       5.903   4.024  18.909  0.00  0.00    +0.000 OA
ATOM      7  C   UNL     1       6.122   4.348  17.604  0.00  0.00    +0.000 A 
ATOM      8  C   UNL     1       7.311   4.856  17.087  0.00  0.00    +0.000 A 
ATOM      9  C   UNL     1       7.332   5.125  15.714  0.00  0.00    +0.000 A 
ATOM     10  C   UNL     1       6.210   4.891  14.915  0.00  0.00    +0.000 A 
ATOM     11  C   UNL     1       5.026   4.378  15.464  0.00  0.00    +0.000 A 
ATOM     12  C   UNL     1       4.983   4.101  16.843  0.00  0.00    +0.000 A 
ATOM     13  C   UNL     1       4.008   3.593  17.749  0.00  0.00    +0.000 A 
ATOM     14  C   UNL     1       2.676   3.153  17.647  0.00  0.00    +0.000 A 
ENDROOT
TORSDOF 0
ENDMDL
MODEL 9
REMARK VINA RESULT:      -6.7      3.022      5.271
REMARK  Name = 
REMARK  0 active torsions:
REMARK  status: ('A' for Active; 'I' for Inactive)
REMARK                            x       y       z     vdW  Elec       q    Type
REMARK                         _______ _______ _______ _____ _____    ______ ____
ROOT
ATOM      1 CL   UNL     1       1.376   2.520  21.580  0.00  0.00    +0.000 Cl
ATOM      2  C   UNL     1       2.226   2.805  20.108  0.00  0.00    +0.000 A 
ATOM      3  C   UNL     1       1.752   2.240  18.922  0.00  0.00    +0.000 A 
ATOM      4  C   UNL     1       2.418   2.451  17.709  0.00  0.00    +0.000 A 
ATOM      5  C   UNL     1       3.562   3.246  17.757  0.00  0.00    +0.000 A 
ATOM      6  O   UNL     1       4.344   3.566  16.690  0.00  0.00    +0.000 OA
ATOM      7  C   UNL     1       5.353   4.352  17.157  0.00  0.00    +0.000 A 
ATOM      8  C   UNL     1       6.376   4.897  16.383  0.00  0.00    +0.000 A 
ATOM      9  C   UNL     1       7.320   5.680  17.056  0.00  0.00    +0.000 A 
ATOM     10  C   UNL     1       7.229   5.897  18.434  0.00  0.00    +0.000 A 
ATOM     11  C   UNL     1       6.187   5.336  19.186  0.00  0.00    +0.000 A 
ATOM     12  C   UNL     1       5.227   4.544  18.529  0.00  0.00    +0.000 A 
ATOM     13  C   UNL     1       4.062   3.824  18.920  0.00  0.00    +0.000 A 
ATOM     14  C   UNL     1       3.379   3.601  20.130  0.00  0.00    +0.000 A 
ENDROOT
TORSDOF 0
ENDMDL
