MODEL 1
REMARK VINA RESULT:      -7.6      0.000      0.000
REMARK  Name = 
REMARK  7 active torsions:
REMARK  status: ('A' for Active; 'I' for Inactive)
REMARK    1  A    between atoms: C_1  and  C_2
REMARK    2  A    between atoms: C_2  and  C_3
REMARK    3  A    between atoms: C_4  and  C_5
REMARK    4  A    between atoms: C_5  and  O_6
REMARK    5  A    between atoms: O_6  and  C_7
REMARK    6  A    between atoms: C_7  and  C_8
REMARK    7  A    between atoms: C_17  and  C_18
REMARK                            x       y       z     vdW  Elec       q    Type
REMARK                         _______ _______ _______ _____ _____    ______ ____
ROOT
ATOM      1  C   UNL     1       3.988   4.969  18.559  0.00  0.00    +0.000 C 
ATOM      2  S   UNL     1       3.186   3.728  17.424  0.00  0.00    +0.000 S 
ATOM      3  C   UNL     1       4.063   3.789  15.970  0.00  0.00    +0.000 C 
ATOM      4  C   UNL     1       5.206   4.448  15.774  0.00  0.00    +0.000 C 
ATOM      5  C   UNL     1       5.877   4.320  14.427  0.00  0.00    +0.000 C 
ATOM      6  N   UNL     1       5.798   5.216  16.757  0.00  0.00    +0.000 N 
ATOM      7  C   UNL     1       5.343   5.465  17.998  0.00  0.00    +0.000 A 
ATOM      8  N   UNL     1       6.134   6.221  18.701  0.00  0.00    +0.000 NA
ATOM      9  O   UNL     1       7.234   6.513  17.855  0.00  0.00    +0.000 OA
ATOM     10  C   UNL     1       6.987   5.880  16.664  0.00  0.00    +0.000 A 
ATOM     11  O   UNL     1       7.750   5.950  15.711  0.00  0.00    +0.000 OA
ENDROOT
BRANCH   1  12
ATOM     12  C   UNL     1       3.063   6.197  18.814  0.00  0.00    +0.000 A 
ATOM     13  C   UNL     1       2.839   7.146  17.790  0.00  0.00    +0.000 A 
ATOM     14  C   UNL     1       2.171   8.350  18.045  0.00  0.00    +0.000 A 
ATOM     15  C   UNL     1       1.667   8.603  19.315  0.00  0.00    +0.000 A 
ATOM     16 CL   UNL     1       0.905  10.106  19.658  0.00  0.00    +0.000 Cl
ATOM     17  C   UNL     1       1.789   7.646  20.316  0.00  0.00    +0.000 A 
ATOM     18  C   UNL     1       2.463   6.447  20.063  0.00  0.00    +0.000 A 
ENDBRANCH   1  12
BRANCH   1  19
ATOM     19  O   UNL     1       4.293   4.301  19.828  0.00  0.00    +0.000 OA
BRANCH  19  20
ATOM     20  C   UNL     1       3.719   2.995  19.914  0.00  0.00    +0.000 C 
BRANCH  20  22
ATOM     21  C   UNL     1       1.648   2.891  21.255  0.00  0.00    +0.000 C 
ATOM     22  C   UNL     1       2.988   2.741  21.191  0.00  0.00    +0.000 C 
BRANCH  21  24
ATOM     23  C   UNL     1       0.487   2.271  19.098  0.00  0.00    +0.000 C 
ATOM     24  C   UNL     1       0.786   3.367  20.107  0.00  0.00    +0.000 C 
ENDBRANCH  21  24
ENDBRANCH  20  22
ENDBRANCH  19  20
ENDBRANCH   1  19
TORSDOF 5
ENDMDL
MODEL 2
REMARK VINA RESULT:      -7.5      0.253      1.013
REMARK  Name = 
REMARK  7 active torsions:
REMARK  status: ('A' for Active; 'I' for Inactive)
REMARK    1  A    between atoms: C_1  and  C_2
REMARK    2  A    between atoms: C_2  and  C_3
REMARK    3  A    between atoms: C_4  and  C_5
REMARK    4  A    between atoms: C_5  and  O_6
REMARK    5  A    between atoms: O_6  and  C_7
REMARK    6  A    between atoms: C_7  and  C_8
REMARK    7  A    between atoms: C_17  and  C_18
REMARK                            x       y       z     vdW  Elec       q    Type
REMARK                         _______ _______ _______ _____ _____    ______ ____
ROOT
ATOM      1  C   UNL     1       4.097   5.037  18.490  0.00  0.00    +0.000 C 
ATOM      2  S   UNL     1       3.131   3.872  17.403  0.00  0.00    +0.000 S 
ATOM      3  C   UNL     1       3.951   3.834  15.915  0.00  0.00    +0.000 C 
ATOM      4  C   UNL     1       5.144   4.374  15.665  0.00  0.00    +0.000 C 
ATOM      5  C   UNL     1       5.745   4.169  14.295  0.00  0.00    +0.000 C 
ATOM      6  N   UNL     1       5.848   5.089  16.615  0.00  0.00    +0.000 N 
ATOM      7  C   UNL     1       5.470   5.392  17.870  0.00  0.00    +0.000 A 
ATOM      8  N   UNL     1       6.359   6.073  18.531  0.00  0.00    +0.000 NA
ATOM      9  O   UNL     1       7.447   6.248  17.640  0.00  0.00    +0.000 OA
ATOM     10  C   UNL     1       7.092   5.632  16.466  0.00  0.00    +0.000 A 
ATOM     11  O   UNL     1       7.819   5.618  15.483  0.00  0.00    +0.000 OA
ENDROOT
BRANCH   1  12
ATOM     12  C   UNL     1       3.308   6.353  18.765  0.00  0.00    +0.000 A 
ATOM     13  C   UNL     1       2.640   6.541  19.997  0.00  0.00    +0.000 A 
ATOM     14  C   UNL     1       1.772   7.621  20.198  0.00  0.00    +0.000 A 
ATOM     15  C   UNL     1       1.599   8.563  19.191  0.00  0.00    +0.000 A 
ATOM     16 CL   UNL     1       0.485   9.857  19.401  0.00  0.00    +0.000 Cl
ATOM     17  C   UNL     1       2.317   8.455  18.006  0.00  0.00    +0.000 A 
ATOM     18  C   UNL     1       3.177   7.372  17.801  0.00  0.00    +0.000 A 
ENDBRANCH   1  12
BRANCH   1  19
ATOM     19  O   UNL     1       4.386   4.353  19.754  0.00  0.00    +0.000 OA
BRANCH  19  20
ATOM     20  C   UNL     1       3.749   3.077  19.847  0.00  0.00    +0.000 C 
BRANCH  20  22
ATOM     21  C   UNL     1       1.741   3.002  21.281  0.00  0.00    +0.000 C 
ATOM     22  C   UNL     1       3.074   2.835  21.157  0.00  0.00    +0.000 C 
BRANCH  21  24
ATOM     23  C   UNL     1       0.479   2.395  19.178  0.00  0.00    +0.000 C 
ATOM     24  C   UNL     1       0.833   3.487  20.173  0.00  0.00    +0.000 C 
ENDBRANCH  21  24
ENDBRANCH  20  22
ENDBRANCH  19  20
ENDBRANCH   1  19
TORSDOF 5
ENDMDL
MODEL 3
REMARK VINA RESULT:      -7.3      2.125      5.169
REMARK  Name = 
REMARK  7 active torsions:
REMARK  status: ('A' for Active; 'I' for Inactive)
REMARK    1  A    between atoms: C_1  and  C_2
REMARK    2  A    between atoms: C_2  and  C_3
REMARK    3  A    between atoms: C_4  and  C_5
REMARK    4  A    between atoms: C_5  and  O_6
REMARK    5  A    between atoms: O_6  and  C_7
REMARK    6  A    between atoms: C_7  and  C_8
REMARK    7  A    between atoms: C_17  and  C_18
REMARK                            x       y       z     vdW  Elec       q    Type
REMARK                         _______ _______ _______ _____ _____    ______ ____
ROOT
ATOM      1  C   UNL     1       3.850   5.650  17.921  0.00  0.00    +0.000 C 
ATOM      2  S   UNL     1       5.430   5.404  18.876  0.00  0.00    +0.000 S 
ATOM      3  C   UNL     1       5.184   4.026  19.839  0.00  0.00    +0.000 C 
ATOM      4  C   UNL     1       4.145   3.194  19.763  0.00  0.00    +0.000 C 
ATOM      5  C   UNL     1       4.142   1.977  20.656  0.00  0.00    +0.000 C 
ATOM      6  N   UNL     1       3.095   3.396  18.888  0.00  0.00    +0.000 N 
ATOM      7  C   UNL     1       2.913   4.423  18.038  0.00  0.00    +0.000 A 
ATOM      8  N   UNL     1       1.825   4.328  17.331  0.00  0.00    +0.000 NA
ATOM      9  O   UNL     1       1.210   3.117  17.739  0.00  0.00    +0.000 OA
ATOM     10  C   UNL     1       2.021   2.574  18.704  0.00  0.00    +0.000 A 
ATOM     11  O   UNL     1       1.755   1.525  19.272  0.00  0.00    +0.000 OA
ENDROOT
BRANCH   1  12
ATOM     12  C   UNL     1       3.083   6.922  18.396  0.00  0.00    +0.000 A 
ATOM     13  C   UNL     1       2.471   6.952  19.670  0.00  0.00    +0.000 A 
ATOM     14  C   UNL     1       1.622   8.000  20.046  0.00  0.00    +0.000 A 
ATOM     15  C   UNL     1       1.412   9.063  19.177  0.00  0.00    +0.000 A 
ATOM     16 CL   UNL     1       0.319  10.322  19.599  0.00  0.00    +0.000 Cl
ATOM     17  C   UNL     1       2.077   9.106  17.956  0.00  0.00    +0.000 A 
ATOM     18  C   UNL     1       2.919   8.056  17.577  0.00  0.00    +0.000 A 
ENDBRANCH   1  12
BRANCH   1  19
ATOM     19  O   UNL     1       4.186   5.770  16.499  0.00  0.00    +0.000 OA
BRANCH  19  20
ATOM     20  C   UNL     1       5.036   4.715  16.044  0.00  0.00    +0.000 C 
BRANCH  20  22
ATOM     21  C   UNL     1       6.628   4.741  14.157  0.00  0.00    +0.000 C 
ATOM     22  C   UNL     1       6.287   5.192  15.383  0.00  0.00    +0.000 C 
BRANCH  21  24
ATOM     23  C   UNL     1       6.505   3.335  12.061  0.00  0.00    +0.000 C 
ATOM     24  C   UNL     1       5.845   3.707  13.378  0.00  0.00    +0.000 C 
ENDBRANCH  21  24
ENDBRANCH  20  22
ENDBRANCH  19  20
ENDBRANCH   1  19
TORSDOF 5
ENDMDL
MODEL 4
REMARK VINA RESULT:      -7.0      2.258      5.218
REMARK  Name = 
REMARK  7 active torsions:
REMARK  status: ('A' for Active; 'I' for Inactive)
REMARK    1  A    between atoms: C_1  and  C_2
REMARK    2  A    between atoms: C_2  and  C_3
REMARK    3  A    between atoms: C_4  and  C_5
REMARK    4  A    between atoms: C_5  and  O_6
REMARK    5  A    between atoms: O_6  and  C_7
REMARK    6  A    between atoms: C_7  and  C_8
REMARK    7  A    between atoms: C_17  and  C_18
REMARK                            x       y       z     vdW  Elec       q    Type
REMARK                         _______ _______ _______ _____ _____    ______ ____
ROOT
ATOM      1  C   UNL     1       3.336   5.618  18.283  0.00  0.00    +0.000 C 
ATOM      2  S   UNL     1       4.658   5.192  19.526  0.00  0.00    +0.000 S 
ATOM      3  C   UNL     1       4.012   3.945  20.484  0.00  0.00    +0.000 C 
ATOM      4  C   UNL     1       2.876   3.288  20.251  0.00  0.00    +0.000 C 
ATOM      5  C   UNL     1       2.507   2.156  21.180  0.00  0.00    +0.000 C 
ATOM      6  N   UNL     1       2.048   3.592  19.188  0.00  0.00    +0.000 N 
ATOM      7  C   UNL     1       2.197   4.570  18.277  0.00  0.00    +0.000 A 
ATOM      8  N   UNL     1       1.251   4.600  17.384  0.00  0.00    +0.000 NA
ATOM      9  O   UNL     1       0.375   3.537  17.722  0.00  0.00    +0.000 OA
ATOM     10  C   UNL     1       0.898   2.943  18.843  0.00  0.00    +0.000 A 
ATOM     11  O   UNL     1       0.360   1.994  19.396  0.00  0.00    +0.000 OA
ENDROOT
BRANCH   1  12
ATOM     12  C   UNL     1       2.728   7.028  18.553  0.00  0.00    +0.000 A 
ATOM     13  C   UNL     1       2.151   7.329  19.809  0.00  0.00    +0.000 A 
ATOM     14  C   UNL     1       1.433   8.512  20.017  0.00  0.00    +0.000 A 
ATOM     15  C   UNL     1       1.325   9.443  18.990  0.00  0.00    +0.000 A 
ATOM     16 CL   UNL     1       0.390  10.868  19.211  0.00  0.00    +0.000 Cl
ATOM     17  C   UNL     1       1.964   9.217  17.776  0.00  0.00    +0.000 A 
ATOM     18  C   UNL     1       2.674   8.031  17.565  0.00  0.00    +0.000 A 
ENDBRANCH   1  12
BRANCH   1  19
ATOM     19  O   UNL     1       3.934   5.579  16.946  0.00  0.00    +0.000 OA
BRANCH  19  20
ATOM     20  C   UNL     1       4.658   4.371  16.702  0.00  0.00    +0.000 C 
BRANCH  20  22
ATOM     21  C   UNL     1       6.906   4.878  15.816  0.00  0.00    +0.000 C 
ATOM     22  C   UNL     1       5.640   4.473  15.582  0.00  0.00    +0.000 C 
BRANCH  21  24
ATOM     23  C   UNL     1       7.377   6.813  17.371  0.00  0.00    +0.000 C 
ATOM     24  C   UNL     1       7.430   5.308  17.167  0.00  0.00    +0.000 C 
ENDBRANCH  21  24
ENDBRANCH  20  22
ENDBRANCH  19  20
ENDBRANCH   1  19
TORSDOF 5
ENDMDL
MODEL 5
REMARK VINA RESULT:      -6.9      2.189      5.013
REMARK  Name = 
REMARK  7 active torsions:
REMARK  status: ('A' for Active; 'I' for Inactive)
REMARK    1  A    between atoms: C_1  and  C_2
REMARK    2  A    between atoms: C_2  and  C_3
REMARK    3  A    between atoms: C_4  and  C_5
REMARK    4  A    between atoms: C_5  and  O_6
REMARK    5  A    between atoms: O_6  and  C_7
REMARK    6  A    between atoms: C_7  and  C_8
REMARK    7  A    between atoms: C_17  and  C_18
REMARK                            x       y       z     vdW  Elec       q    Type
REMARK                         _______ _______ _______ _____ _____    ______ ____
ROOT
ATOM      1  C   UNL     1       3.577   5.784  18.033  0.00  0.00    +0.000 C 
ATOM      2  S   UNL     1       5.151   5.612  19.015  0.00  0.00    +0.000 S 
ATOM      3  C   UNL     1       4.987   4.178  19.911  0.00  0.00    +0.000 C 
ATOM      4  C   UNL     1       4.015   3.276  19.773  0.00  0.00    +0.000 C 
ATOM      5  C   UNL     1       4.084   2.023  20.613  0.00  0.00    +0.000 C 
ATOM      6  N   UNL     1       2.972   3.440  18.883  0.00  0.00    +0.000 N 
ATOM      7  C   UNL     1       2.732   4.488  18.074  0.00  0.00    +0.000 A 
ATOM      8  N   UNL     1       1.670   4.345  17.337  0.00  0.00    +0.000 NA
ATOM      9  O   UNL     1       1.138   3.076  17.677  0.00  0.00    +0.000 OA
ATOM     10  C   UNL     1       1.966   2.551  18.637  0.00  0.00    +0.000 A 
ATOM     11  O   UNL     1       1.768   1.460  19.152  0.00  0.00    +0.000 OA
ENDROOT
BRANCH   1  12
ATOM     12  C   UNL     1       2.709   6.974  18.544  0.00  0.00    +0.000 A 
ATOM     13  C   UNL     1       2.434   8.073  17.698  0.00  0.00    +0.000 A 
ATOM     14  C   UNL     1       1.822   9.234  18.186  0.00  0.00    +0.000 A 
ATOM     15  C   UNL     1       1.423   9.296  19.515  0.00  0.00    +0.000 A 
ATOM     16 CL   UNL     1       0.731  10.740  20.143  0.00  0.00    +0.000 Cl
ATOM     17  C   UNL     1       1.593   8.194  20.346  0.00  0.00    +0.000 A 
ATOM     18  C   UNL     1       2.213   7.037  19.861  0.00  0.00    +0.000 A 
ENDBRANCH   1  12
BRANCH   1  19
ATOM     19  O   UNL     1       3.934   5.993  16.626  0.00  0.00    +0.000 OA
BRANCH  19  20
ATOM     20  C   UNL     1       4.893   5.044  16.156  0.00  0.00    +0.000 C 
BRANCH  20  22
ATOM     21  C   UNL     1       6.626   4.998  14.397  0.00  0.00    +0.000 C 
ATOM     22  C   UNL     1       6.035   5.658  15.416  0.00  0.00    +0.000 C 
BRANCH  21  24
ATOM     23  C   UNL     1       5.663   3.565  12.552  0.00  0.00    +0.000 C 
ATOM     24  C   UNL     1       6.251   3.602  13.953  0.00  0.00    +0.000 C 
ENDBRANCH  21  24
ENDBRANCH  20  22
ENDBRANCH  19  20
ENDBRANCH   1  19
TORSDOF 5
ENDMDL
MODEL 6
REMARK VINA RESULT:      -6.9      1.120      1.710
REMARK  Name = 
REMARK  7 active torsions:
REMARK  status: ('A' for Active; 'I' for Inactive)
REMARK    1  A    between atoms: C_1  and  C_2
REMARK    2  A    between atoms: C_2  and  C_3
REMARK    3  A    between atoms: C_4  and  C_5
REMARK    4  A    between atoms: C_5  and  O_6
REMARK    5  A    between atoms: O_6  and  C_7
REMARK    6  A    between atoms: C_7  and  C_8
REMARK    7  A    between atoms: C_17  and  C_18
REMARK                            x       y       z     vdW  Elec       q    Type
REMARK                         _______ _______ _______ _____ _____    ______ ____
ROOT
ATOM      1  C   UNL     1       3.750   4.664  18.425  0.00  0.00    +0.000 C 
ATOM      2  S   UNL     1       3.180   4.032  16.768  0.00  0.00    +0.000 S 
ATOM      3  C   UNL     1       4.562   4.003  15.779  0.00  0.00    +0.000 C 
ATOM      4  C   UNL     1       5.817   4.202  16.183  0.00  0.00    +0.000 C 
ATOM      5  C   UNL     1       6.922   4.060  15.164  0.00  0.00    +0.000 C 
ATOM      6  N   UNL     1       6.135   4.510  17.491  0.00  0.00    +0.000 N 
ATOM      7  C   UNL     1       5.294   4.698  18.525  0.00  0.00    +0.000 A 
ATOM      8  N   UNL     1       5.898   4.968  19.645  0.00  0.00    +0.000 NA
ATOM      9  O   UNL     1       7.283   4.960  19.343  0.00  0.00    +0.000 OA
ATOM     10  C   UNL     1       7.389   4.680  18.004  0.00  0.00    +0.000 A 
ATOM     11  O   UNL     1       8.465   4.617  17.428  0.00  0.00    +0.000 OA
ENDROOT
BRANCH   1  12
ATOM     12  C   UNL     1       3.190   6.089  18.720  0.00  0.00    +0.000 A 
ATOM     13  C   UNL     1       2.515   6.354  19.933  0.00  0.00    +0.000 A 
ATOM     14  C   UNL     1       1.841   7.563  20.143  0.00  0.00    +0.000 A 
ATOM     15  C   UNL     1       1.875   8.550  19.166  0.00  0.00    +0.000 A 
ATOM     16 CL   UNL     1       0.995  10.012  19.383  0.00  0.00    +0.000 Cl
ATOM     17  C   UNL     1       2.611   8.354  18.003  0.00  0.00    +0.000 A 
ATOM     18  C   UNL     1       3.277   7.143  17.789  0.00  0.00    +0.000 A 
ENDBRANCH   1  12
BRANCH   1  19
ATOM     19  O   UNL     1       3.296   3.725  19.456  0.00  0.00    +0.000 OA
BRANCH  19  20
ATOM     20  C   UNL     1       3.018   2.425  18.931  0.00  0.00    +0.000 C 
BRANCH  20  22
ATOM     21  C   UNL     1       0.664   2.605  19.652  0.00  0.00    +0.000 C 
ATOM     22  C   UNL     1       1.562   2.146  18.755  0.00  0.00    +0.000 C 
BRANCH  21  24
ATOM     23  C   UNL     1       1.450   2.458  22.049  0.00  0.00    +0.000 C 
ATOM     24  C   UNL     1       1.023   3.367  20.908  0.00  0.00    +0.000 C 
ENDBRANCH  21  24
ENDBRANCH  20  22
ENDBRANCH  19  20
ENDBRANCH   1  19
TORSDOF 5
ENDMDL
MODEL 7
REMARK VINA RESULT:      -6.9      3.464      5.444
REMARK  Name = 
REMARK  7 active torsions:
REMARK  status: ('A' for Active; 'I' for Inactive)
REMARK    1  A    between atoms: C_1  and  C_2
REMARK    2  A    between atoms: C_2  and  C_3
REMARK    3  A    between atoms: C_4  and  C_5
REMARK    4  A    between atoms: C_5  and  O_6
REMARK    5  A    between atoms: O_6  and  C_7
REMARK    6  A    between atoms: C_7  and  C_8
REMARK    7  A    between atoms: C_17  and  C_18
REMARK                            x       y       z     vdW  Elec       q    Type
REMARK                         _______ _______ _______ _____ _____    ______ ____
ROOT
ATOM      1  C   UNL     1       2.397   6.160  18.616  0.00  0.00    +0.000 C 
ATOM      2  S   UNL     1       1.811   5.607  20.296  0.00  0.00    +0.000 S 
ATOM      3  C   UNL     1       1.460   7.028  21.160  0.00  0.00    +0.000 C 
ATOM      4  C   UNL     1       1.425   8.261  20.655  0.00  0.00    +0.000 C 
ATOM      5  C   UNL     1       1.017   9.392  21.569  0.00  0.00    +0.000 C 
ATOM      6  N   UNL     1       1.727   8.531  19.334  0.00  0.00    +0.000 N 
ATOM      7  C   UNL     1       2.128   7.667  18.384  0.00  0.00    +0.000 A 
ATOM      8  N   UNL     1       2.326   8.223  17.225  0.00  0.00    +0.000 NA
ATOM      9  O   UNL     1       2.029   9.597  17.405  0.00  0.00    +0.000 OA
ATOM     10  C   UNL     1       1.668   9.749  18.720  0.00  0.00    +0.000 A 
ATOM     11  O   UNL     1       1.364  10.832  19.198  0.00  0.00    +0.000 OA
ENDROOT
BRANCH   1  12
ATOM     12  C   UNL     1       3.918   5.879  18.417  0.00  0.00    +0.000 A 
ATOM     13  C   UNL     1       4.473   5.845  17.117  0.00  0.00    +0.000 A 
ATOM     14  C   UNL     1       5.786   5.411  16.897  0.00  0.00    +0.000 A 
ATOM     15  C   UNL     1       6.585   5.056  17.977  0.00  0.00    +0.000 A 
ATOM     16 CL   UNL     1       8.176   4.457  17.714  0.00  0.00    +0.000 Cl
ATOM     17  C   UNL     1       6.096   5.172  19.273  0.00  0.00    +0.000 A 
ATOM     18  C   UNL     1       4.782   5.597  19.493  0.00  0.00    +0.000 A 
ENDBRANCH   1  12
BRANCH   1  19
ATOM     19  O   UNL     1       1.619   5.447  17.600  0.00  0.00    +0.000 OA
BRANCH  19  20
ATOM     20  C   UNL     1       1.385   4.080  17.947  0.00  0.00    +0.000 C 
BRANCH  20  22
ATOM     21  C   UNL     1       3.020   2.230  17.953  0.00  0.00    +0.000 C 
ATOM     22  C   UNL     1       2.288   3.118  17.248  0.00  0.00    +0.000 C 
BRANCH  21  24
ATOM     23  C   UNL     1       4.454   2.038  20.024  0.00  0.00    +0.000 C 
ATOM     24  C   UNL     1       3.047   2.153  19.464  0.00  0.00    +0.000 C 
ENDBRANCH  21  24
ENDBRANCH  20  22
ENDBRANCH  19  20
ENDBRANCH   1  19
TORSDOF 5
ENDMDL
MODEL 8
REMARK VINA RESULT:      -6.9      2.315      4.907
REMARK  Name = 
REMARK  7 active torsions:
REMARK  status: ('A' for Active; 'I' for Inactive)
REMARK    1  A    between atoms: C_1  and  C_2
REMARK    2  A    between atoms: C_2  and  C_3
REMARK    3  A    between atoms: C_4  and  C_5
REMARK    4  A    between atoms: C_5  and  O_6
REMARK    5  A    between atoms: O_6  and  C_7
REMARK    6  A    between atoms: C_7  and  C_8
REMARK    7  A    between atoms: C_17  and  C_18
REMARK                            x       y       z     vdW  Elec       q    Type
REMARK                         _______ _______ _______ _____ _____    ______ ____
ROOT
ATOM      1  C   UNL     1       3.442   6.164  18.232  0.00  0.00    +0.000 C 
ATOM      2  S   UNL     1       5.122   5.922  19.001  0.00  0.00    +0.000 S 
ATOM      3  C   UNL     1       5.100   4.369  19.691  0.00  0.00    +0.000 C 
ATOM      4  C   UNL     1       4.144   3.454  19.528  0.00  0.00    +0.000 C 
ATOM      5  C   UNL     1       4.342   2.099  20.163  0.00  0.00    +0.000 C 
ATOM      6  N   UNL     1       3.002   3.698  18.790  0.00  0.00    +0.000 N 
ATOM      7  C   UNL     1       2.643   4.839  18.174  0.00  0.00    +0.000 A 
ATOM      8  N   UNL     1       1.508   4.756  17.544  0.00  0.00    +0.000 NA
ATOM      9  O   UNL     1       1.053   3.430  17.750  0.00  0.00    +0.000 OA
ATOM     10  C   UNL     1       1.999   2.810  18.528  0.00  0.00    +0.000 A 
ATOM     11  O   UNL     1       1.890   1.649  18.896  0.00  0.00    +0.000 OA
ENDROOT
BRANCH   1  12
ATOM     12  C   UNL     1       2.605   7.229  19.002  0.00  0.00    +0.000 A 
ATOM     13  C   UNL     1       2.183   6.983  20.329  0.00  0.00    +0.000 A 
ATOM     14  C   UNL     1       1.277   7.832  20.976  0.00  0.00    +0.000 A 
ATOM     15  C   UNL     1       0.819   8.973  20.328  0.00  0.00    +0.000 A 
ATOM     16 CL   UNL     1      -0.346   9.987  21.085  0.00  0.00    +0.000 Cl
ATOM     17  C   UNL     1       1.291   9.291  19.060  0.00  0.00    +0.000 A 
ATOM     18  C   UNL     1       2.190   8.438  18.410  0.00  0.00    +0.000 A 
ENDBRANCH   1  12
BRANCH   1  19
ATOM     19  O   UNL     1       3.631   6.586  16.841  0.00  0.00    +0.000 OA
BRANCH  19  20
ATOM     20  C   UNL     1       5.010   6.703  16.484  0.00  0.00    +0.000 C 
BRANCH  20  22
ATOM     21  C   UNL     1       5.837   4.973  14.929  0.00  0.00    +0.000 C 
ATOM     22  C   UNL     1       5.320   6.207  15.110  0.00  0.00    +0.000 C 
BRANCH  21  24
ATOM     23  C   UNL     1       7.483   4.406  16.760  0.00  0.00    +0.000 C 
ATOM     24  C   UNL     1       6.196   4.023  16.050  0.00  0.00    +0.000 C 
ENDBRANCH  21  24
ENDBRANCH  20  22
ENDBRANCH  19  20
ENDBRANCH   1  19
TORSDOF 5
ENDMDL
MODEL 9
REMARK VINA RESULT:      -6.9      2.335      4.817
REMARK  Name = 
REMARK  7 active torsions:
REMARK  status: ('A' for Active; 'I' for Inactive)
REMARK    1  A    between atoms: C_1  and  C_2
REMARK    2  A    between atoms: C_2  and  C_3
REMARK    3  A    between atoms: C_4  and  C_5
REMARK    4  A    between atoms: C_5  and  O_6
REMARK    5  A    between atoms: O_6  and  C_7
REMARK    6  A    between atoms: C_7  and  C_8
REMARK    7  A    between atoms: C_17  and  C_18
REMARK                            x       y       z     vdW  Elec       q    Type
REMARK                         _______ _______ _______ _____ _____    ______ ____
ROOT
ATOM      1  C   UNL     1       3.305   6.129  18.244  0.00  0.00    +0.000 C 
ATOM      2  S   UNL     1       4.959   5.960  19.085  0.00  0.00    +0.000 S 
ATOM      3  C   UNL     1       4.971   4.412  19.785  0.00  0.00    +0.000 C 
ATOM      4  C   UNL     1       4.059   3.458  19.590  0.00  0.00    +0.000 C 
ATOM      5  C   UNL     1       4.284   2.116  20.243  0.00  0.00    +0.000 C 
ATOM      6  N   UNL     1       2.941   3.652  18.803  0.00  0.00    +0.000 N 
ATOM      7  C   UNL     1       2.562   4.774  18.165  0.00  0.00    +0.000 A 
ATOM      8  N   UNL     1       1.459   4.641  17.489  0.00  0.00    +0.000 NA
ATOM      9  O   UNL     1       1.049   3.299  17.686  0.00  0.00    +0.000 OA
ATOM     10  C   UNL     1       1.985   2.722  18.507  0.00  0.00    +0.000 A 
ATOM     11  O   UNL     1       1.908   1.561  18.880  0.00  0.00    +0.000 OA
ENDROOT
BRANCH   1  12
ATOM     12  C   UNL     1       2.395   7.165  18.972  0.00  0.00    +0.000 A 
ATOM     13  C   UNL     1       1.987   8.346  18.310  0.00  0.00    +0.000 A 
ATOM     14  C   UNL     1       1.332   9.377  18.995  0.00  0.00    +0.000 A 
ATOM     15  C   UNL     1       1.024   9.223  20.341  0.00  0.00    +0.000 A 
ATOM     16 CL   UNL     1       0.281  10.508  21.209  0.00  0.00    +0.000 Cl
ATOM     17  C   UNL     1       1.328   8.034  20.993  0.00  0.00    +0.000 A 
ATOM     18  C   UNL     1       1.990   7.007  20.311  0.00  0.00    +0.000 A 
ENDBRANCH   1  12
BRANCH   1  19
ATOM     19  O   UNL     1       3.534   6.550  16.859  0.00  0.00    +0.000 OA
BRANCH  19  20
ATOM     20  C   UNL     1       4.921   6.732  16.562  0.00  0.00    +0.000 C 
BRANCH  20  22
ATOM     21  C   UNL     1       5.883   5.000  15.089  0.00  0.00    +0.000 C 
ATOM     22  C   UNL     1       5.320   6.220  15.217  0.00  0.00    +0.000 C 
BRANCH  21  24
ATOM     23  C   UNL     1       7.499   4.462  16.955  0.00  0.00    +0.000 C 
ATOM     24  C   UNL     1       6.210   4.083  16.247  0.00  0.00    +0.000 C 
ENDBRANCH  21  24
ENDBRANCH  20  22
ENDBRANCH  19  20
ENDBRANCH   1  19
TORSDOF 5
ENDMDL
