MODEL 1
REMARK VINA RESULT:      -7.7      0.000      0.000
REMARK  Name = 
REMARK  5 active torsions:
REMARK  status: ('A' for Active; 'I' for Inactive)
REMARK    1  A    between atoms: C_1  and  C_2
REMARK    2  A    between atoms: C_2  and  C_15
REMARK    3  A    between atoms: N_3  and  N_4
REMARK    4  A    between atoms: C_5  and  C_7
REMARK    5  A    between atoms: C_13  and  O_14
REMARK                            x       y       z     vdW  Elec       q    Type
REMARK                         _______ _______ _______ _____ _____    ______ ____
ROOT
ATOM      1  C   UNL     1       9.890  10.645  20.064  0.00  0.00    +0.000 C 
ATOM      2  C   UNL     1       9.068  10.604  18.793  0.00  0.00    +0.000 C 
ATOM      3  N   UNL     1       8.814  11.599  17.996  0.00  0.00    +0.000 NA
ENDROOT
BRANCH   2   4
ATOM      4  C   UNL     1       8.513   9.312  18.422  0.00  0.00    +0.000 A 
ATOM      5  C   UNL     1       7.718   8.956  17.348  0.00  0.00    +0.000 A 
ATOM      6  C   UNL     1       7.473   7.557  17.409  0.00  0.00    +0.000 A 
ATOM      7  C   UNL     1       6.777   6.653  16.585  0.00  0.00    +0.000 A 
ATOM      8  C   UNL     1       6.733   5.305  16.952  0.00  0.00    +0.000 A 
ATOM      9 BR   UNL     1       5.833   4.071  15.832  0.00  0.00    +0.000 Br
ATOM     10  C   UNL     1       7.347   4.854  18.117  0.00  0.00    +0.000 A 
ATOM     11  C   UNL     1       8.046   5.739  18.946  0.00  0.00    +0.000 A 
ATOM     12  C   UNL     1       8.102   7.083  18.559  0.00  0.00    +0.000 A 
ATOM     13  N   UNL     1       8.734   8.157  19.146  0.00  0.00    +0.000 N 
ATOM     14  H   UNL     1       9.301   8.125  19.983  0.00  0.00    +0.000 HD
ENDBRANCH   2   4
BRANCH   3  15
ATOM     15  N   UNL     1       9.285  12.843  18.291  0.00  0.00    +0.000 N 
ATOM     16  C   UNL     1      10.426  13.338  17.683  0.00  0.00    +0.000 C 
ATOM     17  O   UNL     1      11.122  12.703  16.887  0.00  0.00    +0.000 OA
ATOM     18  H   UNL     1       8.777  13.464  18.909  0.00  0.00    +0.000 HD
BRANCH  16  19
ATOM     19  C   UNL     1      10.805  14.745  18.038  0.00  0.00    +0.000 A 
ATOM     20  C   UNL     1      10.928  15.061  19.399  0.00  0.00    +0.000 A 
ATOM     21  C   UNL     1      11.297  16.349  19.795  0.00  0.00    +0.000 A 
ATOM     22 BR   UNL     1      11.485  16.754  21.633  0.00  0.00    +0.000 Br
ATOM     23  C   UNL     1      11.538  17.339  18.847  0.00  0.00    +0.000 A 
ATOM     24  C   UNL     1      11.410  17.044  17.489  0.00  0.00    +0.000 A 
ATOM     25  C   UNL     1      11.046  15.755  17.088  0.00  0.00    +0.000 A 
BRANCH  25  26
ATOM     26  O   UNL     1      10.925  15.500  15.746  0.00  0.00    +0.000 OA
ATOM     27  H   UNL     1       9.983  15.347  15.539  0.00  0.00    +0.000 HD
ENDBRANCH  25  26
ENDBRANCH  16  19
ENDBRANCH   3  15
TORSDOF 4
ENDMDL
MODEL 2
REMARK VINA RESULT:      -7.5      9.209     10.375
REMARK  Name = 
REMARK  5 active torsions:
REMARK  status: ('A' for Active; 'I' for Inactive)
REMARK    1  A    between atoms: C_1  and  C_2
REMARK    2  A    between atoms: C_2  and  C_15
REMARK    3  A    between atoms: N_3  and  N_4
REMARK    4  A    between atoms: C_5  and  C_7
REMARK    5  A    between atoms: C_13  and  O_14
REMARK                            x       y       z     vdW  Elec       q    Type
REMARK                         _______ _______ _______ _____ _____    ______ ____
ROOT
ATOM      1  C   UNL     1      -0.156  10.068  18.481  0.00  0.00    +0.000 C 
ATOM      2  C   UNL     1       0.807   9.557  19.533  0.00  0.00    +0.000 C 
ATOM      3  N   UNL     1       0.891   9.950  20.768  0.00  0.00    +0.000 NA
ENDROOT
BRANCH   2   4
ATOM      4  C   UNL     1       1.725   8.510  19.116  0.00  0.00    +0.000 A 
ATOM      5  C   UNL     1       2.421   8.352  17.931  0.00  0.00    +0.000 A 
ATOM      6  C   UNL     1       3.222   7.182  18.027  0.00  0.00    +0.000 A 
ATOM      7  C   UNL     1       4.143   6.558  17.165  0.00  0.00    +0.000 A 
ATOM      8  C   UNL     1       4.771   5.383  17.588  0.00  0.00    +0.000 A 
ATOM      9 BR   UNL     1       6.042   4.553  16.455  0.00  0.00    +0.000 Br
ATOM     10  C   UNL     1       4.486   4.819  18.829  0.00  0.00    +0.000 A 
ATOM     11  C   UNL     1       3.575   5.428  19.700  0.00  0.00    +0.000 A 
ATOM     12  C   UNL     1       2.968   6.616  19.275  0.00  0.00    +0.000 A 
ATOM     13  N   UNL     1       2.073   7.442  19.918  0.00  0.00    +0.000 N 
ATOM     14  H   UNL     1       1.718   7.313  20.858  0.00  0.00    +0.000 HD
ENDBRANCH   2   4
BRANCH   3  15
ATOM     15  N   UNL     1       0.075  10.942  21.224  0.00  0.00    +0.000 N 
ATOM     16  C   UNL     1      -0.387  10.944  22.528  0.00  0.00    +0.000 C 
ATOM     17  O   UNL     1      -0.154  10.057  23.351  0.00  0.00    +0.000 OA
ATOM     18  H   UNL     1      -0.159  11.738  20.642  0.00  0.00    +0.000 HD
BRANCH  16  19
ATOM     19  C   UNL     1      -1.222  12.124  22.930  0.00  0.00    +0.000 A 
ATOM     20  C   UNL     1      -2.504  11.870  23.439  0.00  0.00    +0.000 A 
ATOM     21  C   UNL     1      -3.324  12.924  23.849  0.00  0.00    +0.000 A 
ATOM     22 BR   UNL     1      -5.040  12.565  24.558  0.00  0.00    +0.000 Br
ATOM     23  C   UNL     1      -2.885  14.242  23.748  0.00  0.00    +0.000 A 
ATOM     24  C   UNL     1      -1.617  14.512  23.234  0.00  0.00    +0.000 A 
ATOM     25  C   UNL     1      -0.791  13.460  22.828  0.00  0.00    +0.000 A 
BRANCH  25  26
ATOM     26  O   UNL     1       0.448  13.761  22.323  0.00  0.00    +0.000 OA
ATOM     27  H   UNL     1       0.337  14.307  21.522  0.00  0.00    +0.000 HD
ENDBRANCH  25  26
ENDBRANCH  16  19
ENDBRANCH   3  15
TORSDOF 4
ENDMDL
MODEL 3
REMARK VINA RESULT:      -7.4      1.004      1.004
REMARK  Name = 
REMARK  5 active torsions:
REMARK  status: ('A' for Active; 'I' for Inactive)
REMARK    1  A    between atoms: C_1  and  C_2
REMARK    2  A    between atoms: C_2  and  C_15
REMARK    3  A    between atoms: N_3  and  N_4
REMARK    4  A    between atoms: C_5  and  C_7
REMARK    5  A    between atoms: C_13  and  O_14
REMARK                            x       y       z     vdW  Elec       q    Type
REMARK                         _______ _______ _______ _____ _____    ______ ____
ROOT
ATOM      1  C   UNL     1       9.584  10.658  20.133  0.00  0.00    +0.000 C 
ATOM      2  C   UNL     1       9.166  10.443  18.693  0.00  0.00    +0.000 C 
ATOM      3  N   UNL     1       9.333  11.267  17.702  0.00  0.00    +0.000 NA
ENDROOT
BRANCH   2   4
ATOM      4  C   UNL     1       8.521   9.177  18.389  0.00  0.00    +0.000 A 
ATOM      5  C   UNL     1       7.606   8.854  17.402  0.00  0.00    +0.000 A 
ATOM      6  C   UNL     1       7.307   7.468  17.496  0.00  0.00    +0.000 A 
ATOM      7  C   UNL     1       6.492   6.594  16.753  0.00  0.00    +0.000 A 
ATOM      8  C   UNL     1       6.426   5.250  17.130  0.00  0.00    +0.000 A 
ATOM      9 BR   UNL     1       5.364   4.055  16.116  0.00  0.00    +0.000 Br
ATOM     10  C   UNL     1       7.135   4.774  18.231  0.00  0.00    +0.000 A 
ATOM     11  C   UNL     1       7.952   5.629  18.979  0.00  0.00    +0.000 A 
ATOM     12  C   UNL     1       8.028   6.968  18.580  0.00  0.00    +0.000 A 
ATOM     13  N   UNL     1       8.762   8.014  19.093  0.00  0.00    +0.000 N 
ATOM     14  H   UNL     1       9.410   7.958  19.869  0.00  0.00    +0.000 HD
ENDBRANCH   2   4
BRANCH   3  15
ATOM     15  N   UNL     1       9.913  12.482  17.918  0.00  0.00    +0.000 N 
ATOM     16  C   UNL     1       9.151  13.635  17.986  0.00  0.00    +0.000 C 
ATOM     17  O   UNL     1       7.931  13.676  17.813  0.00  0.00    +0.000 OA
ATOM     18  H   UNL     1      10.905  12.564  18.102  0.00  0.00    +0.000 HD
BRANCH  16  19
ATOM     19  C   UNL     1       9.895  14.900  18.295  0.00  0.00    +0.000 A 
ATOM     20  C   UNL     1       9.617  15.536  19.514  0.00  0.00    +0.000 A 
ATOM     21  C   UNL     1      10.290  16.707  19.871  0.00  0.00    +0.000 A 
ATOM     22 BR   UNL     1       9.925  17.539  21.529  0.00  0.00    +0.000 Br
ATOM     23  C   UNL     1      11.238  17.265  19.017  0.00  0.00    +0.000 A 
ATOM     24  C   UNL     1      11.519  16.651  17.796  0.00  0.00    +0.000 A 
ATOM     25  C   UNL     1      10.851  15.476  17.438  0.00  0.00    +0.000 A 
BRANCH  25  26
ATOM     26  O   UNL     1      11.148  14.900  16.229  0.00  0.00    +0.000 OA
ATOM     27  H   UNL     1      10.411  14.315  15.971  0.00  0.00    +0.000 HD
ENDBRANCH  25  26
ENDBRANCH  16  19
ENDBRANCH   3  15
TORSDOF 4
ENDMDL
MODEL 4
REMARK VINA RESULT:      -7.4      8.508      9.791
REMARK  Name = 
REMARK  5 active torsions:
REMARK  status: ('A' for Active; 'I' for Inactive)
REMARK    1  A    between atoms: C_1  and  C_2
REMARK    2  A    between atoms: C_2  and  C_15
REMARK    3  A    between atoms: N_3  and  N_4
REMARK    4  A    between atoms: C_5  and  C_7
REMARK    5  A    between atoms: C_13  and  O_14
REMARK                            x       y       z     vdW  Elec       q    Type
REMARK                         _______ _______ _______ _____ _____    ______ ____
ROOT
ATOM      1  C   UNL     1       1.586   6.432  20.775  0.00  0.00    +0.000 C 
ATOM      2  C   UNL     1       2.029   7.298  19.614  0.00  0.00    +0.000 C 
ATOM      3  N   UNL     1       1.716   8.542  19.406  0.00  0.00    +0.000 NA
ENDROOT
BRANCH   2   4
ATOM      4  C   UNL     1       2.904   6.671  18.637  0.00  0.00    +0.000 A 
ATOM      5  C   UNL     1       3.669   7.235  17.631  0.00  0.00    +0.000 A 
ATOM      6  C   UNL     1       4.383   6.199  16.970  0.00  0.00    +0.000 A 
ATOM      7  C   UNL     1       5.319   6.178  15.920  0.00  0.00    +0.000 A 
ATOM      8  C   UNL     1       5.839   4.948  15.505  0.00  0.00    +0.000 A 
ATOM      9 BR   UNL     1       7.129   4.909  14.119  0.00  0.00    +0.000 Br
ATOM     10  C   UNL     1       5.432   3.756  16.099  0.00  0.00    +0.000 A 
ATOM     11  C   UNL     1       4.504   3.759  17.146  0.00  0.00    +0.000 A 
ATOM     12  C   UNL     1       4.006   4.998  17.568  0.00  0.00    +0.000 A 
ATOM     13  N   UNL     1       3.124   5.310  18.579  0.00  0.00    +0.000 N 
ATOM     14  H   UNL     1       2.697   4.649  19.217  0.00  0.00    +0.000 HD
ENDBRANCH   2   4
BRANCH   3  15
ATOM     15  N   UNL     1       0.884   9.188  20.271  0.00  0.00    +0.000 N 
ATOM     16  C   UNL     1       0.485  10.492  20.038  0.00  0.00    +0.000 C 
ATOM     17  O   UNL     1       0.871  11.180  19.091  0.00  0.00    +0.000 OA
ATOM     18  H   UNL     1       0.481   8.710  21.068  0.00  0.00    +0.000 HD
BRANCH  16  19
ATOM     19  C   UNL     1      -0.486  11.071  21.024  0.00  0.00    +0.000 A 
ATOM     20  C   UNL     1      -1.502  11.900  20.525  0.00  0.00    +0.000 A 
ATOM     21  C   UNL     1      -2.449  12.455  21.389  0.00  0.00    +0.000 A 
ATOM     22 BR   UNL     1      -3.829  13.549  20.701  0.00  0.00    +0.000 Br
ATOM     23  C   UNL     1      -2.393  12.202  22.758  0.00  0.00    +0.000 A 
ATOM     24  C   UNL     1      -1.382  11.388  23.271  0.00  0.00    +0.000 A 
ATOM     25  C   UNL     1      -0.435  10.827  22.409  0.00  0.00    +0.000 A 
BRANCH  25  26
ATOM     26  O   UNL     1       0.547  10.035  22.946  0.00  0.00    +0.000 OA
ATOM     27  H   UNL     1       1.416  10.423  22.731  0.00  0.00    +0.000 HD
ENDBRANCH  25  26
ENDBRANCH  16  19
ENDBRANCH   3  15
TORSDOF 4
ENDMDL
MODEL 5
REMARK VINA RESULT:      -7.3      8.694     11.836
REMARK  Name = 
REMARK  5 active torsions:
REMARK  status: ('A' for Active; 'I' for Inactive)
REMARK    1  A    between atoms: C_1  and  C_2
REMARK    2  A    between atoms: C_2  and  C_15
REMARK    3  A    between atoms: N_3  and  N_4
REMARK    4  A    between atoms: C_5  and  C_7
REMARK    5  A    between atoms: C_13  and  O_14
REMARK                            x       y       z     vdW  Elec       q    Type
REMARK                         _______ _______ _______ _____ _____    ______ ____
ROOT
ATOM      1  C   UNL     1       1.697  10.069  18.003  0.00  0.00    +0.000 C 
ATOM      2  C   UNL     1       1.190   9.478  19.302  0.00  0.00    +0.000 C 
ATOM      3  N   UNL     1       1.510   8.327  19.811  0.00  0.00    +0.000 NA
ENDROOT
BRANCH   2   4
ATOM      4  C   UNL     1       0.253  10.291  20.060  0.00  0.00    +0.000 A 
ATOM      5  C   UNL     1      -0.579  11.315  19.646  0.00  0.00    +0.000 A 
ATOM      6  C   UNL     1      -1.333  11.767  20.763  0.00  0.00    +0.000 A 
ATOM      7  C   UNL     1      -2.338  12.737  20.933  0.00  0.00    +0.000 A 
ATOM      8  C   UNL     1      -2.880  12.931  22.207  0.00  0.00    +0.000 A 
ATOM      9 BR   UNL     1      -4.260  14.206  22.442  0.00  0.00    +0.000 Br
ATOM     10  C   UNL     1      -2.430  12.195  23.301  0.00  0.00    +0.000 A 
ATOM     11  C   UNL     1      -1.433  11.225  23.149  0.00  0.00    +0.000 A 
ATOM     12  C   UNL     1      -0.913  11.024  21.866  0.00  0.00    +0.000 A 
ATOM     13  N   UNL     1       0.034  10.132  21.414  0.00  0.00    +0.000 N 
ATOM     14  H   UNL     1       0.505   9.434  21.976  0.00  0.00    +0.000 HD
ENDBRANCH   2   4
BRANCH   3  15
ATOM     15  N   UNL     1       2.368   7.503  19.145  0.00  0.00    +0.000 N 
ATOM     16  C   UNL     1       2.408   6.146  19.414  0.00  0.00    +0.000 C 
ATOM     17  O   UNL     1       1.735   5.587  20.282  0.00  0.00    +0.000 OA
ATOM     18  H   UNL     1       2.948   7.849  18.390  0.00  0.00    +0.000 HD
BRANCH  16  19
ATOM     19  C   UNL     1       3.344   5.334  18.568  0.00  0.00    +0.000 A 
ATOM     20  C   UNL     1       4.718   5.588  18.692  0.00  0.00    +0.000 A 
ATOM     21  C   UNL     1       5.643   4.853  17.946  0.00  0.00    +0.000 A 
ATOM     22 BR   UNL     1       7.493   5.187  18.143  0.00  0.00    +0.000 Br
ATOM     23  C   UNL     1       5.214   3.866  17.062  0.00  0.00    +0.000 A 
ATOM     24  C   UNL     1       3.850   3.609  16.919  0.00  0.00    +0.000 A 
ATOM     25  C   UNL     1       2.922   4.338  17.667  0.00  0.00    +0.000 A 
BRANCH  25  26
ATOM     26  O   UNL     1       1.589   4.063  17.500  0.00  0.00    +0.000 OA
ATOM     27  H   UNL     1       1.479   3.100  17.385  0.00  0.00    +0.000 HD
ENDBRANCH  25  26
ENDBRANCH  16  19
ENDBRANCH   3  15
TORSDOF 4
ENDMDL
MODEL 6
REMARK VINA RESULT:      -7.3      8.800     11.951
REMARK  Name = 
REMARK  5 active torsions:
REMARK  status: ('A' for Active; 'I' for Inactive)
REMARK    1  A    between atoms: C_1  and  C_2
REMARK    2  A    between atoms: C_2  and  C_15
REMARK    3  A    between atoms: N_3  and  N_4
REMARK    4  A    between atoms: C_5  and  C_7
REMARK    5  A    between atoms: C_13  and  O_14
REMARK                            x       y       z     vdW  Elec       q    Type
REMARK                         _______ _______ _______ _____ _____    ______ ____
ROOT
ATOM      1  C   UNL     1       1.518  10.048  18.158  0.00  0.00    +0.000 C 
ATOM      2  C   UNL     1       1.076   9.463  19.484  0.00  0.00    +0.000 C 
ATOM      3  N   UNL     1       1.465   8.341  20.009  0.00  0.00    +0.000 NA
ENDROOT
BRANCH   2   4
ATOM      4  C   UNL     1       0.123  10.249  20.251  0.00  0.00    +0.000 A 
ATOM      5  C   UNL     1      -0.196  10.202  21.596  0.00  0.00    +0.000 A 
ATOM      6  C   UNL     1      -1.164  11.206  21.868  0.00  0.00    +0.000 A 
ATOM      7  C   UNL     1      -1.817  11.640  23.037  0.00  0.00    +0.000 A 
ATOM      8  C   UNL     1      -2.741  12.685  22.945  0.00  0.00    +0.000 A 
ATOM      9 BR   UNL     1      -3.597  13.304  24.516  0.00  0.00    +0.000 Br
ATOM     10  C   UNL     1      -3.033  13.283  21.722  0.00  0.00    +0.000 A 
ATOM     11  C   UNL     1      -2.391  12.866  20.550  0.00  0.00    +0.000 A 
ATOM     12  C   UNL     1      -1.452  11.834  20.657  0.00  0.00    +0.000 A 
ATOM     13  N   UNL     1      -0.654  11.249  19.700  0.00  0.00    +0.000 N 
ATOM     14  H   UNL     1      -0.612  11.511  18.723  0.00  0.00    +0.000 HD
ENDBRANCH   2   4
BRANCH   3  15
ATOM     15  N   UNL     1       2.342   7.543  19.337  0.00  0.00    +0.000 N 
ATOM     16  C   UNL     1       2.345   6.172  19.521  0.00  0.00    +0.000 C 
ATOM     17  O   UNL     1       1.619   5.574  20.318  0.00  0.00    +0.000 OA
ATOM     18  H   UNL     1       2.966   7.923  18.635  0.00  0.00    +0.000 HD
BRANCH  16  19
ATOM     19  C   UNL     1       3.310   5.395  18.675  0.00  0.00    +0.000 A 
ATOM     20  C   UNL     1       4.678   5.660  18.839  0.00  0.00    +0.000 A 
ATOM     21  C   UNL     1       5.628   4.957  18.095  0.00  0.00    +0.000 A 
ATOM     22 BR   UNL     1       7.470   5.304  18.346  0.00  0.00    +0.000 Br
ATOM     23  C   UNL     1       5.232   3.993  17.172  0.00  0.00    +0.000 A 
ATOM     24  C   UNL     1       3.875   3.726  16.988  0.00  0.00    +0.000 A 
ATOM     25  C   UNL     1       2.921   4.423  17.735  0.00  0.00    +0.000 A 
BRANCH  25  26
ATOM     26  O   UNL     1       1.595   4.138  17.527  0.00  0.00    +0.000 OA
ATOM     27  H   UNL     1       1.081   4.964  17.607  0.00  0.00    +0.000 HD
ENDBRANCH  25  26
ENDBRANCH  16  19
ENDBRANCH   3  15
TORSDOF 4
ENDMDL
MODEL 7
REMARK VINA RESULT:      -7.2      9.105     12.406
REMARK  Name = 
REMARK  5 active torsions:
REMARK  status: ('A' for Active; 'I' for Inactive)
REMARK    1  A    between atoms: C_1  and  C_2
REMARK    2  A    between atoms: C_2  and  C_15
REMARK    3  A    between atoms: N_3  and  N_4
REMARK    4  A    between atoms: C_5  and  C_7
REMARK    5  A    between atoms: C_13  and  O_14
REMARK                            x       y       z     vdW  Elec       q    Type
REMARK                         _______ _______ _______ _____ _____    ______ ____
ROOT
ATOM      1  C   UNL     1       1.512   8.974  18.232  0.00  0.00    +0.000 C 
ATOM      2  C   UNL     1       1.440   8.797  19.734  0.00  0.00    +0.000 C 
ATOM      3  N   UNL     1       1.869   7.780  20.420  0.00  0.00    +0.000 NA
ENDROOT
BRANCH   2   4
ATOM      4  C   UNL     1       0.835   9.885  20.486  0.00  0.00    +0.000 A 
ATOM      5  C   UNL     1       1.010  11.252  20.375  0.00  0.00    +0.000 A 
ATOM      6  C   UNL     1       0.159  11.896  21.313  0.00  0.00    +0.000 A 
ATOM      7  C   UNL     1      -0.110  13.243  21.622  0.00  0.00    +0.000 A 
ATOM      8  C   UNL     1      -1.030  13.531  22.634  0.00  0.00    +0.000 A 
ATOM      9 BR   UNL     1      -1.431  15.338  23.032  0.00  0.00    +0.000 Br
ATOM     10  C   UNL     1      -1.663  12.514  23.344  0.00  0.00    +0.000 A 
ATOM     11  C   UNL     1      -1.409  11.170  23.049  0.00  0.00    +0.000 A 
ATOM     12  C   UNL     1      -0.502  10.892  22.020  0.00  0.00    +0.000 A 
ATOM     13  N   UNL     1      -0.088   9.689  21.493  0.00  0.00    +0.000 N 
ATOM     14  H   UNL     1      -0.415   8.774  21.778  0.00  0.00    +0.000 HD
ENDBRANCH   2   4
BRANCH   3  15
ATOM     15  N   UNL     1       2.429   6.715  19.780  0.00  0.00    +0.000 N 
ATOM     16  C   UNL     1       1.953   5.431  19.979  0.00  0.00    +0.000 C 
ATOM     17  O   UNL     1       1.048   5.137  20.763  0.00  0.00    +0.000 OA
ATOM     18  H   UNL     1       3.161   6.842  19.091  0.00  0.00    +0.000 HD
BRANCH  16  19
ATOM     19  C   UNL     1       2.606   4.352  19.166  0.00  0.00    +0.000 A 
ATOM     20  C   UNL     1       3.453   4.749  18.121  0.00  0.00    +0.000 A 
ATOM     21  C   UNL     1       4.106   3.794  17.338  0.00  0.00    +0.000 A 
ATOM     22 BR   UNL     1       5.266   4.343  15.950  0.00  0.00    +0.000 Br
ATOM     23  C   UNL     1       3.918   2.435  17.578  0.00  0.00    +0.000 A 
ATOM     24  C   UNL     1       3.071   2.024  18.608  0.00  0.00    +0.000 A 
ATOM     25  C   UNL     1       2.419   2.977  19.396  0.00  0.00    +0.000 A 
BRANCH  25  26
ATOM     26  O   UNL     1       1.590   2.538  20.397  0.00  0.00    +0.000 OA
ATOM     27  H   UNL     1       2.135   2.275  21.163  0.00  0.00    +0.000 HD
ENDBRANCH  25  26
ENDBRANCH  16  19
ENDBRANCH   3  15
TORSDOF 4
ENDMDL
MODEL 8
REMARK VINA RESULT:      -7.1      9.105     12.386
REMARK  Name = 
REMARK  5 active torsions:
REMARK  status: ('A' for Active; 'I' for Inactive)
REMARK    1  A    between atoms: C_1  and  C_2
REMARK    2  A    between atoms: C_2  and  C_15
REMARK    3  A    between atoms: N_3  and  N_4
REMARK    4  A    between atoms: C_5  and  C_7
REMARK    5  A    between atoms: C_13  and  O_14
REMARK                            x       y       z     vdW  Elec       q    Type
REMARK                         _______ _______ _______ _____ _____    ______ ____
ROOT
ATOM      1  C   UNL     1       1.648   9.010  18.202  0.00  0.00    +0.000 C 
ATOM      2  C   UNL     1       1.483   8.833  19.697  0.00  0.00    +0.000 C 
ATOM      3  N   UNL     1       1.851   7.808  20.405  0.00  0.00    +0.000 NA
ENDROOT
BRANCH   2   4
ATOM      4  C   UNL     1       0.854   9.931  20.413  0.00  0.00    +0.000 A 
ATOM      5  C   UNL     1      -0.167   9.920  21.347  0.00  0.00    +0.000 A 
ATOM      6  C   UNL     1      -0.396  11.253  21.783  0.00  0.00    +0.000 A 
ATOM      7  C   UNL     1      -1.265  11.834  22.726  0.00  0.00    +0.000 A 
ATOM      8  C   UNL     1      -1.230  13.219  22.910  0.00  0.00    +0.000 A 
ATOM      9 BR   UNL     1      -2.365  14.010  24.203  0.00  0.00    +0.000 Br
ATOM     10  C   UNL     1      -0.368  14.024  22.169  0.00  0.00    +0.000 A 
ATOM     11  C   UNL     1       0.504  13.462  21.229  0.00  0.00    +0.000 A 
ATOM     12  C   UNL     1       0.476  12.072  21.068  0.00  0.00    +0.000 A 
ATOM     13  N   UNL     1       1.228  11.250  20.258  0.00  0.00    +0.000 N 
ATOM     14  H   UNL     1       1.972  11.549  19.639  0.00  0.00    +0.000 HD
ENDBRANCH   2   4
BRANCH   3  15
ATOM     15  N   UNL     1       2.429   6.734  19.798  0.00  0.00    +0.000 N 
ATOM     16  C   UNL     1       1.946   5.453  20.000  0.00  0.00    +0.000 C 
ATOM     17  O   UNL     1       1.016   5.171  20.759  0.00  0.00    +0.000 OA
ATOM     18  H   UNL     1       3.182   6.850  19.130  0.00  0.00    +0.000 HD
BRANCH  16  19
ATOM     19  C   UNL     1       2.622   4.362  19.223  0.00  0.00    +0.000 A 
ATOM     20  C   UNL     1       3.436   4.741  18.146  0.00  0.00    +0.000 A 
ATOM     21  C   UNL     1       4.109   3.775  17.394  0.00  0.00    +0.000 A 
ATOM     22 BR   UNL     1       5.225   4.301  15.962  0.00  0.00    +0.000 Br
ATOM     23  C   UNL     1       3.973   2.423  17.696  0.00  0.00    +0.000 A 
ATOM     24  C   UNL     1       3.158   2.028  18.758  0.00  0.00    +0.000 A 
ATOM     25  C   UNL     1       2.487   2.992  19.516  0.00  0.00    +0.000 A 
BRANCH  25  26
ATOM     26  O   UNL     1       1.691   2.570  20.550  0.00  0.00    +0.000 OA
ATOM     27  H   UNL     1       1.061   1.907  20.211  0.00  0.00    +0.000 HD
ENDBRANCH  25  26
ENDBRANCH  16  19
ENDBRANCH   3  15
TORSDOF 4
ENDMDL
MODEL 9
REMARK VINA RESULT:      -7.1      8.732     10.043
REMARK  Name = 
REMARK  5 active torsions:
REMARK  status: ('A' for Active; 'I' for Inactive)
REMARK    1  A    between atoms: C_1  and  C_2
REMARK    2  A    between atoms: C_2  and  C_15
REMARK    3  A    between atoms: N_3  and  N_4
REMARK    4  A    between atoms: C_5  and  C_7
REMARK    5  A    between atoms: C_13  and  O_14
REMARK                            x       y       z     vdW  Elec       q    Type
REMARK                         _______ _______ _______ _____ _____    ______ ____
ROOT
ATOM      1  C   UNL     1       1.103   8.281  21.371  0.00  0.00    +0.000 C 
ATOM      2  C   UNL     1       1.452   8.613  19.935  0.00  0.00    +0.000 C 
ATOM      3  N   UNL     1       1.061   9.650  19.258  0.00  0.00    +0.000 NA
ENDROOT
BRANCH   2   4
ATOM      4  C   UNL     1       2.326   7.675  19.249  0.00  0.00    +0.000 A 
ATOM      5  C   UNL     1       2.897   7.742  17.991  0.00  0.00    +0.000 A 
ATOM      6  C   UNL     1       3.707   6.591  17.798  0.00  0.00    +0.000 A 
ATOM      7  C   UNL     1       4.537   6.147  16.751  0.00  0.00    +0.000 A 
ATOM      8  C   UNL     1       5.209   4.930  16.894  0.00  0.00    +0.000 A 
ATOM      9 BR   UNL     1       6.359   4.340  15.511  0.00  0.00    +0.000 Br
ATOM     10  C   UNL     1       5.056   4.152  18.039  0.00  0.00    +0.000 A 
ATOM     11  C   UNL     1       4.237   4.579  19.091  0.00  0.00    +0.000 A 
ATOM     12  C   UNL     1       3.586   5.810  18.946  0.00  0.00    +0.000 A 
ATOM     13  N   UNL     1       2.759   6.491  19.812  0.00  0.00    +0.000 N 
ATOM     14  H   UNL     1       2.503   6.192  20.745  0.00  0.00    +0.000 HD
ENDBRANCH   2   4
BRANCH   3  15
ATOM     15  N   UNL     1       0.224  10.560  19.831  0.00  0.00    +0.000 N 
ATOM     16  C   UNL     1      -0.949  10.945  19.205  0.00  0.00    +0.000 C 
ATOM     17  O   UNL     1      -1.305  10.555  18.091  0.00  0.00    +0.000 OA
ATOM     18  H   UNL     1       0.402  10.926  20.758  0.00  0.00    +0.000 HD
BRANCH  16  19
ATOM     19  C   UNL     1      -1.819  11.901  19.966  0.00  0.00    +0.000 A 
ATOM     20  C   UNL     1      -1.328  12.399  21.182  0.00  0.00    +0.000 A 
ATOM     21  C   UNL     1      -2.081  13.307  21.930  0.00  0.00    +0.000 A 
ATOM     22 BR   UNL     1      -1.396  13.992  23.554  0.00  0.00    +0.000 Br
ATOM     23  C   UNL     1      -3.334  13.723  21.484  0.00  0.00    +0.000 A 
ATOM     24  C   UNL     1      -3.841  13.229  20.282  0.00  0.00    +0.000 A 
ATOM     25  C   UNL     1      -3.088  12.324  19.529  0.00  0.00    +0.000 A 
BRANCH  25  26
ATOM     26  O   UNL     1      -3.618  11.855  18.354  0.00  0.00    +0.000 OA
ATOM     27  H   UNL     1      -3.166  12.293  17.608  0.00  0.00    +0.000 HD
ENDBRANCH  25  26
ENDBRANCH  16  19
ENDBRANCH   3  15
TORSDOF 4
ENDMDL
