MODEL 1
REMARK VINA RESULT:      -7.4      0.000      0.000
REMARK  Name = 
REMARK  8 active torsions:
REMARK  status: ('A' for Active; 'I' for Inactive)
REMARK    1  A    between atoms: C_1  and  C_2
REMARK    2  A    between atoms: C_3  and  C_4
REMARK    3  A    between atoms: C_5  and  C_6
REMARK    4  A    between atoms: N_8  and  C_9
REMARK    5  A    between atoms: C_9  and  C_10
REMARK    6  A    between atoms: N_15  and  C_16
REMARK    7  A    between atoms: C_16  and  C_17
REMARK    8  A    between atoms: C_24  and  C_25
REMARK                            x       y       z     vdW  Elec       q    Type
REMARK                         _______ _______ _______ _____ _____    ______ ____
ROOT
ATOM      1  C   UNL     1       7.516   5.598  14.261  0.00  0.00    +0.000 C 
ATOM      2  C   UNL     1       6.549   5.192  15.326  0.00  0.00    +0.000 A 
ATOM      3  C   UNL     1       5.488   4.234  15.239  0.00  0.00    +0.000 A 
ATOM      4  C   UNL     1       5.205   3.370  14.051  0.00  0.00    +0.000 C 
ATOM      5  C   UNL     1       4.824   4.217  16.473  0.00  0.00    +0.000 A 
ATOM      6  N   UNL     1       5.487   5.132  17.291  0.00  0.00    +0.000 N 
ATOM      7  C   UNL     1       6.571   5.668  16.623  0.00  0.00    +0.000 A 
ATOM      8  C   UNL     1       7.557   6.602  17.246  0.00  0.00    +0.000 C 
ENDROOT
BRANCH   5   9
ATOM      9  C   UNL     1       3.703   3.388  16.931  0.00  0.00    +0.000 C 
ATOM     10  O   UNL     1       2.544   3.561  16.575  0.00  0.00    +0.000 OA
ATOM     11  N   UNL     1       4.034   2.375  17.797  0.00  0.00    +0.000 N 
ATOM     12  H   UNL     1       4.993   2.073  17.844  0.00  0.00    +0.000 HD
BRANCH  11  13
ATOM     13  C   UNL     1       3.033   1.530  18.408  0.00  0.00    +0.000 C 
BRANCH  13  14
ATOM     14  C   UNL     1       2.378   2.243  19.528  0.00  0.00    +0.000 A 
ATOM     15  C   UNL     1       1.115   2.769  19.700  0.00  0.00    +0.000 A 
ATOM     16  C   UNL     1       1.104   3.379  20.977  0.00  0.00    +0.000 A 
ATOM     17  C   UNL     1       2.359   3.185  21.505  0.00  0.00    +0.000 A 
ATOM     18  O   UNL     1       3.141   2.493  20.635  0.00  0.00    +0.000 OA
ENDBRANCH  13  14
ENDBRANCH  11  13
ENDBRANCH   5   9
BRANCH   6  19
ATOM     19  C   UNL     1       5.033   5.559  18.622  0.00  0.00    +0.000 C 
BRANCH  19  20
ATOM     20  C   UNL     1       3.849   6.504  18.647  0.00  0.00    +0.000 A 
ATOM     21  C   UNL     1       3.600   7.468  17.658  0.00  0.00    +0.000 A 
ATOM     22  C   UNL     1       2.555   8.385  17.805  0.00  0.00    +0.000 A 
ATOM     23  C   UNL     1       1.744   8.328  18.931  0.00  0.00    +0.000 A 
ATOM     24  F   UNL     1       0.770   9.234  19.089  0.00  0.00    +0.000 F 
ATOM     25  C   UNL     1       1.935   7.352  19.897  0.00  0.00    +0.000 A 
ATOM     26  C   UNL     1       2.980   6.437  19.754  0.00  0.00    +0.000 A 
ENDBRANCH  19  20
ENDBRANCH   6  19
TORSDOF 5
ENDMDL
MODEL 2
REMARK VINA RESULT:      -7.1      2.066      5.093
REMARK  Name = 
REMARK  8 active torsions:
REMARK  status: ('A' for Active; 'I' for Inactive)
REMARK    1  A    between atoms: C_1  and  C_2
REMARK    2  A    between atoms: C_3  and  C_4
REMARK    3  A    between atoms: C_5  and  C_6
REMARK    4  A    between atoms: N_8  and  C_9
REMARK    5  A    between atoms: C_9  and  C_10
REMARK    6  A    between atoms: N_15  and  C_16
REMARK    7  A    between atoms: C_16  and  C_17
REMARK    8  A    between atoms: C_24  and  C_25
REMARK                            x       y       z     vdW  Elec       q    Type
REMARK                         _______ _______ _______ _____ _____    ______ ____
ROOT
ATOM      1  C   UNL     1       0.717   1.882  19.037  0.00  0.00    +0.000 C 
ATOM      2  C   UNL     1       1.694   2.991  18.818  0.00  0.00    +0.000 A 
ATOM      3  C   UNL     1       2.796   3.033  17.904  0.00  0.00    +0.000 A 
ATOM      4  C   UNL     1       3.122   1.971  16.902  0.00  0.00    +0.000 C 
ATOM      5  C   UNL     1       3.453   4.259  18.079  0.00  0.00    +0.000 A 
ATOM      6  N   UNL     1       2.746   4.948  19.065  0.00  0.00    +0.000 N 
ATOM      7  C   UNL     1       1.644   4.214  19.461  0.00  0.00    +0.000 A 
ATOM      8  C   UNL     1       0.617   4.706  20.426  0.00  0.00    +0.000 C 
ENDROOT
BRANCH   5   9
ATOM      9  C   UNL     1       4.605   4.824  17.367  0.00  0.00    +0.000 C 
ATOM     10  O   UNL     1       4.511   5.699  16.516  0.00  0.00    +0.000 OA
ATOM     11  N   UNL     1       5.828   4.311  17.723  0.00  0.00    +0.000 N 
ATOM     12  H   UNL     1       5.911   3.826  18.600  0.00  0.00    +0.000 HD
BRANCH  11  13
ATOM     13  C   UNL     1       7.047   4.698  17.050  0.00  0.00    +0.000 C 
BRANCH  13  14
ATOM     14  C   UNL     1       7.523   6.001  17.568  0.00  0.00    +0.000 A 
ATOM     15  C   UNL     1       8.033   6.402  18.786  0.00  0.00    +0.000 A 
ATOM     16  C   UNL     1       8.261   7.794  18.687  0.00  0.00    +0.000 A 
ATOM     17  C   UNL     1       7.880   8.156  17.416  0.00  0.00    +0.000 A 
ATOM     18  O   UNL     1       7.433   7.074  16.725  0.00  0.00    +0.000 OA
ENDBRANCH  13  14
ENDBRANCH  11  13
ENDBRANCH   5   9
BRANCH   6  19
ATOM     19  C   UNL     1       3.174   6.210  19.685  0.00  0.00    +0.000 C 
BRANCH  19  20
ATOM     20  C   UNL     1       2.368   7.438  19.313  0.00  0.00    +0.000 A 
ATOM     21  C   UNL     1       2.326   7.981  18.020  0.00  0.00    +0.000 A 
ATOM     22  C   UNL     1       1.656   9.183  17.775  0.00  0.00    +0.000 A 
ATOM     23  C   UNL     1       1.010   9.835  18.817  0.00  0.00    +0.000 A 
ATOM     24  F   UNL     1       0.405  11.008  18.587  0.00  0.00    +0.000 F 
ATOM     25  C   UNL     1       0.991   9.293  20.093  0.00  0.00    +0.000 A 
ATOM     26  C   UNL     1       1.662   8.094  20.341  0.00  0.00    +0.000 A 
ENDBRANCH  19  20
ENDBRANCH   6  19
TORSDOF 5
ENDMDL
MODEL 3
REMARK VINA RESULT:      -7.1      1.959      5.303
REMARK  Name = 
REMARK  8 active torsions:
REMARK  status: ('A' for Active; 'I' for Inactive)
REMARK    1  A    between atoms: C_1  and  C_2
REMARK    2  A    between atoms: C_3  and  C_4
REMARK    3  A    between atoms: C_5  and  C_6
REMARK    4  A    between atoms: N_8  and  C_9
REMARK    5  A    between atoms: C_9  and  C_10
REMARK    6  A    between atoms: N_15  and  C_16
REMARK    7  A    between atoms: C_16  and  C_17
REMARK    8  A    between atoms: C_24  and  C_25
REMARK                            x       y       z     vdW  Elec       q    Type
REMARK                         _______ _______ _______ _____ _____    ______ ____
ROOT
ATOM      1  C   UNL     1       1.500   1.905  19.234  0.00  0.00    +0.000 C 
ATOM      2  C   UNL     1       2.262   3.155  18.934  0.00  0.00    +0.000 A 
ATOM      3  C   UNL     1       3.261   3.364  17.930  0.00  0.00    +0.000 A 
ATOM      4  C   UNL     1       3.669   2.357  16.901  0.00  0.00    +0.000 C 
ATOM      5  C   UNL     1       3.722   4.682  18.051  0.00  0.00    +0.000 A 
ATOM      6  N   UNL     1       2.999   5.259  19.095  0.00  0.00    +0.000 N 
ATOM      7  C   UNL     1       2.068   4.361  19.582  0.00  0.00    +0.000 A 
ATOM      8  C   UNL     1       1.060   4.692  20.633  0.00  0.00    +0.000 C 
ENDROOT
BRANCH   5   9
ATOM      9  C   UNL     1       4.703   5.418  17.244  0.00  0.00    +0.000 C 
ATOM     10  O   UNL     1       4.434   6.433  16.614  0.00  0.00    +0.000 OA
ATOM     11  N   UNL     1       5.974   4.898  17.242  0.00  0.00    +0.000 N 
ATOM     12  H   UNL     1       6.236   4.261  17.975  0.00  0.00    +0.000 HD
BRANCH  11  13
ATOM     13  C   UNL     1       7.028   5.455  16.425  0.00  0.00    +0.000 C 
BRANCH  13  14
ATOM     14  C   UNL     1       6.926   4.940  15.041  0.00  0.00    +0.000 A 
ATOM     15  C   UNL     1       6.178   3.937  14.461  0.00  0.00    +0.000 A 
ATOM     16  C   UNL     1       6.558   3.887  13.099  0.00  0.00    +0.000 A 
ATOM     17  C   UNL     1       7.512   4.864  12.932  0.00  0.00    +0.000 A 
ATOM     18  O   UNL     1       7.742   5.513  14.104  0.00  0.00    +0.000 OA
ENDBRANCH  13  14
ENDBRANCH  11  13
ENDBRANCH   5   9
BRANCH   6  19
ATOM     19  C   UNL     1       3.267   6.581  19.678  0.00  0.00    +0.000 C 
BRANCH  19  20
ATOM     20  C   UNL     1       2.283   7.676  19.320  0.00  0.00    +0.000 A 
ATOM     21  C   UNL     1       2.092   8.155  18.014  0.00  0.00    +0.000 A 
ATOM     22  C   UNL     1       1.255   9.248  17.773  0.00  0.00    +0.000 A 
ATOM     23  C   UNL     1       0.591   9.852  18.833  0.00  0.00    +0.000 A 
ATOM     24  F   UNL     1      -0.179  10.925  18.604  0.00  0.00    +0.000 F 
ATOM     25  C   UNL     1       0.720   9.366  20.125  0.00  0.00    +0.000 A 
ATOM     26  C   UNL     1       1.559   8.277  20.369  0.00  0.00    +0.000 A 
ENDBRANCH  19  20
ENDBRANCH   6  19
TORSDOF 5
ENDMDL
MODEL 4
REMARK VINA RESULT:      -7.1      2.443      5.237
REMARK  Name = 
REMARK  8 active torsions:
REMARK  status: ('A' for Active; 'I' for Inactive)
REMARK    1  A    between atoms: C_1  and  C_2
REMARK    2  A    between atoms: C_3  and  C_4
REMARK    3  A    between atoms: C_5  and  C_6
REMARK    4  A    between atoms: N_8  and  C_9
REMARK    5  A    between atoms: C_9  and  C_10
REMARK    6  A    between atoms: N_15  and  C_16
REMARK    7  A    between atoms: C_16  and  C_17
REMARK    8  A    between atoms: C_24  and  C_25
REMARK                            x       y       z     vdW  Elec       q    Type
REMARK                         _______ _______ _______ _____ _____    ______ ____
ROOT
ATOM      1  C   UNL     1       1.398   1.787  19.291  0.00  0.00    +0.000 C 
ATOM      2  C   UNL     1       2.424   2.839  19.017  0.00  0.00    +0.000 A 
ATOM      3  C   UNL     1       3.779   2.896  19.477  0.00  0.00    +0.000 A 
ATOM      4  C   UNL     1       4.464   1.826  20.268  0.00  0.00    +0.000 C 
ATOM      5  C   UNL     1       4.345   4.086  19.000  0.00  0.00    +0.000 A 
ATOM      6  N   UNL     1       3.354   4.721  18.250  0.00  0.00    +0.000 N 
ATOM      7  C   UNL     1       2.218   3.936  18.201  0.00  0.00    +0.000 A 
ATOM      8  C   UNL     1       1.006   4.271  17.395  0.00  0.00    +0.000 C 
ENDROOT
BRANCH   5   9
ATOM      9  C   UNL     1       5.709   4.606  19.140  0.00  0.00    +0.000 C 
ATOM     10  O   UNL     1       6.112   5.185  20.141  0.00  0.00    +0.000 OA
ATOM     11  N   UNL     1       6.535   4.396  18.064  0.00  0.00    +0.000 N 
ATOM     12  H   UNL     1       6.287   3.684  17.396  0.00  0.00    +0.000 HD
BRANCH  11  13
ATOM     13  C   UNL     1       7.878   4.926  18.012  0.00  0.00    +0.000 C 
BRANCH  13  14
ATOM     14  C   UNL     1       7.840   6.405  17.942  0.00  0.00    +0.000 A 
ATOM     15  C   UNL     1       7.237   7.292  17.074  0.00  0.00    +0.000 A 
ATOM     16  C   UNL     1       7.611   8.588  17.499  0.00  0.00    +0.000 A 
ATOM     17  C   UNL     1       8.416   8.412  18.601  0.00  0.00    +0.000 A 
ATOM     18  O   UNL     1       8.560   7.090  18.880  0.00  0.00    +0.000 OA
ENDBRANCH  13  14
ENDBRANCH  11  13
ENDBRANCH   5   9
BRANCH   6  19
ATOM     19  C   UNL     1       3.454   6.079  17.697  0.00  0.00    +0.000 C 
BRANCH  19  20
ATOM     20  C   UNL     1       2.616   7.138  18.384  0.00  0.00    +0.000 A 
ATOM     21  C   UNL     1       2.172   8.311  17.754  0.00  0.00    +0.000 A 
ATOM     22  C   UNL     1       1.505   9.300  18.482  0.00  0.00    +0.000 A 
ATOM     23  C   UNL     1       1.261   9.112  19.836  0.00  0.00    +0.000 A 
ATOM     24  F   UNL     1       0.658  10.079  20.540  0.00  0.00    +0.000 F 
ATOM     25  C   UNL     1       1.642   7.939  20.471  0.00  0.00    +0.000 A 
ATOM     26  C   UNL     1       2.312   6.951  19.748  0.00  0.00    +0.000 A 
ENDBRANCH  19  20
ENDBRANCH   6  19
TORSDOF 5
ENDMDL
MODEL 5
REMARK VINA RESULT:      -7.1      1.892      5.443
REMARK  Name = 
REMARK  8 active torsions:
REMARK  status: ('A' for Active; 'I' for Inactive)
REMARK    1  A    between atoms: C_1  and  C_2
REMARK    2  A    between atoms: C_3  and  C_4
REMARK    3  A    between atoms: C_5  and  C_6
REMARK    4  A    between atoms: N_8  and  C_9
REMARK    5  A    between atoms: C_9  and  C_10
REMARK    6  A    between atoms: N_15  and  C_16
REMARK    7  A    between atoms: C_16  and  C_17
REMARK    8  A    between atoms: C_24  and  C_25
REMARK                            x       y       z     vdW  Elec       q    Type
REMARK                         _______ _______ _______ _____ _____    ______ ____
ROOT
ATOM      1  C   UNL     1       0.910   1.684  19.176  0.00  0.00    +0.000 C 
ATOM      2  C   UNL     1       1.959   2.745  19.086  0.00  0.00    +0.000 A 
ATOM      3  C   UNL     1       3.205   2.701  18.383  0.00  0.00    +0.000 A 
ATOM      4  C   UNL     1       3.656   1.579  17.502  0.00  0.00    +0.000 C 
ATOM      5  C   UNL     1       3.874   3.910  18.618  0.00  0.00    +0.000 A 
ATOM      6  N   UNL     1       3.035   4.673  19.432  0.00  0.00    +0.000 N 
ATOM      7  C   UNL     1       1.850   4.000  19.656  0.00  0.00    +0.000 A 
ATOM      8  C   UNL     1       0.690   4.577  20.400  0.00  0.00    +0.000 C 
ENDROOT
BRANCH   5   9
ATOM      9  C   UNL     1       5.157   4.396  18.100  0.00  0.00    +0.000 C 
ATOM     10  O   UNL     1       6.215   4.296  18.709  0.00  0.00    +0.000 OA
ATOM     11  N   UNL     1       5.110   4.978  16.857  0.00  0.00    +0.000 N 
ATOM     12  H   UNL     1       4.316   4.790  16.266  0.00  0.00    +0.000 HD
BRANCH  11  13
ATOM     13  C   UNL     1       6.271   5.586  16.249  0.00  0.00    +0.000 C 
BRANCH  13  14
ATOM     14  C   UNL     1       6.484   5.034  14.892  0.00  0.00    +0.000 A 
ATOM     15  C   UNL     1       5.786   4.125  14.123  0.00  0.00    +0.000 A 
ATOM     16  C   UNL     1       6.520   3.964  12.925  0.00  0.00    +0.000 A 
ATOM     17  C   UNL     1       7.618   4.785  13.035  0.00  0.00    +0.000 A 
ATOM     18  O   UNL     1       7.605   5.443  14.225  0.00  0.00    +0.000 OA
ENDBRANCH  13  14
ENDBRANCH  11  13
ENDBRANCH   5   9
BRANCH   6  19
ATOM     19  C   UNL     1       3.403   5.949  20.062  0.00  0.00    +0.000 C 
BRANCH  19  20
ATOM     20  C   UNL     1       2.653   7.171  19.571  0.00  0.00    +0.000 A 
ATOM     21  C   UNL     1       1.826   7.958  20.387  0.00  0.00    +0.000 A 
ATOM     22  C   UNL     1       1.072   9.001  19.840  0.00  0.00    +0.000 A 
ATOM     23  C   UNL     1       1.158   9.272  18.481  0.00  0.00    +0.000 A 
ATOM     24  F   UNL     1       0.403  10.244  17.952  0.00  0.00    +0.000 F 
ATOM     25  C   UNL     1       2.007   8.543  17.662  0.00  0.00    +0.000 A 
ATOM     26  C   UNL     1       2.758   7.499  18.204  0.00  0.00    +0.000 A 
ENDBRANCH  19  20
ENDBRANCH   6  19
TORSDOF 5
ENDMDL
MODEL 6
REMARK VINA RESULT:      -7.0      2.040      5.587
REMARK  Name = 
REMARK  8 active torsions:
REMARK  status: ('A' for Active; 'I' for Inactive)
REMARK    1  A    between atoms: C_1  and  C_2
REMARK    2  A    between atoms: C_3  and  C_4
REMARK    3  A    between atoms: C_5  and  C_6
REMARK    4  A    between atoms: N_8  and  C_9
REMARK    5  A    between atoms: C_9  and  C_10
REMARK    6  A    between atoms: N_15  and  C_16
REMARK    7  A    between atoms: C_16  and  C_17
REMARK    8  A    between atoms: C_24  and  C_25
REMARK                            x       y       z     vdW  Elec       q    Type
REMARK                         _______ _______ _______ _____ _____    ______ ____
ROOT
ATOM      1  C   UNL     1       1.933   1.758  21.082  0.00  0.00    +0.000 C 
ATOM      2  C   UNL     1       2.709   2.691  20.210  0.00  0.00    +0.000 A 
ATOM      3  C   UNL     1       4.130   2.839  20.116  0.00  0.00    +0.000 A 
ATOM      4  C   UNL     1       5.132   1.989  20.830  0.00  0.00    +0.000 C 
ATOM      5  C   UNL     1       4.395   3.864  19.196  0.00  0.00    +0.000 A 
ATOM      6  N   UNL     1       3.156   4.308  18.733  0.00  0.00    +0.000 N 
ATOM      7  C   UNL     1       2.141   3.554  19.291  0.00  0.00    +0.000 A 
ATOM      8  C   UNL     1       0.699   3.698  18.929  0.00  0.00    +0.000 C 
ENDROOT
BRANCH   5   9
ATOM      9  C   UNL     1       5.675   4.380  18.700  0.00  0.00    +0.000 C 
ATOM     10  O   UNL     1       6.439   5.057  19.377  0.00  0.00    +0.000 OA
ATOM     11  N   UNL     1       5.984   4.046  17.405  0.00  0.00    +0.000 N 
ATOM     12  H   UNL     1       5.505   3.271  16.978  0.00  0.00    +0.000 HD
BRANCH  11  13
ATOM     13  C   UNL     1       7.165   4.553  16.742  0.00  0.00    +0.000 C 
BRANCH  13  14
ATOM     14  C   UNL     1       6.979   4.521  15.274  0.00  0.00    +0.000 A 
ATOM     15  C   UNL     1       6.111   3.835  14.448  0.00  0.00    +0.000 A 
ATOM     16  C   UNL     1       6.457   4.185  13.122  0.00  0.00    +0.000 A 
ATOM     17  C   UNL     1       7.512   5.063  13.220  0.00  0.00    +0.000 A 
ATOM     18  O   UNL     1       7.835   5.277  14.523  0.00  0.00    +0.000 OA
ENDBRANCH  13  14
ENDBRANCH  11  13
ENDBRANCH   5   9
BRANCH   6  19
ATOM     19  C   UNL     1       2.947   5.484  17.877  0.00  0.00    +0.000 C 
BRANCH  19  20
ATOM     20  C   UNL     1       2.472   6.740  18.578  0.00  0.00    +0.000 A 
ATOM     21  C   UNL     1       2.182   6.804  19.950  0.00  0.00    +0.000 A 
ATOM     22  C   UNL     1       1.634   7.963  20.508  0.00  0.00    +0.000 A 
ATOM     23  C   UNL     1       1.394   9.067  19.701  0.00  0.00    +0.000 A 
ATOM     24  F   UNL     1       0.831  10.162  20.230  0.00  0.00    +0.000 F 
ATOM     25  C   UNL     1       1.720   9.048  18.353  0.00  0.00    +0.000 A 
ATOM     26  C   UNL     1       2.264   7.891  17.793  0.00  0.00    +0.000 A 
ENDBRANCH  19  20
ENDBRANCH   6  19
TORSDOF 5
ENDMDL
MODEL 7
REMARK VINA RESULT:      -6.9      2.452      5.304
REMARK  Name = 
REMARK  8 active torsions:
REMARK  status: ('A' for Active; 'I' for Inactive)
REMARK    1  A    between atoms: C_1  and  C_2
REMARK    2  A    between atoms: C_3  and  C_4
REMARK    3  A    between atoms: C_5  and  C_6
REMARK    4  A    between atoms: N_8  and  C_9
REMARK    5  A    between atoms: C_9  and  C_10
REMARK    6  A    between atoms: N_15  and  C_16
REMARK    7  A    between atoms: C_16  and  C_17
REMARK    8  A    between atoms: C_24  and  C_25
REMARK                            x       y       z     vdW  Elec       q    Type
REMARK                         _______ _______ _______ _____ _____    ______ ____
ROOT
ATOM      1  C   UNL     1       1.265   1.940  18.902  0.00  0.00    +0.000 C 
ATOM      2  C   UNL     1       2.334   2.970  18.722  0.00  0.00    +0.000 A 
ATOM      3  C   UNL     1       3.680   2.944  19.210  0.00  0.00    +0.000 A 
ATOM      4  C   UNL     1       4.309   1.796  19.934  0.00  0.00    +0.000 C 
ATOM      5  C   UNL     1       4.298   4.143  18.829  0.00  0.00    +0.000 A 
ATOM      6  N   UNL     1       3.346   4.866  18.109  0.00  0.00    +0.000 N 
ATOM      7  C   UNL     1       2.184   4.128  17.983  0.00  0.00    +0.000 A 
ATOM      8  C   UNL     1       1.002   4.565  17.181  0.00  0.00    +0.000 C 
ENDROOT
BRANCH   5   9
ATOM      9  C   UNL     1       5.677   4.601  19.031  0.00  0.00    +0.000 C 
ATOM     10  O   UNL     1       6.135   4.904  20.126  0.00  0.00    +0.000 OA
ATOM     11  N   UNL     1       6.450   4.665  17.898  0.00  0.00    +0.000 N 
ATOM     12  H   UNL     1       6.158   4.149  17.085  0.00  0.00    +0.000 HD
BRANCH  11  13
ATOM     13  C   UNL     1       7.799   5.182  17.918  0.00  0.00    +0.000 C 
BRANCH  13  14
ATOM     14  C   UNL     1       7.777   6.663  17.912  0.00  0.00    +0.000 A 
ATOM     15  C   UNL     1       7.132   7.593  17.122  0.00  0.00    +0.000 A 
ATOM     16  C   UNL     1       7.552   8.865  17.576  0.00  0.00    +0.000 A 
ATOM     17  C   UNL     1       8.424   8.633  18.614  0.00  0.00    +0.000 A 
ATOM     18  O   UNL     1       8.566   7.299  18.829  0.00  0.00    +0.000 OA
ENDBRANCH  13  14
ENDBRANCH  11  13
ENDBRANCH   5   9
BRANCH   6  19
ATOM     19  C   UNL     1       3.506   6.255  17.656  0.00  0.00    +0.000 C 
BRANCH  19  20
ATOM     20  C   UNL     1       2.731   7.299  18.434  0.00  0.00    +0.000 A 
ATOM     21  C   UNL     1       2.379   7.162  19.786  0.00  0.00    +0.000 A 
ATOM     22  C   UNL     1       1.562   8.111  20.407  0.00  0.00    +0.000 A 
ATOM     23  C   UNL     1       1.112   9.209  19.686  0.00  0.00    +0.000 A 
ATOM     24  F   UNL     1       0.296  10.095  20.273  0.00  0.00    +0.000 F 
ATOM     25  C   UNL     1       1.489   9.396  18.365  0.00  0.00    +0.000 A 
ATOM     26  C   UNL     1       2.301   8.448  17.741  0.00  0.00    +0.000 A 
ENDBRANCH  19  20
ENDBRANCH   6  19
TORSDOF 5
ENDMDL
MODEL 8
REMARK VINA RESULT:      -6.9      2.040      5.184
REMARK  Name = 
REMARK  8 active torsions:
REMARK  status: ('A' for Active; 'I' for Inactive)
REMARK    1  A    between atoms: C_1  and  C_2
REMARK    2  A    between atoms: C_3  and  C_4
REMARK    3  A    between atoms: C_5  and  C_6
REMARK    4  A    between atoms: N_8  and  C_9
REMARK    5  A    between atoms: C_9  and  C_10
REMARK    6  A    between atoms: N_15  and  C_16
REMARK    7  A    between atoms: C_16  and  C_17
REMARK    8  A    between atoms: C_24  and  C_25
REMARK                            x       y       z     vdW  Elec       q    Type
REMARK                         _______ _______ _______ _____ _____    ______ ____
ROOT
ATOM      1  C   UNL     1       0.840   1.812  19.332  0.00  0.00    +0.000 C 
ATOM      2  C   UNL     1       1.823   2.903  19.054  0.00  0.00    +0.000 A 
ATOM      3  C   UNL     1       2.889   2.912  18.099  0.00  0.00    +0.000 A 
ATOM      4  C   UNL     1       3.162   1.828  17.105  0.00  0.00    +0.000 C 
ATOM      5  C   UNL     1       3.569   4.132  18.226  0.00  0.00    +0.000 A 
ATOM      6  N   UNL     1       2.910   4.848  19.225  0.00  0.00    +0.000 N 
ATOM      7  C   UNL     1       1.814   4.138  19.676  0.00  0.00    +0.000 A 
ATOM      8  C   UNL     1       0.831   4.662  20.671  0.00  0.00    +0.000 C 
ENDROOT
BRANCH   5   9
ATOM      9  C   UNL     1       4.700   4.667  17.460  0.00  0.00    +0.000 C 
ATOM     10  O   UNL     1       4.572   5.346  16.449  0.00  0.00    +0.000 OA
ATOM     11  N   UNL     1       5.944   4.365  17.956  0.00  0.00    +0.000 N 
ATOM     12  H   UNL     1       6.023   4.070  18.916  0.00  0.00    +0.000 HD
BRANCH  11  13
ATOM     13  C   UNL     1       7.157   4.741  17.267  0.00  0.00    +0.000 C 
BRANCH  13  14
ATOM     14  C   UNL     1       7.572   6.103  17.672  0.00  0.00    +0.000 A 
ATOM     15  C   UNL     1       8.139   6.613  18.823  0.00  0.00    +0.000 A 
ATOM     16  C   UNL     1       8.255   8.010  18.629  0.00  0.00    +0.000 A 
ATOM     17  C   UNL     1       7.755   8.265  17.373  0.00  0.00    +0.000 A 
ATOM     18  O   UNL     1       7.341   7.114  16.781  0.00  0.00    +0.000 OA
ENDBRANCH  13  14
ENDBRANCH  11  13
ENDBRANCH   5   9
BRANCH   6  19
ATOM     19  C   UNL     1       3.378   6.115  19.804  0.00  0.00    +0.000 C 
BRANCH  19  20
ATOM     20  C   UNL     1       2.574   7.347  19.442  0.00  0.00    +0.000 A 
ATOM     21  C   UNL     1       1.788   8.062  20.359  0.00  0.00    +0.000 A 
ATOM     22  C   UNL     1       0.979   9.118  19.930  0.00  0.00    +0.000 A 
ATOM     23  C   UNL     1       0.969   9.476  18.588  0.00  0.00    +0.000 A 
ATOM     24  F   UNL     1       0.162  10.462  18.174  0.00  0.00    +0.000 F 
ATOM     25  C   UNL     1       1.777   8.821  17.671  0.00  0.00    +0.000 A 
ATOM     26  C   UNL     1       2.583   7.763  18.096  0.00  0.00    +0.000 A 
ENDBRANCH  19  20
ENDBRANCH   6  19
TORSDOF 5
ENDMDL
MODEL 9
REMARK VINA RESULT:      -6.7      3.020      6.037
REMARK  Name = 
REMARK  8 active torsions:
REMARK  status: ('A' for Active; 'I' for Inactive)
REMARK    1  A    between atoms: C_1  and  C_2
REMARK    2  A    between atoms: C_3  and  C_4
REMARK    3  A    between atoms: C_5  and  C_6
REMARK    4  A    between atoms: N_8  and  C_9
REMARK    5  A    between atoms: C_9  and  C_10
REMARK    6  A    between atoms: N_15  and  C_16
REMARK    7  A    between atoms: C_16  and  C_17
REMARK    8  A    between atoms: C_24  and  C_25
REMARK                            x       y       z     vdW  Elec       q    Type
REMARK                         _______ _______ _______ _____ _____    ______ ____
ROOT
ATOM      1  C   UNL     1       1.373   1.833  19.228  0.00  0.00    +0.000 C 
ATOM      2  C   UNL     1       2.002   3.143  18.875  0.00  0.00    +0.000 A 
ATOM      3  C   UNL     1       1.665   4.446  19.363  0.00  0.00    +0.000 A 
ATOM      4  C   UNL     1       0.648   4.732  20.422  0.00  0.00    +0.000 C 
ATOM      5  C   UNL     1       2.498   5.374  18.721  0.00  0.00    +0.000 A 
ATOM      6  N   UNL     1       3.332   4.637  17.879  0.00  0.00    +0.000 N 
ATOM      7  C   UNL     1       3.081   3.286  18.024  0.00  0.00    +0.000 A 
ATOM      8  C   UNL     1       3.869   2.214  17.346  0.00  0.00    +0.000 C 
ENDROOT
BRANCH   5   9
ATOM      9  C   UNL     1       2.600   6.827  18.890  0.00  0.00    +0.000 C 
ATOM     10  O   UNL     1       2.992   7.363  19.919  0.00  0.00    +0.000 OA
ATOM     11  N   UNL     1       2.231   7.575  17.799  0.00  0.00    +0.000 N 
ATOM     12  H   UNL     1       2.198   7.130  16.897  0.00  0.00    +0.000 HD
BRANCH  11  13
ATOM     13  C   UNL     1       2.190   9.019  17.838  0.00  0.00    +0.000 C 
BRANCH  13  14
ATOM     14  C   UNL     1       0.879   9.478  18.351  0.00  0.00    +0.000 A 
ATOM     15  C   UNL     1      -0.342   9.706  17.749  0.00  0.00    +0.000 A 
ATOM     16  C   UNL     1      -1.205  10.188  18.760  0.00  0.00    +0.000 A 
ATOM     17  C   UNL     1      -0.460  10.222  19.915  0.00  0.00    +0.000 A 
ATOM     18  O   UNL     1       0.807   9.790  19.680  0.00  0.00    +0.000 OA
ENDBRANCH  13  14
ENDBRANCH  11  13
ENDBRANCH   5   9
BRANCH   6  19
ATOM     19  C   UNL     1       4.255   5.213  16.891  0.00  0.00    +0.000 C 
BRANCH  19  20
ATOM     20  C   UNL     1       5.569   5.734  17.435  0.00  0.00    +0.000 A 
ATOM     21  C   UNL     1       6.283   5.115  18.473  0.00  0.00    +0.000 A 
ATOM     22  C   UNL     1       7.427   5.715  19.006  0.00  0.00    +0.000 A 
ATOM     23  C   UNL     1       7.873   6.924  18.490  0.00  0.00    +0.000 A 
ATOM     24  F   UNL     1       8.946   7.517  19.030  0.00  0.00    +0.000 F 
ATOM     25  C   UNL     1       7.217   7.530  17.429  0.00  0.00    +0.000 A 
ATOM     26  C   UNL     1       6.072   6.935  16.898  0.00  0.00    +0.000 A 
ENDBRANCH  19  20
ENDBRANCH   6  19
TORSDOF 5
ENDMDL
