MODEL 1
REMARK VINA RESULT:      -8.3      0.000      0.000
REMARK  Name = 
REMARK  14 active torsions:
REMARK  status: ('A' for Active; 'I' for Inactive)
REMARK    1  A    between atoms: C_1  and  C_2
REMARK    2  A    between atoms: C_3  and  O_4
REMARK    3  A    between atoms: N_9  and  C_10
REMARK    4  A    between atoms: C_10  and  C_11
REMARK    5  A    between atoms: C_11  and  C_12
REMARK    6  A    between atoms: C_14  and  C_15
REMARK    7  A    between atoms: C_15  and  C_16
REMARK    8  A    between atoms: C_15  and  C_17
REMARK    9  A    between atoms: C_15  and  C_18
REMARK   10  A    between atoms: C_19  and  O_20
REMARK   11  A    between atoms: C_21  and  C_22
REMARK   12  A    between atoms: C_22  and  C_23
REMARK   13  A    between atoms: C_22  and  C_24
REMARK   14  A    between atoms: C_22  and  C_25
REMARK                            x       y       z     vdW  Elec       q    Type
REMARK                         _______ _______ _______ _____ _____    ______ ____
ROOT
ATOM      1  C   UNL     1       3.361   7.008  18.014  0.00  0.00    +0.000 A 
ATOM      2  C   UNL     1       2.703   5.858  18.447  0.00  0.00    +0.000 A 
ATOM      3  C   UNL     1       3.361   4.651  18.786  0.00  0.00    +0.000 A 
ATOM      4  C   UNL     1       4.775   4.655  18.660  0.00  0.00    +0.000 A 
ATOM      5  C   UNL     1       5.499   5.791  18.198  0.00  0.00    +0.000 A 
ATOM      6  C   UNL     1       4.752   6.949  17.888  0.00  0.00    +0.000 A 
ENDROOT
BRANCH   3   7
ATOM      7  C   UNL     1       2.492   3.441  19.238  0.00  0.00    +0.000 C 
ATOM      8  C   UNL     1       3.062   2.730  20.503  0.00  0.00    +0.000 C 
ATOM      9  C   UNL     1       1.065   3.894  19.623  0.00  0.00    +0.000 C 
ATOM     10  C   UNL     1       2.416   2.332  18.166  0.00  0.00    +0.000 C 
ENDBRANCH   3   7
BRANCH   5  11
ATOM     11  C   UNL     1       7.042   5.785  17.994  0.00  0.00    +0.000 C 
ATOM     12  C   UNL     1       7.509   7.106  17.341  0.00  0.00    +0.000 C 
ATOM     13  C   UNL     1       7.825   5.651  19.329  0.00  0.00    +0.000 C 
ATOM     14  C   UNL     1       7.507   4.599  17.121  0.00  0.00    +0.000 C 
ENDBRANCH   5  11
BRANCH   4  15
ATOM     15  O   UNL     1       5.531   3.560  18.976  0.00  0.00    +0.000 OA
ATOM     16  H   UNL     1       6.095   3.734  19.737  0.00  0.00    +0.000 HD
ENDBRANCH   4  15
BRANCH   1  17
ATOM     17  C   UNL     1       2.642   8.300  17.658  0.00  0.00    +0.000 C 
BRANCH  17  18
ATOM     18  C   UNL     1       1.182   8.447  18.128  0.00  0.00    +0.000 C 
BRANCH  18  26
ATOM     19  C   UNL     1       1.075   7.795  21.028  0.00  0.00    +0.000 C 
ATOM     20  C   UNL     1       1.005   9.231  20.568  0.00  0.00    +0.000 A 
ATOM     21  C   UNL     1       0.871  10.234  21.480  0.00  0.00    +0.000 A 
ATOM     22  C   UNL     1       0.680  11.643  20.991  0.00  0.00    +0.000 A 
ATOM     23  O   UNL     1       0.530  12.597  21.753  0.00  0.00    +0.000 OA
ATOM     24  C   UNL     1       0.692  11.866  19.538  0.00  0.00    +0.000 A 
ATOM     25  C   UNL     1       0.873  10.816  18.743  0.00  0.00    +0.000 A 
ATOM     26  N   UNL     1       1.032   9.498  19.170  0.00  0.00    +0.000 N 
BRANCH  21  27
ATOM     27  O   UNL     1       0.880  10.058  22.853  0.00  0.00    +0.000 OA
ATOM     28  H   UNL     1      -0.020   9.854  23.142  0.00  0.00    +0.000 HD
ENDBRANCH  21  27
ENDBRANCH  18  26
ENDBRANCH  17  18
ENDBRANCH   1  17
TORSDOF 7
ENDMDL
MODEL 2
REMARK VINA RESULT:      -8.3      0.063      1.210
REMARK  Name = 
REMARK  14 active torsions:
REMARK  status: ('A' for Active; 'I' for Inactive)
REMARK    1  A    between atoms: C_1  and  C_2
REMARK    2  A    between atoms: C_3  and  O_4
REMARK    3  A    between atoms: N_9  and  C_10
REMARK    4  A    between atoms: C_10  and  C_11
REMARK    5  A    between atoms: C_11  and  C_12
REMARK    6  A    between atoms: C_14  and  C_15
REMARK    7  A    between atoms: C_15  and  C_16
REMARK    8  A    between atoms: C_15  and  C_17
REMARK    9  A    between atoms: C_15  and  C_18
REMARK   10  A    between atoms: C_19  and  O_20
REMARK   11  A    between atoms: C_21  and  C_22
REMARK   12  A    between atoms: C_22  and  C_23
REMARK   13  A    between atoms: C_22  and  C_24
REMARK   14  A    between atoms: C_22  and  C_25
REMARK                            x       y       z     vdW  Elec       q    Type
REMARK                         _______ _______ _______ _____ _____    ______ ____
ROOT
ATOM      1  C   UNL     1       3.363   6.982  18.020  0.00  0.00    +0.000 A 
ATOM      2  C   UNL     1       2.707   5.831  18.453  0.00  0.00    +0.000 A 
ATOM      3  C   UNL     1       3.367   4.626  18.794  0.00  0.00    +0.000 A 
ATOM      4  C   UNL     1       4.782   4.633  18.670  0.00  0.00    +0.000 A 
ATOM      5  C   UNL     1       5.503   5.770  18.206  0.00  0.00    +0.000 A 
ATOM      6  C   UNL     1       4.754   6.926  17.894  0.00  0.00    +0.000 A 
ENDROOT
BRANCH   3   7
ATOM      7  C   UNL     1       2.501   3.414  19.248  0.00  0.00    +0.000 C 
ATOM      8  C   UNL     1       1.005   3.792  19.464  0.00  0.00    +0.000 C 
ATOM      9  C   UNL     1       2.499   2.301  18.176  0.00  0.00    +0.000 C 
ATOM     10  C   UNL     1       2.960   2.833  20.603  0.00  0.00    +0.000 C 
ENDBRANCH   3   7
BRANCH   5  11
ATOM     11  C   UNL     1       7.046   5.769  18.003  0.00  0.00    +0.000 C 
ATOM     12  C   UNL     1       7.471   4.611  17.072  0.00  0.00    +0.000 C 
ATOM     13  C   UNL     1       7.568   7.077  17.349  0.00  0.00    +0.000 C 
ATOM     14  C   UNL     1       7.807   5.644  19.343  0.00  0.00    +0.000 C 
ENDBRANCH   5  11
BRANCH   4  15
ATOM     15  O   UNL     1       5.541   3.541  18.987  0.00  0.00    +0.000 OA
ATOM     16  H   UNL     1       6.184   3.751  19.673  0.00  0.00    +0.000 HD
ENDBRANCH   4  15
BRANCH   1  17
ATOM     17  C   UNL     1       2.640   8.272  17.661  0.00  0.00    +0.000 C 
BRANCH  17  18
ATOM     18  C   UNL     1       1.182   8.419  18.137  0.00  0.00    +0.000 C 
BRANCH  18  26
ATOM     19  C   UNL     1       1.066   7.770  21.038  0.00  0.00    +0.000 C 
ATOM     20  C   UNL     1       1.007   9.207  20.577  0.00  0.00    +0.000 A 
ATOM     21  C   UNL     1       0.878  10.211  21.487  0.00  0.00    +0.000 A 
ATOM     22  C   UNL     1       0.696  11.621  20.997  0.00  0.00    +0.000 A 
ATOM     23  O   UNL     1       0.551  12.576  21.758  0.00  0.00    +0.000 OA
ATOM     24  C   UNL     1       0.712  11.843  19.544  0.00  0.00    +0.000 A 
ATOM     25  C   UNL     1       0.888  10.791  18.750  0.00  0.00    +0.000 A 
ATOM     26  N   UNL     1       1.038   9.472  19.179  0.00  0.00    +0.000 N 
BRANCH  21  27
ATOM     27  O   UNL     1       0.883  10.036  22.861  0.00  0.00    +0.000 OA
ATOM     28  H   UNL     1       1.171   9.132  23.054  0.00  0.00    +0.000 HD
ENDBRANCH  21  27
ENDBRANCH  18  26
ENDBRANCH  17  18
ENDBRANCH   1  17
TORSDOF 7
ENDMDL
MODEL 3
REMARK VINA RESULT:      -8.2      0.140      1.146
REMARK  Name = 
REMARK  14 active torsions:
REMARK  status: ('A' for Active; 'I' for Inactive)
REMARK    1  A    between atoms: C_1  and  C_2
REMARK    2  A    between atoms: C_3  and  O_4
REMARK    3  A    between atoms: N_9  and  C_10
REMARK    4  A    between atoms: C_10  and  C_11
REMARK    5  A    between atoms: C_11  and  C_12
REMARK    6  A    between atoms: C_14  and  C_15
REMARK    7  A    between atoms: C_15  and  C_16
REMARK    8  A    between atoms: C_15  and  C_17
REMARK    9  A    between atoms: C_15  and  C_18
REMARK   10  A    between atoms: C_19  and  O_20
REMARK   11  A    between atoms: C_21  and  C_22
REMARK   12  A    between atoms: C_22  and  C_23
REMARK   13  A    between atoms: C_22  and  C_24
REMARK   14  A    between atoms: C_22  and  C_25
REMARK                            x       y       z     vdW  Elec       q    Type
REMARK                         _______ _______ _______ _____ _____    ______ ____
ROOT
ATOM      1  C   UNL     1       3.373   6.963  18.027  0.00  0.00    +0.000 A 
ATOM      2  C   UNL     1       2.720   5.809  18.458  0.00  0.00    +0.000 A 
ATOM      3  C   UNL     1       3.385   4.610  18.811  0.00  0.00    +0.000 A 
ATOM      4  C   UNL     1       4.801   4.627  18.702  0.00  0.00    +0.000 A 
ATOM      5  C   UNL     1       5.520   5.767  18.242  0.00  0.00    +0.000 A 
ATOM      6  C   UNL     1       4.766   6.916  17.916  0.00  0.00    +0.000 A 
ENDROOT
BRANCH   3   7
ATOM      7  C   UNL     1       2.523   3.394  19.261  0.00  0.00    +0.000 C 
ATOM      8  C   UNL     1       2.701   2.155  18.333  0.00  0.00    +0.000 C 
ATOM      9  C   UNL     1       2.928   2.918  20.674  0.00  0.00    +0.000 C 
ATOM     10  C   UNL     1       1.009   3.697  19.225  0.00  0.00    +0.000 C 
ENDBRANCH   3   7
BRANCH   5  11
ATOM     11  C   UNL     1       7.065   5.775  18.056  0.00  0.00    +0.000 C 
ATOM     12  C   UNL     1       7.778   5.645  19.421  0.00  0.00    +0.000 C 
ATOM     13  C   UNL     1       7.572   4.598  17.178  0.00  0.00    +0.000 C 
ATOM     14  C   UNL     1       7.557   7.059  17.350  0.00  0.00    +0.000 C 
ENDBRANCH   5  11
BRANCH   4  15
ATOM     15  O   UNL     1       5.564   3.541  19.033  0.00  0.00    +0.000 OA
ATOM     16  H   UNL     1       5.546   2.876  18.336  0.00  0.00    +0.000 HD
ENDBRANCH   4  15
BRANCH   1  17
ATOM     17  C   UNL     1       2.646   8.246  17.654  0.00  0.00    +0.000 C 
BRANCH  17  18
ATOM     18  C   UNL     1       1.193   8.401  18.145  0.00  0.00    +0.000 C 
BRANCH  18  26
ATOM     19  C   UNL     1       1.050   7.783  21.051  0.00  0.00    +0.000 C 
ATOM     20  C   UNL     1       1.017   9.216  20.575  0.00  0.00    +0.000 A 
ATOM     21  C   UNL     1       0.900  10.232  21.475  0.00  0.00    +0.000 A 
ATOM     22  C   UNL     1       0.745  11.639  20.969  0.00  0.00    +0.000 A 
ATOM     23  O   UNL     1       0.613  12.604  21.720  0.00  0.00    +0.000 OA
ATOM     24  C   UNL     1       0.774  11.846  19.514  0.00  0.00    +0.000 A 
ATOM     25  C   UNL     1       0.936  10.783  18.732  0.00  0.00    +0.000 A 
ATOM     26  N   UNL     1       1.061   9.466  19.175  0.00  0.00    +0.000 N 
BRANCH  21  27
ATOM     27  O   UNL     1       0.895  10.070  22.850  0.00  0.00    +0.000 OA
ATOM     28  H   UNL     1       1.658   9.529  23.098  0.00  0.00    +0.000 HD
ENDBRANCH  21  27
ENDBRANCH  18  26
ENDBRANCH  17  18
ENDBRANCH   1  17
TORSDOF 7
ENDMDL
MODEL 4
REMARK VINA RESULT:      -8.1      0.944      4.036
REMARK  Name = 
REMARK  14 active torsions:
REMARK  status: ('A' for Active; 'I' for Inactive)
REMARK    1  A    between atoms: C_1  and  C_2
REMARK    2  A    between atoms: C_3  and  O_4
REMARK    3  A    between atoms: N_9  and  C_10
REMARK    4  A    between atoms: C_10  and  C_11
REMARK    5  A    between atoms: C_11  and  C_12
REMARK    6  A    between atoms: C_14  and  C_15
REMARK    7  A    between atoms: C_15  and  C_16
REMARK    8  A    between atoms: C_15  and  C_17
REMARK    9  A    between atoms: C_15  and  C_18
REMARK   10  A    between atoms: C_19  and  O_20
REMARK   11  A    between atoms: C_21  and  C_22
REMARK   12  A    between atoms: C_22  and  C_23
REMARK   13  A    between atoms: C_22  and  C_24
REMARK   14  A    between atoms: C_22  and  C_25
REMARK                            x       y       z     vdW  Elec       q    Type
REMARK                         _______ _______ _______ _____ _____    ______ ____
ROOT
ATOM      1  C   UNL     1       2.967   6.504  18.006  0.00  0.00    +0.000 A 
ATOM      2  C   UNL     1       4.355   6.563  17.884  0.00  0.00    +0.000 A 
ATOM      3  C   UNL     1       5.224   5.497  18.217  0.00  0.00    +0.000 A 
ATOM      4  C   UNL     1       4.604   4.317  18.706  0.00  0.00    +0.000 A 
ATOM      5  C   UNL     1       3.195   4.207  18.879  0.00  0.00    +0.000 A 
ATOM      6  C   UNL     1       2.412   5.325  18.514  0.00  0.00    +0.000 A 
ENDROOT
BRANCH   3   7
ATOM      7  C   UNL     1       6.756   5.713  18.043  0.00  0.00    +0.000 C 
ATOM      8  C   UNL     1       7.099   7.088  17.394  0.00  0.00    +0.000 C 
ATOM      9  C   UNL     1       7.477   5.707  19.410  0.00  0.00    +0.000 C 
ATOM     10  C   UNL     1       7.399   4.666  17.108  0.00  0.00    +0.000 C 
ENDBRANCH   3   7
BRANCH   5  11
ATOM     11  C   UNL     1       2.510   2.943  19.475  0.00  0.00    +0.000 C 
ATOM     12  C   UNL     1       2.876   2.780  20.968  0.00  0.00    +0.000 C 
ATOM     13  C   UNL     1       0.960   3.009  19.404  0.00  0.00    +0.000 C 
ATOM     14  C   UNL     1       2.905   1.658  18.715  0.00  0.00    +0.000 C 
ENDBRANCH   5  11
BRANCH   4  15
ATOM     15  O   UNL     1       5.328   3.207  19.045  0.00  0.00    +0.000 OA
ATOM     16  H   UNL     1       5.464   2.633  18.284  0.00  0.00    +0.000 HD
ENDBRANCH   4  15
BRANCH   1  17
ATOM     17  C   UNL     1       2.044   7.656  17.639  0.00  0.00    +0.000 C 
BRANCH  17  18
ATOM     18  C   UNL     1       2.299   9.010  18.328  0.00  0.00    +0.000 C 
BRANCH  18  26
ATOM     19  C   UNL     1       0.470  11.343  18.579  0.00  0.00    +0.000 C 
ATOM     20  C   UNL     1       0.515  10.292  19.662  0.00  0.00    +0.000 A 
ATOM     21  C   UNL     1      -0.267  10.419  20.770  0.00  0.00    +0.000 A 
ATOM     22  C   UNL     1      -0.113   9.427  21.889  0.00  0.00    +0.000 A 
ATOM     23  O   UNL     1      -0.767   9.490  22.928  0.00  0.00    +0.000 OA
ATOM     24  C   UNL     1       0.854   8.336  21.702  0.00  0.00    +0.000 A 
ATOM     25  C   UNL     1       1.532   8.287  20.559  0.00  0.00    +0.000 A 
ATOM     26  N   UNL     1       1.424   9.206  19.516  0.00  0.00    +0.000 N 
BRANCH  21  27
ATOM     27  O   UNL     1      -1.203  11.421  20.964  0.00  0.00    +0.000 OA
ATOM     28  H   UNL     1      -1.835  11.125  21.633  0.00  0.00    +0.000 HD
ENDBRANCH  21  27
ENDBRANCH  18  26
ENDBRANCH  17  18
ENDBRANCH   1  17
TORSDOF 7
ENDMDL
MODEL 5
REMARK VINA RESULT:      -8.1      0.948      2.034
REMARK  Name = 
REMARK  14 active torsions:
REMARK  status: ('A' for Active; 'I' for Inactive)
REMARK    1  A    between atoms: C_1  and  C_2
REMARK    2  A    between atoms: C_3  and  O_4
REMARK    3  A    between atoms: N_9  and  C_10
REMARK    4  A    between atoms: C_10  and  C_11
REMARK    5  A    between atoms: C_11  and  C_12
REMARK    6  A    between atoms: C_14  and  C_15
REMARK    7  A    between atoms: C_15  and  C_16
REMARK    8  A    between atoms: C_15  and  C_17
REMARK    9  A    between atoms: C_15  and  C_18
REMARK   10  A    between atoms: C_19  and  O_20
REMARK   11  A    between atoms: C_21  and  C_22
REMARK   12  A    between atoms: C_22  and  C_23
REMARK   13  A    between atoms: C_22  and  C_24
REMARK   14  A    between atoms: C_22  and  C_25
REMARK                            x       y       z     vdW  Elec       q    Type
REMARK                         _______ _______ _______ _____ _____    ______ ____
ROOT
ATOM      1  C   UNL     1       2.834   6.530  18.099  0.00  0.00    +0.000 A 
ATOM      2  C   UNL     1       2.346   5.336  18.631  0.00  0.00    +0.000 A 
ATOM      3  C   UNL     1       3.166   4.247  19.010  0.00  0.00    +0.000 A 
ATOM      4  C   UNL     1       4.562   4.419  18.816  0.00  0.00    +0.000 A 
ATOM      5  C   UNL     1       5.115   5.604  18.251  0.00  0.00    +0.000 A 
ATOM      6  C   UNL     1       4.214   6.637  17.909  0.00  0.00    +0.000 A 
ENDROOT
BRANCH   3   7
ATOM      7  C   UNL     1       2.478   2.970  19.576  0.00  0.00    +0.000 C 
ATOM      8  C   UNL     1       0.923   3.041  19.502  0.00  0.00    +0.000 C 
ATOM      9  C   UNL     1       2.876   1.717  18.762  0.00  0.00    +0.000 C 
ATOM     10  C   UNL     1       2.790   2.742  21.071  0.00  0.00    +0.000 C 
ENDBRANCH   3   7
BRANCH   5  11
ATOM     11  C   UNL     1       6.636   5.778  17.974  0.00  0.00    +0.000 C 
ATOM     12  C   UNL     1       6.917   7.154  17.327  0.00  0.00    +0.000 C 
ATOM     13  C   UNL     1       7.496   5.713  19.266  0.00  0.00    +0.000 C 
ATOM     14  C   UNL     1       7.189   4.667  17.054  0.00  0.00    +0.000 C 
ENDBRANCH   5  11
BRANCH   4  15
ATOM     15  O   UNL     1       5.464   3.451  19.160  0.00  0.00    +0.000 OA
ATOM     16  H   UNL     1       5.320   3.144  20.061  0.00  0.00    +0.000 HD
ENDBRANCH   4  15
BRANCH   1  17
ATOM     17  C   UNL     1       1.941   7.695  17.701  0.00  0.00    +0.000 C 
BRANCH  17  18
ATOM     18  C   UNL     1       2.214   9.054  18.374  0.00  0.00    +0.000 C 
BRANCH  18  26
ATOM     19  C   UNL     1       0.382  11.388  18.582  0.00  0.00    +0.000 C 
ATOM     20  C   UNL     1       0.435  10.361  19.688  0.00  0.00    +0.000 A 
ATOM     21  C   UNL     1      -0.341  10.512  20.797  0.00  0.00    +0.000 A 
ATOM     22  C   UNL     1      -0.179   9.545  21.937  0.00  0.00    +0.000 A 
ATOM     23  O   UNL     1      -0.828   9.630  22.978  0.00  0.00    +0.000 OA
ATOM     24  C   UNL     1       0.789   8.452  21.769  0.00  0.00    +0.000 A 
ATOM     25  C   UNL     1       1.462   8.379  20.624  0.00  0.00    +0.000 A 
ATOM     26  N   UNL     1       1.345   9.275  19.561  0.00  0.00    +0.000 N 
BRANCH  21  27
ATOM     27  O   UNL     1      -1.278  11.516  20.973  0.00  0.00    +0.000 OA
ATOM     28  H   UNL     1      -2.157  11.113  21.008  0.00  0.00    +0.000 HD
ENDBRANCH  21  27
ENDBRANCH  18  26
ENDBRANCH  17  18
ENDBRANCH   1  17
TORSDOF 7
ENDMDL
MODEL 6
REMARK VINA RESULT:      -8.1      0.941      2.111
REMARK  Name = 
REMARK  14 active torsions:
REMARK  status: ('A' for Active; 'I' for Inactive)
REMARK    1  A    between atoms: C_1  and  C_2
REMARK    2  A    between atoms: C_3  and  O_4
REMARK    3  A    between atoms: N_9  and  C_10
REMARK    4  A    between atoms: C_10  and  C_11
REMARK    5  A    between atoms: C_11  and  C_12
REMARK    6  A    between atoms: C_14  and  C_15
REMARK    7  A    between atoms: C_15  and  C_16
REMARK    8  A    between atoms: C_15  and  C_17
REMARK    9  A    between atoms: C_15  and  C_18
REMARK   10  A    between atoms: C_19  and  O_20
REMARK   11  A    between atoms: C_21  and  C_22
REMARK   12  A    between atoms: C_22  and  C_23
REMARK   13  A    between atoms: C_22  and  C_24
REMARK   14  A    between atoms: C_22  and  C_25
REMARK                            x       y       z     vdW  Elec       q    Type
REMARK                         _______ _______ _______ _____ _____    ______ ____
ROOT
ATOM      1  C   UNL     1       2.943   6.528  17.997  0.00  0.00    +0.000 A 
ATOM      2  C   UNL     1       2.448   5.316  18.476  0.00  0.00    +0.000 A 
ATOM      3  C   UNL     1       3.264   4.222  18.850  0.00  0.00    +0.000 A 
ATOM      4  C   UNL     1       4.664   4.410  18.710  0.00  0.00    +0.000 A 
ATOM      5  C   UNL     1       5.226   5.616  18.200  0.00  0.00    +0.000 A 
ATOM      6  C   UNL     1       4.329   6.652  17.858  0.00  0.00    +0.000 A 
ENDROOT
BRANCH   3   7
ATOM      7  C   UNL     1       2.568   2.923  19.354  0.00  0.00    +0.000 C 
ATOM      8  C   UNL     1       3.119   1.639  18.664  0.00  0.00    +0.000 C 
ATOM      9  C   UNL     1       2.805   2.716  20.867  0.00  0.00    +0.000 C 
ATOM     10  C   UNL     1       1.053   2.909  19.056  0.00  0.00    +0.000 C 
ENDBRANCH   3   7
BRANCH   5  11
ATOM     11  C   UNL     1       6.754   5.810  17.980  0.00  0.00    +0.000 C 
ATOM     12  C   UNL     1       7.304   4.743  17.007  0.00  0.00    +0.000 C 
ATOM     13  C   UNL     1       7.102   7.193  17.364  0.00  0.00    +0.000 C 
ATOM     14  C   UNL     1       7.544   5.738  19.306  0.00  0.00    +0.000 C 
ENDBRANCH   5  11
BRANCH   4  15
ATOM     15  O   UNL     1       5.562   3.439  19.056  0.00  0.00    +0.000 OA
ATOM     16  H   UNL     1       6.030   3.669  19.865  0.00  0.00    +0.000 HD
ENDBRANCH   4  15
BRANCH   1  17
ATOM     17  C   UNL     1       2.055   7.699  17.603  0.00  0.00    +0.000 C 
BRANCH  17  18
ATOM     18  C   UNL     1       2.305   9.044  18.312  0.00  0.00    +0.000 C 
BRANCH  18  26
ATOM     19  C   UNL     1       0.507  11.392  18.623  0.00  0.00    +0.000 C 
ATOM     20  C   UNL     1       0.537  10.312  19.678  0.00  0.00    +0.000 A 
ATOM     21  C   UNL     1      -0.245  10.420  20.788  0.00  0.00    +0.000 A 
ATOM     22  C   UNL     1      -0.106   9.396  21.880  0.00  0.00    +0.000 A 
ATOM     23  O   UNL     1      -0.761   9.440  22.920  0.00  0.00    +0.000 OA
ATOM     24  C   UNL     1       0.848   8.298  21.665  0.00  0.00    +0.000 A 
ATOM     25  C   UNL     1       1.527   8.271  20.522  0.00  0.00    +0.000 A 
ATOM     26  N   UNL     1       1.432   9.219  19.504  0.00  0.00    +0.000 N 
BRANCH  21  27
ATOM     27  O   UNL     1      -1.169  11.428  21.007  0.00  0.00    +0.000 OA
ATOM     28  H   UNL     1      -1.021  12.127  20.354  0.00  0.00    +0.000 HD
ENDBRANCH  21  27
ENDBRANCH  18  26
ENDBRANCH  17  18
ENDBRANCH   1  17
TORSDOF 7
ENDMDL
MODEL 7
REMARK VINA RESULT:      -8.1      0.566      3.626
REMARK  Name = 
REMARK  14 active torsions:
REMARK  status: ('A' for Active; 'I' for Inactive)
REMARK    1  A    between atoms: C_1  and  C_2
REMARK    2  A    between atoms: C_3  and  O_4
REMARK    3  A    between atoms: N_9  and  C_10
REMARK    4  A    between atoms: C_10  and  C_11
REMARK    5  A    between atoms: C_11  and  C_12
REMARK    6  A    between atoms: C_14  and  C_15
REMARK    7  A    between atoms: C_15  and  C_16
REMARK    8  A    between atoms: C_15  and  C_17
REMARK    9  A    between atoms: C_15  and  C_18
REMARK   10  A    between atoms: C_19  and  O_20
REMARK   11  A    between atoms: C_21  and  C_22
REMARK   12  A    between atoms: C_22  and  C_23
REMARK   13  A    between atoms: C_22  and  C_24
REMARK   14  A    between atoms: C_22  and  C_25
REMARK                            x       y       z     vdW  Elec       q    Type
REMARK                         _______ _______ _______ _____ _____    ______ ____
ROOT
ATOM      1  C   UNL     1       3.322   7.161  17.872  0.00  0.00    +0.000 A 
ATOM      2  C   UNL     1       4.636   6.951  17.456  0.00  0.00    +0.000 A 
ATOM      3  C   UNL     1       5.295   5.701  17.520  0.00  0.00    +0.000 A 
ATOM      4  C   UNL     1       4.538   4.623  18.050  0.00  0.00    +0.000 A 
ATOM      5  C   UNL     1       3.202   4.783  18.516  0.00  0.00    +0.000 A 
ATOM      6  C   UNL     1       2.630   6.070  18.406  0.00  0.00    +0.000 A 
ENDROOT
BRANCH   3   7
ATOM      7  C   UNL     1       6.772   5.621  17.033  0.00  0.00    +0.000 C 
ATOM      8  C   UNL     1       7.644   4.674  17.911  0.00  0.00    +0.000 C 
ATOM      9  C   UNL     1       6.854   5.050  15.599  0.00  0.00    +0.000 C 
ATOM     10  C   UNL     1       7.491   6.986  17.095  0.00  0.00    +0.000 C 
ENDBRANCH   3   7
BRANCH   5  11
ATOM     11  C   UNL     1       2.385   3.624  19.158  0.00  0.00    +0.000 C 
ATOM     12  C   UNL     1       3.214   2.915  20.252  0.00  0.00    +0.000 C 
ATOM     13  C   UNL     1       1.079   4.116  19.841  0.00  0.00    +0.000 C 
ATOM     14  C   UNL     1       1.936   2.581  18.110  0.00  0.00    +0.000 C 
ENDBRANCH   5  11
BRANCH   4  15
ATOM     15  O   UNL     1       5.050   3.359  18.147  0.00  0.00    +0.000 OA
ATOM     16  H   UNL     1       5.089   3.067  19.064  0.00  0.00    +0.000 HD
ENDBRANCH   4  15
BRANCH   1  17
ATOM     17  C   UNL     1       2.624   8.510  17.793  0.00  0.00    +0.000 C 
BRANCH  17  18
ATOM     18  C   UNL     1       1.148   8.567  18.232  0.00  0.00    +0.000 C 
BRANCH  18  26
ATOM     19  C   UNL     1       1.076   7.832  21.113  0.00  0.00    +0.000 C 
ATOM     20  C   UNL     1       0.907   9.272  20.691  0.00  0.00    +0.000 A 
ATOM     21  C   UNL     1       0.700  10.238  21.628  0.00  0.00    +0.000 A 
ATOM     22  C   UNL     1       0.411  11.643  21.175  0.00  0.00    +0.000 A 
ATOM     23  O   UNL     1       0.191  12.563  21.961  0.00  0.00    +0.000 OA
ATOM     24  C   UNL     1       0.413  11.905  19.729  0.00  0.00    +0.000 A 
ATOM     25  C   UNL     1       0.671  10.892  18.907  0.00  0.00    +0.000 A 
ATOM     26  N   UNL     1       0.921   9.577  19.301  0.00  0.00    +0.000 N 
BRANCH  21  27
ATOM     27  O   UNL     1       0.716  10.027  22.996  0.00  0.00    +0.000 OA
ATOM     28  H   UNL     1      -0.149   9.686  23.264  0.00  0.00    +0.000 HD
ENDBRANCH  21  27
ENDBRANCH  18  26
ENDBRANCH  17  18
ENDBRANCH   1  17
TORSDOF 7
ENDMDL
MODEL 8
REMARK VINA RESULT:      -8.1      0.902      4.030
REMARK  Name = 
REMARK  14 active torsions:
REMARK  status: ('A' for Active; 'I' for Inactive)
REMARK    1  A    between atoms: C_1  and  C_2
REMARK    2  A    between atoms: C_3  and  O_4
REMARK    3  A    between atoms: N_9  and  C_10
REMARK    4  A    between atoms: C_10  and  C_11
REMARK    5  A    between atoms: C_11  and  C_12
REMARK    6  A    between atoms: C_14  and  C_15
REMARK    7  A    between atoms: C_15  and  C_16
REMARK    8  A    between atoms: C_15  and  C_17
REMARK    9  A    between atoms: C_15  and  C_18
REMARK   10  A    between atoms: C_19  and  O_20
REMARK   11  A    between atoms: C_21  and  C_22
REMARK   12  A    between atoms: C_22  and  C_23
REMARK   13  A    between atoms: C_22  and  C_24
REMARK   14  A    between atoms: C_22  and  C_25
REMARK                            x       y       z     vdW  Elec       q    Type
REMARK                         _______ _______ _______ _____ _____    ______ ____
ROOT
ATOM      1  C   UNL     1       2.946   6.614  18.022  0.00  0.00    +0.000 A 
ATOM      2  C   UNL     1       4.331   6.652  17.865  0.00  0.00    +0.000 A 
ATOM      3  C   UNL     1       5.194   5.581  18.200  0.00  0.00    +0.000 A 
ATOM      4  C   UNL     1       4.572   4.420  18.729  0.00  0.00    +0.000 A 
ATOM      5  C   UNL     1       3.166   4.333  18.937  0.00  0.00    +0.000 A 
ATOM      6  C   UNL     1       2.388   5.454  18.567  0.00  0.00    +0.000 A 
ENDROOT
BRANCH   3   7
ATOM      7  C   UNL     1       6.724   5.774  17.985  0.00  0.00    +0.000 C 
ATOM      8  C   UNL     1       7.531   5.715  19.317  0.00  0.00    +0.000 C 
ATOM      9  C   UNL     1       7.306   4.651  17.097  0.00  0.00    +0.000 C 
ATOM     10  C   UNL     1       7.069   7.152  17.379  0.00  0.00    +0.000 C 
ENDBRANCH   3   7
BRANCH   5  11
ATOM     11  C   UNL     1       2.479   3.091  19.575  0.00  0.00    +0.000 C 
ATOM     12  C   UNL     1       2.690   1.840  18.694  0.00  0.00    +0.000 C 
ATOM     13  C   UNL     1       3.048   2.744  20.979  0.00  0.00    +0.000 C 
ATOM     14  C   UNL     1       0.964   3.310  19.786  0.00  0.00    +0.000 C 
ENDBRANCH   5  11
BRANCH   4  15
ATOM     15  O   UNL     1       5.290   3.308  19.073  0.00  0.00    +0.000 OA
ATOM     16  H   UNL     1       6.203   3.533  19.279  0.00  0.00    +0.000 HD
ENDBRANCH   4  15
BRANCH   1  17
ATOM     17  C   UNL     1       2.030   7.770  17.652  0.00  0.00    +0.000 C 
BRANCH  17  18
ATOM     18  C   UNL     1       2.280   9.119  18.354  0.00  0.00    +0.000 C 
BRANCH  18  26
ATOM     19  C   UNL     1       0.440  11.443  18.606  0.00  0.00    +0.000 C 
ATOM     20  C   UNL     1       0.484  10.387  19.684  0.00  0.00    +0.000 A 
ATOM     21  C   UNL     1      -0.304  10.505  20.789  0.00  0.00    +0.000 A 
ATOM     22  C   UNL     1      -0.152   9.508  21.904  0.00  0.00    +0.000 A 
ATOM     23  O   UNL     1      -0.811   9.563  22.940  0.00  0.00    +0.000 OA
ATOM     24  C   UNL     1       0.821   8.422  21.716  0.00  0.00    +0.000 A 
ATOM     25  C   UNL     1       1.506   8.382  20.577  0.00  0.00    +0.000 A 
ATOM     26  N   UNL     1       1.398   9.306  19.537  0.00  0.00    +0.000 N 
BRANCH  21  27
ATOM     27  O   UNL     1      -1.245  11.502  20.983  0.00  0.00    +0.000 OA
ATOM     28  H   UNL     1      -1.022  11.980  21.794  0.00  0.00    +0.000 HD
ENDBRANCH  21  27
ENDBRANCH  18  26
ENDBRANCH  17  18
ENDBRANCH   1  17
TORSDOF 7
ENDMDL
MODEL 9
REMARK VINA RESULT:      -8.1      0.926      4.061
REMARK  Name = 
REMARK  14 active torsions:
REMARK  status: ('A' for Active; 'I' for Inactive)
REMARK    1  A    between atoms: C_1  and  C_2
REMARK    2  A    between atoms: C_3  and  O_4
REMARK    3  A    between atoms: N_9  and  C_10
REMARK    4  A    between atoms: C_10  and  C_11
REMARK    5  A    between atoms: C_11  and  C_12
REMARK    6  A    between atoms: C_14  and  C_15
REMARK    7  A    between atoms: C_15  and  C_16
REMARK    8  A    between atoms: C_15  and  C_17
REMARK    9  A    between atoms: C_15  and  C_18
REMARK   10  A    between atoms: C_19  and  O_20
REMARK   11  A    between atoms: C_21  and  C_22
REMARK   12  A    between atoms: C_22  and  C_23
REMARK   13  A    between atoms: C_22  and  C_24
REMARK   14  A    between atoms: C_22  and  C_25
REMARK                            x       y       z     vdW  Elec       q    Type
REMARK                         _______ _______ _______ _____ _____    ______ ____
ROOT
ATOM      1  C   UNL     1       2.869   6.572  18.078  0.00  0.00    +0.000 A 
ATOM      2  C   UNL     1       4.254   6.633  17.928  0.00  0.00    +0.000 A 
ATOM      3  C   UNL     1       5.131   5.571  18.253  0.00  0.00    +0.000 A 
ATOM      4  C   UNL     1       4.523   4.394  18.763  0.00  0.00    +0.000 A 
ATOM      5  C   UNL     1       3.118   4.283  18.963  0.00  0.00    +0.000 A 
ATOM      6  C   UNL     1       2.326   5.397  18.605  0.00  0.00    +0.000 A 
ENDROOT
BRANCH   3   7
ATOM      7  C   UNL     1       6.659   5.789  18.047  0.00  0.00    +0.000 C 
ATOM      8  C   UNL     1       7.305   4.700  17.138  0.00  0.00    +0.000 C 
ATOM      9  C   UNL     1       6.938   7.137  17.344  0.00  0.00    +0.000 C 
ATOM     10  C   UNL     1       7.451   5.716  19.371  0.00  0.00    +0.000 C 
ENDBRANCH   3   7
BRANCH   5  11
ATOM     11  C   UNL     1       2.447   3.022  19.582  0.00  0.00    +0.000 C 
ATOM     12  C   UNL     1       0.911   3.186  19.620  0.00  0.00    +0.000 C 
ATOM     13  C   UNL     1       2.735   1.729  18.771  0.00  0.00    +0.000 C 
ATOM     14  C   UNL     1       2.959   2.737  21.012  0.00  0.00    +0.000 C 
ENDBRANCH   5  11
BRANCH   4  15
ATOM     15  O   UNL     1       5.256   3.288  19.095  0.00  0.00    +0.000 OA
ATOM     16  H   UNL     1       5.420   3.250  20.044  0.00  0.00    +0.000 HD
ENDBRANCH   4  15
BRANCH   1  17
ATOM     17  C   UNL     1       1.937   7.720  17.719  0.00  0.00    +0.000 C 
BRANCH  17  18
ATOM     18  C   UNL     1       2.208   9.082  18.386  0.00  0.00    +0.000 C 
BRANCH  18  26
ATOM     19  C   UNL     1       0.380  11.418  18.608  0.00  0.00    +0.000 C 
ATOM     20  C   UNL     1       0.439  10.390  19.713  0.00  0.00    +0.000 A 
ATOM     21  C   UNL     1      -0.330  10.540  20.827  0.00  0.00    +0.000 A 
ATOM     22  C   UNL     1      -0.163   9.572  21.964  0.00  0.00    +0.000 A 
ATOM     23  O   UNL     1      -0.805   9.656  23.010  0.00  0.00    +0.000 OA
ATOM     24  C   UNL     1       0.803   8.478  21.789  0.00  0.00    +0.000 A 
ATOM     25  C   UNL     1       1.469   8.406  20.640  0.00  0.00    +0.000 A 
ATOM     26  N   UNL     1       1.347   9.303  19.579  0.00  0.00    +0.000 N 
BRANCH  21  27
ATOM     27  O   UNL     1      -1.265  11.545  21.010  0.00  0.00    +0.000 OA
ATOM     28  H   UNL     1      -1.104  11.961  21.869  0.00  0.00    +0.000 HD
ENDBRANCH  21  27
ENDBRANCH  18  26
ENDBRANCH  17  18
ENDBRANCH   1  17
TORSDOF 7
ENDMDL
