MODEL 1
REMARK VINA RESULT:      -8.9      0.000      0.000
REMARK  Name = 
REMARK  5 active torsions:
REMARK  status: ('A' for Active; 'I' for Inactive)
REMARK    1  A    between atoms: C_1  and  N_2
REMARK    2  A    between atoms: N_2  and  C_3
REMARK    3  A    between atoms: C_3  and  C_4
REMARK    4  A    between atoms: C_4  and  C_5
REMARK    5  A    between atoms: C_8  and  C_9
REMARK                            x       y       z     vdW  Elec       q    Type
REMARK                         _______ _______ _______ _____ _____    ______ ____
ROOT
ATOM      1  C   UNL     1       2.510   6.517  19.607  0.00  0.00    +0.000 C 
ATOM      2  C   UNL     1       3.398   6.277  18.630  0.00  0.00    +0.000 C 
ATOM      3  C   UNL     1       3.468   7.418  17.730  0.00  0.00    +0.000 C 
ATOM      4  C   UNL     1       4.254   7.480  16.642  0.00  0.00    +0.000 C 
ATOM      5  C   UNL     1       2.529   8.423  18.235  0.00  0.00    +0.000 A 
ATOM      6  C   UNL     1       2.145   9.679  17.796  0.00  0.00    +0.000 A 
ATOM      7  C   UNL     1       1.176  10.372  18.533  0.00  0.00    +0.000 A 
ATOM      8  C   UNL     1       0.613   9.813  19.692  0.00  0.00    +0.000 A 
ATOM      9  C   UNL     1       1.001   8.549  20.131  0.00  0.00    +0.000 A 
ATOM     10  C   UNL     1       1.954   7.856  19.395  0.00  0.00    +0.000 A 
ENDROOT
BRANCH   4  11
ATOM     11  C   UNL     1       5.143   6.352  16.277  0.00  0.00    +0.000 A 
ATOM     12  C   UNL     1       4.812   5.616  15.131  0.00  0.00    +0.000 A 
ATOM     13  C   UNL     1       5.512   4.455  14.809  0.00  0.00    +0.000 A 
ATOM     14  C   UNL     1       6.553   4.024  15.628  0.00  0.00    +0.000 A 
ATOM     15  C   UNL     1       6.912   4.744  16.777  0.00  0.00    +0.000 A 
ATOM     16  C   UNL     1       7.965   4.295  17.591  0.00  0.00    +0.000 A 
ATOM     17  C   UNL     1       8.330   4.993  18.743  0.00  0.00    +0.000 A 
ATOM     18  C   UNL     1       7.642   6.145  19.097  0.00  0.00    +0.000 A 
ATOM     19  C   UNL     1       6.593   6.604  18.299  0.00  0.00    +0.000 A 
ATOM     20  C   UNL     1       6.207   5.926  17.120  0.00  0.00    +0.000 A 
ENDBRANCH   4  11
BRANCH   1  21
ATOM     21  C   UNL     1       2.074   5.570  20.659  0.00  0.00    +0.000 C 
BRANCH  21  22
ATOM     22  C   UNL     1       1.264   4.405  20.110  0.00  0.00    +0.000 C 
BRANCH  22  24
ATOM     23  C   UNL     1       1.402   2.474  21.615  0.00  0.00    +0.000 C 
ATOM     24  N   UNL     1       1.926   3.016  20.264  0.00  0.00    +0.000 N 
ATOM     25  C   UNL     1       3.474   3.077  20.372  0.00  0.00    +0.000 C 
ATOM     26  C   UNL     1       4.192   3.039  19.015  0.00  0.00    +0.000 C 
ATOM     27  O   UNL     1       3.754   1.932  18.227  0.00  0.00    +0.000 OA
ATOM     28  C   UNL     1       2.368   2.042  17.910  0.00  0.00    +0.000 C 
ATOM     29  C   UNL     1       1.498   1.998  19.173  0.00  0.00    +0.000 C 
ENDBRANCH  22  24
ENDBRANCH  21  22
ENDBRANCH   1  21
TORSDOF 4
ENDMDL
MODEL 2
REMARK VINA RESULT:      -8.7      2.325      7.176
REMARK  Name = 
REMARK  5 active torsions:
REMARK  status: ('A' for Active; 'I' for Inactive)
REMARK    1  A    between atoms: C_1  and  N_2
REMARK    2  A    between atoms: N_2  and  C_3
REMARK    3  A    between atoms: C_3  and  C_4
REMARK    4  A    between atoms: C_4  and  C_5
REMARK    5  A    between atoms: C_8  and  C_9
REMARK                            x       y       z     vdW  Elec       q    Type
REMARK                         _______ _______ _______ _____ _____    ______ ____
ROOT
ATOM      1  C   UNL     1       3.331   5.472  18.354  0.00  0.00    +0.000 C 
ATOM      2  C   UNL     1       2.668   6.548  18.805  0.00  0.00    +0.000 C 
ATOM      3  C   UNL     1       2.076   6.259  20.103  0.00  0.00    +0.000 C 
ATOM      4  C   UNL     1       1.334   7.128  20.809  0.00  0.00    +0.000 C 
ATOM      5  C   UNL     1       2.433   4.879  20.442  0.00  0.00    +0.000 A 
ATOM      6  C   UNL     1       2.144   4.052  21.514  0.00  0.00    +0.000 A 
ATOM      7  C   UNL     1       2.647   2.745  21.499  0.00  0.00    +0.000 A 
ATOM      8  C   UNL     1       3.432   2.284  20.428  0.00  0.00    +0.000 A 
ATOM      9  C   UNL     1       3.720   3.118  19.351  0.00  0.00    +0.000 A 
ATOM     10  C   UNL     1       3.214   4.412  19.360  0.00  0.00    +0.000 A 
ENDROOT
BRANCH   4  11
ATOM     11  C   UNL     1       1.067   8.494  20.300  0.00  0.00    +0.000 A 
ATOM     12  C   UNL     1       1.603   8.831  19.049  0.00  0.00    +0.000 A 
ATOM     13  C   UNL     1       1.520  10.138  18.573  0.00  0.00    +0.000 A 
ATOM     14  C   UNL     1       0.896  11.117  19.342  0.00  0.00    +0.000 A 
ATOM     15  C   UNL     1       0.344  10.808  20.593  0.00  0.00    +0.000 A 
ATOM     16  C   UNL     1      -0.283  11.808  21.355  0.00  0.00    +0.000 A 
ATOM     17  C   UNL     1      -0.830  11.521  22.606  0.00  0.00    +0.000 A 
ATOM     18  C   UNL     1      -0.752  10.232  23.113  0.00  0.00    +0.000 A 
ATOM     19  C   UNL     1      -0.132   9.227  22.369  0.00  0.00    +0.000 A 
ATOM     20  C   UNL     1       0.422   9.482  21.094  0.00  0.00    +0.000 A 
ENDBRANCH   4  11
BRANCH   1  21
ATOM     21  C   UNL     1       3.983   5.324  17.032  0.00  0.00    +0.000 C 
BRANCH  21  22
ATOM     22  C   UNL     1       5.035   6.392  16.767  0.00  0.00    +0.000 C 
BRANCH  22  24
ATOM     23  C   UNL     1       6.687   5.117  15.479  0.00  0.00    +0.000 C 
ATOM     24  N   UNL     1       6.498   5.893  16.805  0.00  0.00    +0.000 N 
ATOM     25  C   UNL     1       6.782   4.892  17.958  0.00  0.00    +0.000 C 
ATOM     26  C   UNL     1       7.195   5.565  19.275  0.00  0.00    +0.000 C 
ATOM     27  O   UNL     1       8.279   6.472  19.076  0.00  0.00    +0.000 OA
ATOM     28  C   UNL     1       7.901   7.545  18.215  0.00  0.00    +0.000 C 
ATOM     29  C   UNL     1       7.546   7.038  16.811  0.00  0.00    +0.000 C 
ENDBRANCH  22  24
ENDBRANCH  21  22
ENDBRANCH   1  21
TORSDOF 4
ENDMDL
MODEL 3
REMARK VINA RESULT:      -8.6      4.023      7.406
REMARK  Name = 
REMARK  5 active torsions:
REMARK  status: ('A' for Active; 'I' for Inactive)
REMARK    1  A    between atoms: C_1  and  N_2
REMARK    2  A    between atoms: N_2  and  C_3
REMARK    3  A    between atoms: C_3  and  C_4
REMARK    4  A    between atoms: C_4  and  C_5
REMARK    5  A    between atoms: C_8  and  C_9
REMARK                            x       y       z     vdW  Elec       q    Type
REMARK                         _______ _______ _______ _____ _____    ______ ____
ROOT
ATOM      1  C   UNL     1       0.758  10.272  19.413  0.00  0.00    +0.000 C 
ATOM      2  C   UNL     1       1.307   9.053  19.306  0.00  0.00    +0.000 C 
ATOM      3  C   UNL     1       1.126   8.314  20.547  0.00  0.00    +0.000 C 
ATOM      4  C   UNL     1       1.579   7.068  20.761  0.00  0.00    +0.000 C 
ATOM      5  C   UNL     1       0.397   9.191  21.466  0.00  0.00    +0.000 A 
ATOM      6  C   UNL     1      -0.033   9.057  22.776  0.00  0.00    +0.000 A 
ATOM      7  C   UNL     1      -0.702  10.137  23.369  0.00  0.00    +0.000 A 
ATOM      8  C   UNL     1      -0.936  11.323  22.654  0.00  0.00    +0.000 A 
ATOM      9  C   UNL     1      -0.501  11.455  21.337  0.00  0.00    +0.000 A 
ATOM     10  C   UNL     1       0.170  10.388  20.751  0.00  0.00    +0.000 A 
ENDROOT
BRANCH   4  11
ATOM     11  C   UNL     1       2.312   6.329  19.706  0.00  0.00    +0.000 A 
ATOM     12  C   UNL     1       3.237   7.051  18.939  0.00  0.00    +0.000 A 
ATOM     13  C   UNL     1       3.853   6.464  17.836  0.00  0.00    +0.000 A 
ATOM     14  C   UNL     1       3.552   5.148  17.494  0.00  0.00    +0.000 A 
ATOM     15  C   UNL     1       2.637   4.398  18.247  0.00  0.00    +0.000 A 
ATOM     16  C   UNL     1       2.346   3.071  17.889  0.00  0.00    +0.000 A 
ATOM     17  C   UNL     1       1.431   2.314  18.620  0.00  0.00    +0.000 A 
ATOM     18  C   UNL     1       0.791   2.876  19.716  0.00  0.00    +0.000 A 
ATOM     19  C   UNL     1       1.069   4.193  20.085  0.00  0.00    +0.000 A 
ATOM     20  C   UNL     1       1.998   4.983  19.371  0.00  0.00    +0.000 A 
ENDBRANCH   4  11
BRANCH   1  21
ATOM     21  C   UNL     1       0.818  11.361  18.411  0.00  0.00    +0.000 C 
BRANCH  21  22
ATOM     22  C   UNL     1       2.098  12.180  18.499  0.00  0.00    +0.000 C 
BRANCH  22  24
ATOM     23  C   UNL     1       0.429  13.964  18.709  0.00  0.00    +0.000 C 
ATOM     24  N   UNL     1       1.913  13.632  18.996  0.00  0.00    +0.000 N 
ATOM     25  C   UNL     1       2.767  14.668  18.215  0.00  0.00    +0.000 C 
ATOM     26  C   UNL     1       4.176  14.870  18.791  0.00  0.00    +0.000 C 
ATOM     27  O   UNL     1       4.129  15.160  20.187  0.00  0.00    +0.000 OA
ATOM     28  C   UNL     1       3.581  14.068  20.923  0.00  0.00    +0.000 C 
ATOM     29  C   UNL     1       2.124  13.798  20.525  0.00  0.00    +0.000 C 
ENDBRANCH  22  24
ENDBRANCH  21  22
ENDBRANCH   1  21
TORSDOF 4
ENDMDL
MODEL 4
REMARK VINA RESULT:      -8.4      2.150      6.864
REMARK  Name = 
REMARK  5 active torsions:
REMARK  status: ('A' for Active; 'I' for Inactive)
REMARK    1  A    between atoms: C_1  and  N_2
REMARK    2  A    between atoms: N_2  and  C_3
REMARK    3  A    between atoms: C_3  and  C_4
REMARK    4  A    between atoms: C_4  and  C_5
REMARK    5  A    between atoms: C_8  and  C_9
REMARK                            x       y       z     vdW  Elec       q    Type
REMARK                         _______ _______ _______ _____ _____    ______ ____
ROOT
ATOM      1  C   UNL     1       3.086   4.873  18.187  0.00  0.00    +0.000 C 
ATOM      2  C   UNL     1       2.589   6.065  18.553  0.00  0.00    +0.000 C 
ATOM      3  C   UNL     1       2.120   6.006  19.930  0.00  0.00    +0.000 C 
ATOM      4  C   UNL     1       1.553   7.034  20.583  0.00  0.00    +0.000 C 
ATOM      5  C   UNL     1       2.373   4.647  20.413  0.00  0.00    +0.000 A 
ATOM      6  C   UNL     1       2.123   3.995  21.609  0.00  0.00    +0.000 A 
ATOM      7  C   UNL     1       2.487   2.647  21.720  0.00  0.00    +0.000 A 
ATOM      8  C   UNL     1       3.096   1.972  20.649  0.00  0.00    +0.000 A 
ATOM      9  C   UNL     1       3.345   2.630  19.446  0.00  0.00    +0.000 A 
ATOM     10  C   UNL     1       2.976   3.965  19.332  0.00  0.00    +0.000 A 
ENDROOT
BRANCH   4  11
ATOM     11  C   UNL     1       1.370   8.349  19.924  0.00  0.00    +0.000 A 
ATOM     12  C   UNL     1       1.945   8.521  18.657  0.00  0.00    +0.000 A 
ATOM     13  C   UNL     1       1.943   9.771  18.043  0.00  0.00    +0.000 A 
ATOM     14  C   UNL     1       1.359  10.859  18.688  0.00  0.00    +0.000 A 
ATOM     15  C   UNL     1       0.769  10.716  19.952  0.00  0.00    +0.000 A 
ATOM     16  C   UNL     1       0.185  11.824  20.588  0.00  0.00    +0.000 A 
ATOM     17  C   UNL     1      -0.399  11.703  21.849  0.00  0.00    +0.000 A 
ATOM     18  C   UNL     1      -0.400  10.473  22.493  0.00  0.00    +0.000 A 
ATOM     19  C   UNL     1       0.177   9.363  21.874  0.00  0.00    +0.000 A 
ATOM     20  C   UNL     1       0.766   9.450  20.593  0.00  0.00    +0.000 A 
ENDBRANCH   4  11
BRANCH   1  21
ATOM     21  C   UNL     1       3.568   4.492  16.839  0.00  0.00    +0.000 C 
BRANCH  21  22
ATOM     22  C   UNL     1       4.935   3.823  16.865  0.00  0.00    +0.000 C 
BRANCH  22  24
ATOM     23  C   UNL     1       6.320   4.022  14.851  0.00  0.00    +0.000 C 
ATOM     24  N   UNL     1       6.081   4.654  16.243  0.00  0.00    +0.000 N 
ATOM     25  C   UNL     1       7.419   4.547  17.024  0.00  0.00    +0.000 C 
ATOM     26  C   UNL     1       7.562   5.578  18.153  0.00  0.00    +0.000 C 
ATOM     27  O   UNL     1       7.325   6.903  17.679  0.00  0.00    +0.000 OA
ATOM     28  C   UNL     1       5.986   7.050  17.210  0.00  0.00    +0.000 C 
ATOM     29  C   UNL     1       5.710   6.143  16.004  0.00  0.00    +0.000 C 
ENDBRANCH  22  24
ENDBRANCH  21  22
ENDBRANCH   1  21
TORSDOF 4
ENDMDL
MODEL 5
REMARK VINA RESULT:      -8.2      2.300      7.233
REMARK  Name = 
REMARK  5 active torsions:
REMARK  status: ('A' for Active; 'I' for Inactive)
REMARK    1  A    between atoms: C_1  and  N_2
REMARK    2  A    between atoms: N_2  and  C_3
REMARK    3  A    between atoms: C_3  and  C_4
REMARK    4  A    between atoms: C_4  and  C_5
REMARK    5  A    between atoms: C_8  and  C_9
REMARK                            x       y       z     vdW  Elec       q    Type
REMARK                         _______ _______ _______ _____ _____    ______ ____
ROOT
ATOM      1  C   UNL     1       3.641   5.893  18.626  0.00  0.00    +0.000 C 
ATOM      2  C   UNL     1       2.843   6.894  19.030  0.00  0.00    +0.000 C 
ATOM      3  C   UNL     1       2.037   6.463  20.161  0.00  0.00    +0.000 C 
ATOM      4  C   UNL     1       1.127   7.231  20.782  0.00  0.00    +0.000 C 
ATOM      5  C   UNL     1       2.403   5.073  20.446  0.00  0.00    +0.000 A 
ATOM      6  C   UNL     1       1.966   4.139  21.370  0.00  0.00    +0.000 A 
ATOM      7  C   UNL     1       2.538   2.860  21.343  0.00  0.00    +0.000 A 
ATOM      8  C   UNL     1       3.534   2.534  20.408  0.00  0.00    +0.000 A 
ATOM      9  C   UNL     1       3.971   3.475  19.479  0.00  0.00    +0.000 A 
ATOM     10  C   UNL     1       3.398   4.741  19.499  0.00  0.00    +0.000 A 
ENDROOT
BRANCH   4  11
ATOM     11  C   UNL     1       0.881   8.627  20.346  0.00  0.00    +0.000 A 
ATOM     12  C   UNL     1       1.420   9.020  19.113  0.00  0.00    +0.000 A 
ATOM     13  C   UNL     1       1.358  10.351  18.707  0.00  0.00    +0.000 A 
ATOM     14  C   UNL     1       0.753  11.299  19.529  0.00  0.00    +0.000 A 
ATOM     15  C   UNL     1       0.198  10.934  20.764  0.00  0.00    +0.000 A 
ATOM     16  C   UNL     1      -0.410  11.902  21.580  0.00  0.00    +0.000 A 
ATOM     17  C   UNL     1      -0.959  11.559  22.815  0.00  0.00    +0.000 A 
ATOM     18  C   UNL     1      -0.900  10.243  23.253  0.00  0.00    +0.000 A 
ATOM     19  C   UNL     1      -0.299   9.269  22.455  0.00  0.00    +0.000 A 
ATOM     20  C   UNL     1       0.255   9.582  21.193  0.00  0.00    +0.000 A 
ENDBRANCH   4  11
BRANCH   1  21
ATOM     21  C   UNL     1       4.536   5.895  17.446  0.00  0.00    +0.000 C 
BRANCH  21  22
ATOM     22  C   UNL     1       5.407   7.141  17.365  0.00  0.00    +0.000 C 
BRANCH  22  24
ATOM     23  C   UNL     1       7.583   8.272  17.403  0.00  0.00    +0.000 C 
ATOM     24  N   UNL     1       6.929   6.872  17.311  0.00  0.00    +0.000 N 
ATOM     25  C   UNL     1       7.399   6.241  15.972  0.00  0.00    +0.000 C 
ATOM     26  C   UNL     1       7.337   4.707  15.955  0.00  0.00    +0.000 C 
ATOM     27  O   UNL     1       8.017   4.147  17.078  0.00  0.00    +0.000 OA
ATOM     28  C   UNL     1       7.392   4.529  18.302  0.00  0.00    +0.000 C 
ATOM     29  C   UNL     1       7.457   6.047  18.515  0.00  0.00    +0.000 C 
ENDBRANCH  22  24
ENDBRANCH  21  22
ENDBRANCH   1  21
TORSDOF 4
ENDMDL
MODEL 6
REMARK VINA RESULT:      -8.1      1.851      6.486
REMARK  Name = 
REMARK  5 active torsions:
REMARK  status: ('A' for Active; 'I' for Inactive)
REMARK    1  A    between atoms: C_1  and  N_2
REMARK    2  A    between atoms: N_2  and  C_3
REMARK    3  A    between atoms: C_3  and  C_4
REMARK    4  A    between atoms: C_4  and  C_5
REMARK    5  A    between atoms: C_8  and  C_9
REMARK                            x       y       z     vdW  Elec       q    Type
REMARK                         _______ _______ _______ _____ _____    ______ ____
ROOT
ATOM      1  C   UNL     1       2.216   6.619  19.699  0.00  0.00    +0.000 C 
ATOM      2  C   UNL     1       1.631   7.816  19.538  0.00  0.00    +0.000 C 
ATOM      3  C   UNL     1       2.195   8.494  18.381  0.00  0.00    +0.000 C 
ATOM      4  C   UNL     1       1.831   9.719  17.967  0.00  0.00    +0.000 C 
ATOM      5  C   UNL     1       3.207   7.602  17.810  0.00  0.00    +0.000 A 
ATOM      6  C   UNL     1       4.080   7.707  16.740  0.00  0.00    +0.000 A 
ATOM      7  C   UNL     1       4.951   6.639  16.487  0.00  0.00    +0.000 A 
ATOM      8  C   UNL     1       4.938   5.489  17.293  0.00  0.00    +0.000 A 
ATOM      9  C   UNL     1       4.060   5.387  18.370  0.00  0.00    +0.000 A 
ATOM     10  C   UNL     1       3.201   6.449  18.627  0.00  0.00    +0.000 A 
ENDROOT
BRANCH   4  11
ATOM     11  C   UNL     1       0.783  10.486  18.681  0.00  0.00    +0.000 A 
ATOM     12  C   UNL     1       1.161  11.154  19.855  0.00  0.00    +0.000 A 
ATOM     13  C   UNL     1       0.204  11.770  20.657  0.00  0.00    +0.000 A 
ATOM     14  C   UNL     1      -1.139  11.729  20.290  0.00  0.00    +0.000 A 
ATOM     15  C   UNL     1      -1.546  11.076  19.117  0.00  0.00    +0.000 A 
ATOM     16  C   UNL     1      -2.905  11.045  18.761  0.00  0.00    +0.000 A 
ATOM     17  C   UNL     1      -3.330  10.392  17.604  0.00  0.00    +0.000 A 
ATOM     18  C   UNL     1      -2.401   9.757  16.791  0.00  0.00    +0.000 A 
ATOM     19  C   UNL     1      -1.047   9.778  17.131  0.00  0.00    +0.000 A 
ATOM     20  C   UNL     1      -0.584  10.440  18.291  0.00  0.00    +0.000 A 
ENDBRANCH   4  11
BRANCH   1  21
ATOM     21  C   UNL     1       1.998   5.670  20.814  0.00  0.00    +0.000 C 
BRANCH  21  22
ATOM     22  C   UNL     1       2.896   4.444  20.735  0.00  0.00    +0.000 C 
BRANCH  22  24
ATOM     23  C   UNL     1       1.669   2.585  21.761  0.00  0.00    +0.000 C 
ATOM     24  N   UNL     1       2.169   3.121  20.398  0.00  0.00    +0.000 N 
ATOM     25  C   UNL     1       3.105   2.035  19.802  0.00  0.00    +0.000 C 
ATOM     26  C   UNL     1       3.242   2.107  18.274  0.00  0.00    +0.000 C 
ATOM     27  O   UNL     1       1.965   2.120  17.638  0.00  0.00    +0.000 OA
ATOM     28  C   UNL     1       1.222   3.284  17.998  0.00  0.00    +0.000 C 
ATOM     29  C   UNL     1       0.916   3.311  19.501  0.00  0.00    +0.000 C 
ENDBRANCH  22  24
ENDBRANCH  21  22
ENDBRANCH   1  21
TORSDOF 4
ENDMDL
MODEL 7
REMARK VINA RESULT:      -8.0      3.932      6.980
REMARK  Name = 
REMARK  5 active torsions:
REMARK  status: ('A' for Active; 'I' for Inactive)
REMARK    1  A    between atoms: C_1  and  N_2
REMARK    2  A    between atoms: N_2  and  C_3
REMARK    3  A    between atoms: C_3  and  C_4
REMARK    4  A    between atoms: C_4  and  C_5
REMARK    5  A    between atoms: C_8  and  C_9
REMARK                            x       y       z     vdW  Elec       q    Type
REMARK                         _______ _______ _______ _____ _____    ______ ____
ROOT
ATOM      1  C   UNL     1       0.458   9.457  19.263  0.00  0.00    +0.000 C 
ATOM      2  C   UNL     1       1.193   8.335  19.205  0.00  0.00    +0.000 C 
ATOM      3  C   UNL     1       1.432   7.826  20.547  0.00  0.00    +0.000 C 
ATOM      4  C   UNL     1       2.149   6.726  20.825  0.00  0.00    +0.000 C 
ATOM      5  C   UNL     1       0.767   8.741  21.479  0.00  0.00    +0.000 A 
ATOM      6  C   UNL     1       0.667   8.794  22.859  0.00  0.00    +0.000 A 
ATOM      7  C   UNL     1      -0.048   9.853  23.433  0.00  0.00    +0.000 A 
ATOM      8  C   UNL     1      -0.655  10.834  22.631  0.00  0.00    +0.000 A 
ATOM      9  C   UNL     1      -0.552  10.778  21.243  0.00  0.00    +0.000 A 
ATOM     10  C   UNL     1       0.166   9.734  20.673  0.00  0.00    +0.000 A 
ENDROOT
BRANCH   4  11
ATOM     11  C   UNL     1       2.761   5.919  19.742  0.00  0.00    +0.000 A 
ATOM     12  C   UNL     1       3.791   6.514  18.999  0.00  0.00    +0.000 A 
ATOM     13  C   UNL     1       4.310   5.877  17.875  0.00  0.00    +0.000 A 
ATOM     14  C   UNL     1       3.809   4.637  17.486  0.00  0.00    +0.000 A 
ATOM     15  C   UNL     1       2.785   4.014  18.214  0.00  0.00    +0.000 A 
ATOM     16  C   UNL     1       2.291   2.763  17.809  0.00  0.00    +0.000 A 
ATOM     17  C   UNL     1       1.267   2.132  18.515  0.00  0.00    +0.000 A 
ATOM     18  C   UNL     1       0.719   2.748  19.632  0.00  0.00    +0.000 A 
ATOM     19  C   UNL     1       1.198   3.991  20.047  0.00  0.00    +0.000 A 
ATOM     20  C   UNL     1       2.242   4.651  19.360  0.00  0.00    +0.000 A 
ENDBRANCH   4  11
BRANCH   1  21
ATOM     21  C   UNL     1       0.088  10.333  18.128  0.00  0.00    +0.000 C 
BRANCH  21  22
ATOM     22  C   UNL     1      -1.334  10.100  17.638  0.00  0.00    +0.000 C 
BRANCH  22  24
ATOM     23  C   UNL     1      -1.214  12.546  17.770  0.00  0.00    +0.000 C 
ATOM     24  N   UNL     1      -2.187  11.380  17.477  0.00  0.00    +0.000 N 
ATOM     25  C   UNL     1      -3.345  11.487  18.506  0.00  0.00    +0.000 C 
ATOM     26  C   UNL     1      -4.646  10.810  18.049  0.00  0.00    +0.000 C 
ATOM     27  O   UNL     1      -5.038  11.263  16.754  0.00  0.00    +0.000 OA
ATOM     28  C   UNL     1      -4.070  10.908  15.768  0.00  0.00    +0.000 C 
ATOM     29  C   UNL     1      -2.722  11.591  16.034  0.00  0.00    +0.000 C 
ENDBRANCH  22  24
ENDBRANCH  21  22
ENDBRANCH   1  21
TORSDOF 4
ENDMDL
MODEL 8
REMARK VINA RESULT:      -8.0      2.222      7.060
REMARK  Name = 
REMARK  5 active torsions:
REMARK  status: ('A' for Active; 'I' for Inactive)
REMARK    1  A    between atoms: C_1  and  N_2
REMARK    2  A    between atoms: N_2  and  C_3
REMARK    3  A    between atoms: C_3  and  C_4
REMARK    4  A    between atoms: C_4  and  C_5
REMARK    5  A    between atoms: C_8  and  C_9
REMARK                            x       y       z     vdW  Elec       q    Type
REMARK                         _______ _______ _______ _____ _____    ______ ____
ROOT
ATOM      1  C   UNL     1       3.424   5.828  18.307  0.00  0.00    +0.000 C 
ATOM      2  C   UNL     1       2.709   6.861  18.780  0.00  0.00    +0.000 C 
ATOM      3  C   UNL     1       2.078   6.494  20.039  0.00  0.00    +0.000 C 
ATOM      4  C   UNL     1       1.282   7.306  20.754  0.00  0.00    +0.000 C 
ATOM      5  C   UNL     1       2.467   5.112  20.329  0.00  0.00    +0.000 A 
ATOM      6  C   UNL     1       2.164   4.227  21.350  0.00  0.00    +0.000 A 
ATOM      7  C   UNL     1       2.710   2.937  21.295  0.00  0.00    +0.000 A 
ATOM      8  C   UNL     1       3.549   2.552  20.237  0.00  0.00    +0.000 A 
ATOM      9  C   UNL     1       3.850   3.444  19.210  0.00  0.00    +0.000 A 
ATOM     10  C   UNL     1       3.302   4.720  19.258  0.00  0.00    +0.000 A 
ENDROOT
BRANCH   4  11
ATOM     11  C   UNL     1       0.990   8.685  20.298  0.00  0.00    +0.000 A 
ATOM     12  C   UNL     1       1.517   9.078  19.059  0.00  0.00    +0.000 A 
ATOM     13  C   UNL     1       1.411  10.400  18.633  0.00  0.00    +0.000 A 
ATOM     14  C   UNL     1       0.772  11.339  19.440  0.00  0.00    +0.000 A 
ATOM     15  C   UNL     1       0.228  10.974  20.680  0.00  0.00    +0.000 A 
ATOM     16  C   UNL     1      -0.413  11.933  21.481  0.00  0.00    +0.000 A 
ATOM     17  C   UNL     1      -0.952  11.590  22.721  0.00  0.00    +0.000 A 
ATOM     18  C   UNL     1      -0.850  10.284  23.178  0.00  0.00    +0.000 A 
ATOM     19  C   UNL     1      -0.215   9.319  22.395  0.00  0.00    +0.000 A 
ATOM     20  C   UNL     1       0.331   9.632  21.130  0.00  0.00    +0.000 A 
ENDBRANCH   4  11
BRANCH   1  21
ATOM     21  C   UNL     1       4.130   5.763  17.007  0.00  0.00    +0.000 C 
BRANCH  21  22
ATOM     22  C   UNL     1       5.616   6.066  17.123  0.00  0.00    +0.000 C 
BRANCH  22  24
ATOM     23  C   UNL     1       7.344   4.543  17.965  0.00  0.00    +0.000 C 
ATOM     24  N   UNL     1       6.554   4.916  16.688  0.00  0.00    +0.000 N 
ATOM     25  C   UNL     1       7.598   5.340  15.619  0.00  0.00    +0.000 C 
ATOM     26  C   UNL     1       7.097   5.201  14.174  0.00  0.00    +0.000 C 
ATOM     27  O   UNL     1       6.580   3.894  13.928  0.00  0.00    +0.000 OA
ATOM     28  C   UNL     1       5.439   3.629  14.743  0.00  0.00    +0.000 C 
ATOM     29  C   UNL     1       5.800   3.637  16.233  0.00  0.00    +0.000 C 
ENDBRANCH  22  24
ENDBRANCH  21  22
ENDBRANCH   1  21
TORSDOF 4
ENDMDL
MODEL 9
REMARK VINA RESULT:      -8.0      1.612      5.828
REMARK  Name = 
REMARK  5 active torsions:
REMARK  status: ('A' for Active; 'I' for Inactive)
REMARK    1  A    between atoms: C_1  and  N_2
REMARK    2  A    between atoms: N_2  and  C_3
REMARK    3  A    between atoms: C_3  and  C_4
REMARK    4  A    between atoms: C_4  and  C_5
REMARK    5  A    between atoms: C_8  and  C_9
REMARK                            x       y       z     vdW  Elec       q    Type
REMARK                         _______ _______ _______ _____ _____    ______ ____
ROOT
ATOM      1  C   UNL     1       2.657   5.277  17.516  0.00  0.00    +0.000 C 
ATOM      2  C   UNL     1       2.077   6.428  17.887  0.00  0.00    +0.000 C 
ATOM      3  C   UNL     1       3.067   7.494  17.926  0.00  0.00    +0.000 C 
ATOM      4  C   UNL     1       2.802   8.763  18.278  0.00  0.00    +0.000 C 
ATOM      5  C   UNL     1       4.350   6.905  17.536  0.00  0.00    +0.000 A 
ATOM      6  C   UNL     1       5.635   7.406  17.416  0.00  0.00    +0.000 A 
ATOM      7  C   UNL     1       6.657   6.528  17.030  0.00  0.00    +0.000 A 
ATOM      8  C   UNL     1       6.385   5.176  16.763  0.00  0.00    +0.000 A 
ATOM      9  C   UNL     1       5.091   4.675  16.886  0.00  0.00    +0.000 A 
ATOM     10  C   UNL     1       4.079   5.542  17.278  0.00  0.00    +0.000 A 
ENDROOT
BRANCH   4  11
ATOM     11  C   UNL     1       1.431   9.181  18.655  0.00  0.00    +0.000 A 
ATOM     12  C   UNL     1       0.587   9.622  17.626  0.00  0.00    +0.000 A 
ATOM     13  C   UNL     1      -0.660  10.169  17.919  0.00  0.00    +0.000 A 
ATOM     14  C   UNL     1      -1.076  10.274  19.244  0.00  0.00    +0.000 A 
ATOM     15  C   UNL     1      -0.257   9.834  20.295  0.00  0.00    +0.000 A 
ATOM     16  C   UNL     1      -0.693   9.948  21.625  0.00  0.00    +0.000 A 
ATOM     17  C   UNL     1       0.112   9.524  22.683  0.00  0.00    +0.000 A 
ATOM     18  C   UNL     1       1.365   8.988  22.423  0.00  0.00    +0.000 A 
ATOM     19  C   UNL     1       1.813   8.869  21.106  0.00  0.00    +0.000 A 
ATOM     20  C   UNL     1       1.017   9.278  20.012  0.00  0.00    +0.000 A 
ENDBRANCH   4  11
BRANCH   1  21
ATOM     21  C   UNL     1       2.017   3.942  17.454  0.00  0.00    +0.000 C 
BRANCH  21  22
ATOM     22  C   UNL     1       1.164   3.637  18.677  0.00  0.00    +0.000 C 
BRANCH  22  24
ATOM     23  C   UNL     1       0.646   1.251  18.904  0.00  0.00    +0.000 C 
ATOM     24  N   UNL     1       1.569   2.363  19.455  0.00  0.00    +0.000 N 
ATOM     25  C   UNL     1       1.301   2.458  20.982  0.00  0.00    +0.000 C 
ATOM     26  C   UNL     1       2.465   3.065  21.779  0.00  0.00    +0.000 C 
ATOM     27  O   UNL     1       3.694   2.398  21.492  0.00  0.00    +0.000 OA
ATOM     28  C   UNL     1       4.060   2.558  20.123  0.00  0.00    +0.000 C 
ATOM     29  C   UNL     1       3.030   1.910  19.188  0.00  0.00    +0.000 C 
ENDBRANCH  22  24
ENDBRANCH  21  22
ENDBRANCH   1  21
TORSDOF 4
ENDMDL
