MODEL 1
REMARK VINA RESULT:      -7.4      0.000      0.000
REMARK  Name = 
REMARK  5 active torsions:
REMARK  status: ('A' for Active; 'I' for Inactive)
REMARK    1  A    between atoms: C_1  and  O_2
REMARK    2  A    between atoms: O_2  and  C_3
REMARK    3  A    between atoms: C_7  and  N_8
REMARK    4  A    between atoms: N_9  and  C_10
REMARK    5  A    between atoms: C_19  and  O_20
REMARK                            x       y       z     vdW  Elec       q    Type
REMARK                         _______ _______ _______ _____ _____    ______ ____
ROOT
ATOM      1  C   UNL     1       1.700   8.522  18.675  0.00  0.00    +0.000 A 
ATOM      2  C   UNL     1       1.252   9.771  18.215  0.00  0.00    +0.000 A 
ATOM      3  C   UNL     1       0.575  10.648  19.060  0.00  0.00    +0.000 A 
ATOM      4  C   UNL     1       0.356  10.323  20.404  0.00  0.00    +0.000 A 
ATOM      5  C   UNL     1      -0.373  11.197  21.225  0.00  0.00    +0.000 A 
ATOM      6  C   UNL     1      -0.574  10.911  22.573  0.00  0.00    +0.000 A 
ATOM      7  C   UNL     1      -0.005   9.772  23.128  0.00  0.00    +0.000 A 
ATOM      8  C   UNL     1       0.715   8.887  22.320  0.00  0.00    +0.000 A 
ATOM      9  C   UNL     1       0.869   9.117  20.931  0.00  0.00    +0.000 A 
ATOM     10  C   UNL     1       1.511   8.218  20.037  0.00  0.00    +0.000 A 
ENDROOT
BRANCH   1  12
ATOM     11  N   UNL     1       3.534   7.357  18.204  0.00  0.00    +0.000 NA
ATOM     12  N   UNL     1       2.365   7.606  17.828  0.00  0.00    +0.000 NA
BRANCH  11  17
ATOM     13  C   UNL     1       5.603   5.499  15.694  0.00  0.00    +0.000 A 
ATOM     14  C   UNL     1       5.205   4.191  15.979  0.00  0.00    +0.000 A 
ATOM     15  C   UNL     1       4.271   3.939  16.982  0.00  0.00    +0.000 A 
ATOM     16  C   UNL     1       3.735   5.001  17.715  0.00  0.00    +0.000 A 
ATOM     17  C   UNL     1       4.135   6.318  17.462  0.00  0.00    +0.000 A 
ATOM     18  C   UNL     1       5.060   6.552  16.433  0.00  0.00    +0.000 A 
BRANCH  13  20
ATOM     19  C   UNL     1       6.747   4.461  13.893  0.00  0.00    +0.000 C 
ATOM     20  O   UNL     1       6.509   5.628  14.677  0.00  0.00    +0.000 OA
ENDBRANCH  13  20
ENDBRANCH  11  17
ENDBRANCH   1  12
BRANCH  10  21
ATOM     21  O   UNL     1       1.947   6.988  20.482  0.00  0.00    +0.000 OA
ATOM     22  H   UNL     1       2.174   7.080  21.424  0.00  0.00    +0.000 HD
ENDBRANCH  10  21
TORSDOF 4
ENDMDL
MODEL 2
REMARK VINA RESULT:      -7.3      1.216      1.527
REMARK  Name = 
REMARK  5 active torsions:
REMARK  status: ('A' for Active; 'I' for Inactive)
REMARK    1  A    between atoms: C_1  and  O_2
REMARK    2  A    between atoms: O_2  and  C_3
REMARK    3  A    between atoms: C_7  and  N_8
REMARK    4  A    between atoms: N_9  and  C_10
REMARK    5  A    between atoms: C_19  and  O_20
REMARK                            x       y       z     vdW  Elec       q    Type
REMARK                         _______ _______ _______ _____ _____    ______ ____
ROOT
ATOM      1  C   UNL     1       2.480   7.761  18.566  0.00  0.00    +0.000 A 
ATOM      2  C   UNL     1       2.066   8.848  17.780  0.00  0.00    +0.000 A 
ATOM      3  C   UNL     1       1.174   9.795  18.275  0.00  0.00    +0.000 A 
ATOM      4  C   UNL     1       0.693   9.711  19.588  0.00  0.00    +0.000 A 
ATOM      5  C   UNL     1      -0.246  10.645  20.051  0.00  0.00    +0.000 A 
ATOM      6  C   UNL     1      -0.711  10.601  21.362  0.00  0.00    +0.000 A 
ATOM      7  C   UNL     1      -0.206   9.653  22.242  0.00  0.00    +0.000 A 
ATOM      8  C   UNL     1       0.721   8.708  21.791  0.00  0.00    +0.000 A 
ATOM      9  C   UNL     1       1.154   8.685  20.443  0.00  0.00    +0.000 A 
ATOM     10  C   UNL     1       2.025   7.703  19.898  0.00  0.00    +0.000 A 
ENDROOT
BRANCH   1  12
ATOM     11  N   UNL     1       4.307   7.255  17.405  0.00  0.00    +0.000 NA
ATOM     12  N   UNL     1       3.365   6.773  18.074  0.00  0.00    +0.000 NA
BRANCH  11  17
ATOM     13  C   UNL     1       6.091   4.432  15.708  0.00  0.00    +0.000 A 
ATOM     14  C   UNL     1       7.227   4.348  16.515  0.00  0.00    +0.000 A 
ATOM     15  C   UNL     1       7.391   5.213  17.596  0.00  0.00    +0.000 A 
ATOM     16  C   UNL     1       6.417   6.176  17.869  0.00  0.00    +0.000 A 
ATOM     17  C   UNL     1       5.280   6.292  17.062  0.00  0.00    +0.000 A 
ATOM     18  C   UNL     1       5.124   5.398  15.991  0.00  0.00    +0.000 A 
BRANCH  13  20
ATOM     19  C   UNL     1       6.474   3.970  13.413  0.00  0.00    +0.000 C 
ATOM     20  O   UNL     1       6.027   3.520  14.689  0.00  0.00    +0.000 OA
ENDBRANCH  13  20
ENDBRANCH  11  17
ENDBRANCH   1  12
BRANCH  10  21
ATOM     21  O   UNL     1       2.429   6.631  20.664  0.00  0.00    +0.000 OA
ATOM     22  H   UNL     1       2.167   5.819  20.194  0.00  0.00    +0.000 HD
ENDBRANCH  10  21
TORSDOF 4
ENDMDL
MODEL 3
REMARK VINA RESULT:      -7.3      1.857      1.993
REMARK  Name = 
REMARK  5 active torsions:
REMARK  status: ('A' for Active; 'I' for Inactive)
REMARK    1  A    between atoms: C_1  and  O_2
REMARK    2  A    between atoms: O_2  and  C_3
REMARK    3  A    between atoms: C_7  and  N_8
REMARK    4  A    between atoms: N_9  and  C_10
REMARK    5  A    between atoms: C_19  and  O_20
REMARK                            x       y       z     vdW  Elec       q    Type
REMARK                         _______ _______ _______ _____ _____    ______ ____
ROOT
ATOM      1  C   UNL     1       1.531   8.743  19.392  0.00  0.00    +0.000 A 
ATOM      2  C   UNL     1       0.964   9.622  18.456  0.00  0.00    +0.000 A 
ATOM      3  C   UNL     1       0.031  10.581  18.843  0.00  0.00    +0.000 A 
ATOM      4  C   UNL     1      -0.339  10.721  20.186  0.00  0.00    +0.000 A 
ATOM      5  C   UNL     1      -1.319  11.657  20.548  0.00  0.00    +0.000 A 
ATOM      6  C   UNL     1      -1.677  11.838  21.881  0.00  0.00    +0.000 A 
ATOM      7  C   UNL     1      -1.025  11.119  22.874  0.00  0.00    +0.000 A 
ATOM      8  C   UNL     1      -0.055  10.174  22.527  0.00  0.00    +0.000 A 
ATOM      9  C   UNL     1       0.275   9.918  21.174  0.00  0.00    +0.000 A 
ATOM     10  C   UNL     1       1.185   8.914  20.747  0.00  0.00    +0.000 A 
ENDROOT
BRANCH   1  12
ATOM     11  N   UNL     1       2.070   6.588  19.297  0.00  0.00    +0.000 NA
ATOM     12  N   UNL     1       2.460   7.745  19.017  0.00  0.00    +0.000 NA
BRANCH  11  17
ATOM     13  C   UNL     1       5.084   4.501  18.526  0.00  0.00    +0.000 A 
ATOM     14  C   UNL     1       4.531   3.618  17.597  0.00  0.00    +0.000 A 
ATOM     15  C   UNL     1       3.187   3.719  17.240  0.00  0.00    +0.000 A 
ATOM     16  C   UNL     1       2.385   4.703  17.821  0.00  0.00    +0.000 A 
ATOM     17  C   UNL     1       2.912   5.586  18.770  0.00  0.00    +0.000 A 
ATOM     18  C   UNL     1       4.273   5.482  19.100  0.00  0.00    +0.000 A 
BRANCH  13  20
ATOM     19  C   UNL     1       7.314   4.676  17.736  0.00  0.00    +0.000 C 
ATOM     20  O   UNL     1       6.415   4.322  18.785  0.00  0.00    +0.000 OA
ENDBRANCH  13  20
ENDBRANCH  11  17
ENDBRANCH   1  12
BRANCH  10  21
ATOM     21  O   UNL     1       1.739   8.045  21.661  0.00  0.00    +0.000 OA
ATOM     22  H   UNL     1       2.263   7.391  21.165  0.00  0.00    +0.000 HD
ENDBRANCH  10  21
TORSDOF 4
ENDMDL
MODEL 4
REMARK VINA RESULT:      -7.2      4.050      5.472
REMARK  Name = 
REMARK  5 active torsions:
REMARK  status: ('A' for Active; 'I' for Inactive)
REMARK    1  A    between atoms: C_1  and  O_2
REMARK    2  A    between atoms: O_2  and  C_3
REMARK    3  A    between atoms: C_7  and  N_8
REMARK    4  A    between atoms: N_9  and  C_10
REMARK    5  A    between atoms: C_19  and  O_20
REMARK                            x       y       z     vdW  Elec       q    Type
REMARK                         _______ _______ _______ _____ _____    ______ ____
ROOT
ATOM      1  C   UNL     1       3.908   4.887  17.237  0.00  0.00    +0.000 A 
ATOM      2  C   UNL     1       3.462   6.058  17.871  0.00  0.00    +0.000 A 
ATOM      3  C   UNL     1       2.915   6.018  19.151  0.00  0.00    +0.000 A 
ATOM      4  C   UNL     1       2.829   4.813  19.858  0.00  0.00    +0.000 A 
ATOM      5  C   UNL     1       2.227   4.785  21.125  0.00  0.00    +0.000 A 
ATOM      6  C   UNL     1       2.162   3.605  21.860  0.00  0.00    +0.000 A 
ATOM      7  C   UNL     1       2.743   2.447  21.359  0.00  0.00    +0.000 A 
ATOM      8  C   UNL     1       3.337   2.457  20.093  0.00  0.00    +0.000 A 
ATOM      9  C   UNL     1       3.350   3.625  19.294  0.00  0.00    +0.000 A 
ATOM     10  C   UNL     1       3.856   3.684  17.968  0.00  0.00    +0.000 A 
ENDROOT
BRANCH   1  12
ATOM     11  N   UNL     1       5.653   4.579  15.894  0.00  0.00    +0.000 NA
ATOM     12  N   UNL     1       4.443   4.900  15.928  0.00  0.00    +0.000 NA
BRANCH  11  17
ATOM     13  C   UNL     1       6.128   3.356  12.385  0.00  0.00    +0.000 A 
ATOM     14  C   UNL     1       7.235   4.121  12.014  0.00  0.00    +0.000 A 
ATOM     15  C   UNL     1       7.805   5.021  12.912  0.00  0.00    +0.000 A 
ATOM     16  C   UNL     1       7.261   5.166  14.190  0.00  0.00    +0.000 A 
ATOM     17  C   UNL     1       6.139   4.425  14.578  0.00  0.00    +0.000 A 
ATOM     18  C   UNL     1       5.593   3.508  13.665  0.00  0.00    +0.000 A 
BRANCH  13  20
ATOM     19  C   UNL     1       6.475   1.350  11.168  0.00  0.00    +0.000 C 
ATOM     20  O   UNL     1       5.665   2.492  11.430  0.00  0.00    +0.000 OA
ENDBRANCH  13  20
ENDBRANCH  11  17
ENDBRANCH   1  12
BRANCH  10  21
ATOM     21  O   UNL     1       4.289   2.537  17.339  0.00  0.00    +0.000 OA
ATOM     22  H   UNL     1       4.960   2.797  16.683  0.00  0.00    +0.000 HD
ENDBRANCH  10  21
TORSDOF 4
ENDMDL
MODEL 5
REMARK VINA RESULT:      -7.2      0.914      1.051
REMARK  Name = 
REMARK  5 active torsions:
REMARK  status: ('A' for Active; 'I' for Inactive)
REMARK    1  A    between atoms: C_1  and  O_2
REMARK    2  A    between atoms: O_2  and  C_3
REMARK    3  A    between atoms: C_7  and  N_8
REMARK    4  A    between atoms: N_9  and  C_10
REMARK    5  A    between atoms: C_19  and  O_20
REMARK                            x       y       z     vdW  Elec       q    Type
REMARK                         _______ _______ _______ _____ _____    ______ ____
ROOT
ATOM      1  C   UNL     1       1.672   8.775  19.224  0.00  0.00    +0.000 A 
ATOM      2  C   UNL     1       1.130   9.824  18.464  0.00  0.00    +0.000 A 
ATOM      3  C   UNL     1       0.215  10.715  19.019  0.00  0.00    +0.000 A 
ATOM      4  C   UNL     1      -0.162  10.613  20.363  0.00  0.00    +0.000 A 
ATOM      5  C   UNL     1      -1.124  11.489  20.889  0.00  0.00    +0.000 A 
ATOM      6  C   UNL     1      -1.489  11.428  22.231  0.00  0.00    +0.000 A 
ATOM      7  C   UNL     1      -0.859  10.524  23.076  0.00  0.00    +0.000 A 
ATOM      8  C   UNL     1       0.094   9.638  22.564  0.00  0.00    +0.000 A 
ATOM      9  C   UNL     1       0.427   9.629  21.188  0.00  0.00    +0.000 A 
ATOM     10  C   UNL     1       1.319   8.701  20.586  0.00  0.00    +0.000 A 
ENDROOT
BRANCH   1  12
ATOM     11  N   UNL     1       2.154   6.666  18.711  0.00  0.00    +0.000 NA
ATOM     12  N   UNL     1       2.582   7.842  18.674  0.00  0.00    +0.000 NA
BRANCH  11  17
ATOM     13  C   UNL     1       4.954   5.235  16.676  0.00  0.00    +0.000 A 
ATOM     14  C   UNL     1       4.511   3.916  16.556  0.00  0.00    +0.000 A 
ATOM     15  C   UNL     1       3.310   3.518  17.140  0.00  0.00    +0.000 A 
ATOM     16  C   UNL     1       2.548   4.441  17.858  0.00  0.00    +0.000 A 
ATOM     17  C   UNL     1       2.981   5.763  18.010  0.00  0.00    +0.000 A 
ATOM     18  C   UNL     1       4.183   6.149  17.395  0.00  0.00    +0.000 A 
BRANCH  13  20
ATOM     19  C   UNL     1       6.456   4.707  14.917  0.00  0.00    +0.000 C 
ATOM     20  O   UNL     1       6.135   5.517  16.045  0.00  0.00    +0.000 OA
ENDBRANCH  13  20
ENDBRANCH  11  17
ENDBRANCH   1  12
BRANCH  10  21
ATOM     21  O   UNL     1       1.848   7.666  21.326  0.00  0.00    +0.000 OA
ATOM     22  H   UNL     1       1.156   6.988  21.419  0.00  0.00    +0.000 HD
ENDBRANCH  10  21
TORSDOF 4
ENDMDL
MODEL 6
REMARK VINA RESULT:      -7.1      1.198      1.976
REMARK  Name = 
REMARK  5 active torsions:
REMARK  status: ('A' for Active; 'I' for Inactive)
REMARK    1  A    between atoms: C_1  and  O_2
REMARK    2  A    between atoms: O_2  and  C_3
REMARK    3  A    between atoms: C_7  and  N_8
REMARK    4  A    between atoms: N_9  and  C_10
REMARK    5  A    between atoms: C_19  and  O_20
REMARK                            x       y       z     vdW  Elec       q    Type
REMARK                         _______ _______ _______ _____ _____    ______ ____
ROOT
ATOM      1  C   UNL     1       1.611   8.718  18.796  0.00  0.00    +0.000 A 
ATOM      2  C   UNL     1       1.266  10.005  18.353  0.00  0.00    +0.000 A 
ATOM      3  C   UNL     1       0.607  10.902  19.191  0.00  0.00    +0.000 A 
ATOM      4  C   UNL     1       0.303  10.558  20.513  0.00  0.00    +0.000 A 
ATOM      5  C   UNL     1      -0.407  11.455  21.325  0.00  0.00    +0.000 A 
ATOM      6  C   UNL     1      -0.689  11.148  22.653  0.00  0.00    +0.000 A 
ATOM      7  C   UNL     1      -0.221   9.961  23.201  0.00  0.00    +0.000 A 
ATOM      8  C   UNL     1       0.478   9.052  22.401  0.00  0.00    +0.000 A 
ATOM      9  C   UNL     1       0.713   9.307  21.028  0.00  0.00    +0.000 A 
ATOM     10  C   UNL     1       1.338   8.392  20.139  0.00  0.00    +0.000 A 
ENDROOT
BRANCH   1  12
ATOM     11  N   UNL     1       3.385   7.446  18.378  0.00  0.00    +0.000 NA
ATOM     12  N   UNL     1       2.256   7.783  17.954  0.00  0.00    +0.000 NA
BRANCH  11  17
ATOM     13  C   UNL     1       4.300   4.019  17.173  0.00  0.00    +0.000 A 
ATOM     14  C   UNL     1       5.204   4.355  16.164  0.00  0.00    +0.000 A 
ATOM     15  C   UNL     1       5.498   5.690  15.894  0.00  0.00    +0.000 A 
ATOM     16  C   UNL     1       4.878   6.701  16.633  0.00  0.00    +0.000 A 
ATOM     17  C   UNL     1       3.953   6.389  17.635  0.00  0.00    +0.000 A 
ATOM     18  C   UNL     1       3.687   5.037  17.905  0.00  0.00    +0.000 A 
BRANCH  13  20
ATOM     19  C   UNL     1       2.810   2.289  17.818  0.00  0.00    +0.000 C 
ATOM     20  O   UNL     1       4.103   2.678  17.362  0.00  0.00    +0.000 OA
ENDBRANCH  13  20
ENDBRANCH  11  17
ENDBRANCH   1  12
BRANCH  10  21
ATOM     21  O   UNL     1       1.672   7.125  20.567  0.00  0.00    +0.000 OA
ATOM     22  H   UNL     1       2.564   6.927  20.230  0.00  0.00    +0.000 HD
ENDBRANCH  10  21
TORSDOF 4
ENDMDL
MODEL 7
REMARK VINA RESULT:      -7.0      1.217      2.024
REMARK  Name = 
REMARK  5 active torsions:
REMARK  status: ('A' for Active; 'I' for Inactive)
REMARK    1  A    between atoms: C_1  and  O_2
REMARK    2  A    between atoms: O_2  and  C_3
REMARK    3  A    between atoms: C_7  and  N_8
REMARK    4  A    between atoms: N_9  and  C_10
REMARK    5  A    between atoms: C_19  and  O_20
REMARK                            x       y       z     vdW  Elec       q    Type
REMARK                         _______ _______ _______ _____ _____    ______ ____
ROOT
ATOM      1  C   UNL     1       1.862   8.404  19.201  0.00  0.00    +0.000 A 
ATOM      2  C   UNL     1       1.575   7.962  20.503  0.00  0.00    +0.000 A 
ATOM      3  C   UNL     1       0.768   8.711  21.355  0.00  0.00    +0.000 A 
ATOM      4  C   UNL     1       0.186   9.909  20.925  0.00  0.00    +0.000 A 
ATOM      5  C   UNL     1      -0.582  10.675  21.815  0.00  0.00    +0.000 A 
ATOM      6  C   UNL     1      -1.198  11.852  21.399  0.00  0.00    +0.000 A 
ATOM      7  C   UNL     1      -1.095  12.252  20.073  0.00  0.00    +0.000 A 
ATOM      8  C   UNL     1      -0.324  11.505  19.177  0.00  0.00    +0.000 A 
ATOM      9  C   UNL     1       0.374  10.346  19.593  0.00  0.00    +0.000 A 
ATOM     10  C   UNL     1       1.242   9.590  18.761  0.00  0.00    +0.000 A 
ENDROOT
BRANCH   1  12
ATOM     11  N   UNL     1       3.094   6.593  18.825  0.00  0.00    +0.000 NA
ATOM     12  N   UNL     1       2.700   7.674  18.329  0.00  0.00    +0.000 NA
BRANCH  11  17
ATOM     13  C   UNL     1       5.422   5.466  16.115  0.00  0.00    +0.000 A 
ATOM     14  C   UNL     1       5.038   4.128  16.013  0.00  0.00    +0.000 A 
ATOM     15  C   UNL     1       4.030   3.618  16.828  0.00  0.00    +0.000 A 
ATOM     16  C   UNL     1       3.404   4.448  17.761  0.00  0.00    +0.000 A 
ATOM     17  C   UNL     1       3.786   5.787  17.896  0.00  0.00    +0.000 A 
ATOM     18  C   UNL     1       4.789   6.287  17.049  0.00  0.00    +0.000 A 
BRANCH  13  20
ATOM     19  C   UNL     1       6.904   4.864  14.363  0.00  0.00    +0.000 C 
ATOM     20  O   UNL     1       6.407   5.862  15.251  0.00  0.00    +0.000 OA
ENDBRANCH  13  20
ENDBRANCH  11  17
ENDBRANCH   1  12
BRANCH  10  21
ATOM     21  O   UNL     1       1.532  10.024  17.485  0.00  0.00    +0.000 OA
ATOM     22  H   UNL     1       0.985  10.810  17.311  0.00  0.00    +0.000 HD
ENDBRANCH  10  21
TORSDOF 4
ENDMDL
MODEL 8
REMARK VINA RESULT:      -7.0      2.039      2.823
REMARK  Name = 
REMARK  5 active torsions:
REMARK  status: ('A' for Active; 'I' for Inactive)
REMARK    1  A    between atoms: C_1  and  O_2
REMARK    2  A    between atoms: O_2  and  C_3
REMARK    3  A    between atoms: C_7  and  N_8
REMARK    4  A    between atoms: N_9  and  C_10
REMARK    5  A    between atoms: C_19  and  O_20
REMARK                            x       y       z     vdW  Elec       q    Type
REMARK                         _______ _______ _______ _____ _____    ______ ____
ROOT
ATOM      1  C   UNL     1       1.542   8.632  19.628  0.00  0.00    +0.000 A 
ATOM      2  C   UNL     1       1.076   8.544  20.950  0.00  0.00    +0.000 A 
ATOM      3  C   UNL     1       0.212   9.503  21.473  0.00  0.00    +0.000 A 
ATOM      4  C   UNL     1      -0.247  10.563  20.682  0.00  0.00    +0.000 A 
ATOM      5  C   UNL     1      -1.074  11.548  21.242  0.00  0.00    +0.000 A 
ATOM      6  C   UNL     1      -1.570  12.592  20.466  0.00  0.00    +0.000 A 
ATOM      7  C   UNL     1      -1.285  12.636  19.107  0.00  0.00    +0.000 A 
ATOM      8  C   UNL     1      -0.452  11.668  18.537  0.00  0.00    +0.000 A 
ATOM      9  C   UNL     1       0.125  10.640  19.320  0.00  0.00    +0.000 A 
ATOM     10  C   UNL     1       1.046   9.678  18.826  0.00  0.00    +0.000 A 
ENDROOT
BRANCH   1  12
ATOM     11  N   UNL     1       2.315   6.547  19.598  0.00  0.00    +0.000 NA
ATOM     12  N   UNL     1       2.440   7.683  19.086  0.00  0.00    +0.000 NA
BRANCH  11  17
ATOM     13  C   UNL     1       5.200   4.448  18.457  0.00  0.00    +0.000 A 
ATOM     14  C   UNL     1       4.554   3.647  17.513  0.00  0.00    +0.000 A 
ATOM     15  C   UNL     1       3.191   3.806  17.267  0.00  0.00    +0.000 A 
ATOM     16  C   UNL     1       2.465   4.766  17.974  0.00  0.00    +0.000 A 
ATOM     17  C   UNL     1       3.086   5.565  18.940  0.00  0.00    +0.000 A 
ATOM     18  C   UNL     1       4.464   5.405  19.158  0.00  0.00    +0.000 A 
BRANCH  13  20
ATOM     19  C   UNL     1       7.392   4.823  17.631  0.00  0.00    +0.000 C 
ATOM     20  O   UNL     1       6.541   4.218  18.602  0.00  0.00    +0.000 OA
ENDBRANCH  13  20
ENDBRANCH  11  17
ENDBRANCH   1  12
BRANCH  10  21
ATOM     21  O   UNL     1       1.512   9.763  17.531  0.00  0.00    +0.000 OA
ATOM     22  H   UNL     1       1.455  10.696  17.260  0.00  0.00    +0.000 HD
ENDBRANCH  10  21
TORSDOF 4
ENDMDL
MODEL 9
REMARK VINA RESULT:      -7.0      1.608      2.346
REMARK  Name = 
REMARK  5 active torsions:
REMARK  status: ('A' for Active; 'I' for Inactive)
REMARK    1  A    between atoms: C_1  and  O_2
REMARK    2  A    between atoms: O_2  and  C_3
REMARK    3  A    between atoms: C_7  and  N_8
REMARK    4  A    between atoms: N_9  and  C_10
REMARK    5  A    between atoms: C_19  and  O_20
REMARK                            x       y       z     vdW  Elec       q    Type
REMARK                         _______ _______ _______ _____ _____    ______ ____
ROOT
ATOM      1  C   UNL     1       1.546   8.578  19.372  0.00  0.00    +0.000 A 
ATOM      2  C   UNL     1       1.135   9.490  18.387  0.00  0.00    +0.000 A 
ATOM      3  C   UNL     1       0.285  10.549  18.698  0.00  0.00    +0.000 A 
ATOM      4  C   UNL     1      -0.152  10.758  20.011  0.00  0.00    +0.000 A 
ATOM      5  C   UNL     1      -1.048  11.799  20.294  0.00  0.00    +0.000 A 
ATOM      6  C   UNL     1      -1.469  12.047  21.598  0.00  0.00    +0.000 A 
ATOM      7  C   UNL     1      -0.959  11.286  22.643  0.00  0.00    +0.000 A 
ATOM      8  C   UNL     1      -0.074  10.238  22.374  0.00  0.00    +0.000 A 
ATOM      9  C   UNL     1       0.311   9.918  21.050  0.00  0.00    +0.000 A 
ATOM     10  C   UNL     1       1.136   8.816  20.699  0.00  0.00    +0.000 A 
ENDROOT
BRANCH   1  12
ATOM     11  N   UNL     1       2.980   7.607  17.979  0.00  0.00    +0.000 NA
ATOM     12  N   UNL     1       2.386   7.481  19.074  0.00  0.00    +0.000 NA
BRANCH  11  17
ATOM     13  C   UNL     1       5.178   4.610  18.449  0.00  0.00    +0.000 A 
ATOM     14  C   UNL     1       5.951   4.697  17.290  0.00  0.00    +0.000 A 
ATOM     15  C   UNL     1       5.743   5.730  16.378  0.00  0.00    +0.000 A 
ATOM     16  C   UNL     1       4.747   6.679  16.619  0.00  0.00    +0.000 A 
ATOM     17  C   UNL     1       3.945   6.600  17.763  0.00  0.00    +0.000 A 
ATOM     18  C   UNL     1       4.186   5.565  18.680  0.00  0.00    +0.000 A 
BRANCH  13  20
ATOM     19  C   UNL     1       4.398   2.727  19.664  0.00  0.00    +0.000 C 
ATOM     20  O   UNL     1       5.484   3.568  19.282  0.00  0.00    +0.000 OA
ENDBRANCH  13  20
ENDBRANCH  11  17
ENDBRANCH   1  12
BRANCH  10  21
ATOM     21  O   UNL     1       1.537   7.914  21.661  0.00  0.00    +0.000 OA
ATOM     22  H   UNL     1       1.323   8.298  22.530  0.00  0.00    +0.000 HD
ENDBRANCH  10  21
TORSDOF 4
ENDMDL
