MODEL 1
REMARK VINA RESULT:      -9.3      0.000      0.000
REMARK  Name = 
REMARK  8 active torsions:
REMARK  status: ('A' for Active; 'I' for Inactive)
REMARK    1  A    between atoms: C_1  and  C_2
REMARK    2  A    between atoms: C_2  and  C_3
REMARK    3  A    between atoms: C_2  and  N_17
REMARK    4  A    between atoms: C_6  and  C_7
REMARK    5  A    between atoms: C_12  and  C_13
REMARK    6  A    between atoms: C_19  and  N_20
REMARK    7  A    between atoms: C_21  and  C_23
REMARK    8  A    between atoms: C_25  and  C_26
REMARK                            x       y       z     vdW  Elec       q    Type
REMARK                         _______ _______ _______ _____ _____    ______ ____
ROOT
ATOM      1  N   UNL     1       6.621   5.658  17.457  0.00  0.00    +0.000 N 
ATOM      2  C   UNL     1       7.054   6.955  17.424  0.00  0.00    +0.000 A 
ATOM      3  C   UNL     1       7.997   7.092  18.411  0.00  0.00    +0.000 A 
ATOM      4  C   UNL     1       8.091   5.796  18.970  0.00  0.00    +0.000 A 
ATOM      5  N   UNL     1       7.279   4.915  18.376  0.00  0.00    +0.000 NA
ENDROOT
BRANCH   3   6
ATOM      6  N   UNL     1       8.686   8.237  18.776  0.00  0.00    +0.000 N 
ATOM      7  C   UNL     1       8.430   9.508  18.275  0.00  0.00    +0.000 C 
ATOM      8  O   UNL     1       7.591   9.764  17.415  0.00  0.00    +0.000 OA
ATOM      9  H   UNL     1       9.421   8.136  19.468  0.00  0.00    +0.000 HD
BRANCH   7  10
ATOM     10  C   UNL     1       9.243  10.551  18.856  0.00  0.00    +0.000 A 
ATOM     11  C   UNL     1       9.557  11.811  18.408  0.00  0.00    +0.000 A 
ATOM     12  C   UNL     1      10.339  12.391  19.442  0.00  0.00    +0.000 A 
ATOM     13  N   UNL     1      10.520  11.500  20.434  0.00  0.00    +0.000 NA
ATOM     14  O   UNL     1       9.833  10.360  20.067  0.00  0.00    +0.000 OA
BRANCH  12  15
ATOM     15  C   UNL     1      10.868  13.756  19.495  0.00  0.00    +0.000 A 
ATOM     16  C   UNL     1      10.340  14.701  20.373  0.00  0.00    +0.000 A 
ATOM     17  C   UNL     1      10.838  16.001  20.341  0.00  0.00    +0.000 A 
ATOM     18  C   UNL     1      11.849  16.321  19.443  0.00  0.00    +0.000 A 
ATOM     19  C   UNL     1      12.328  15.321  18.614  0.00  0.00    +0.000 A 
ATOM     20  N   UNL     1      11.865  14.050  18.619  0.00  0.00    +0.000 NA
ENDBRANCH  12  15
ENDBRANCH   7  10
ENDBRANCH   3   6
BRANCH   1  22
ATOM     21  C   UNL     1       6.243   4.110  15.566  0.00  0.00    +0.000 C 
ATOM     22  C   UNL     1       5.604   5.088  16.563  0.00  0.00    +0.000 C 
BRANCH  22  23
ATOM     23  C   UNL     1       4.390   4.542  17.323  0.00  0.00    +0.000 A 
ATOM     24  C   UNL     1       4.293   3.150  17.546  0.00  0.00    +0.000 A 
ATOM     25  C   UNL     1       3.188   2.573  18.174  0.00  0.00    +0.000 A 
ATOM     26  C   UNL     1       2.143   3.371  18.638  0.00  0.00    +0.000 A 
ATOM     27  C   UNL     1       2.242   4.760  18.467  0.00  0.00    +0.000 A 
ATOM     28  C   UNL     1       3.345   5.367  17.817  0.00  0.00    +0.000 A 
BRANCH  26  29
ATOM     29  C   UNL     1       0.937   2.763  19.310  0.00  0.00    +0.000 C 
ATOM     30  F   UNL     1       1.249   1.803  20.226  0.00  0.00    +0.000 F 
ATOM     31  F   UNL     1       0.188   3.685  19.974  0.00  0.00    +0.000 F 
ATOM     32  F   UNL     1       0.095   2.167  18.420  0.00  0.00    +0.000 F 
ENDBRANCH  26  29
BRANCH  28  33
ATOM     33  C   UNL     1       3.280   6.881  17.694  0.00  0.00    +0.000 C 
ATOM     34  F   UNL     1       2.041   7.428  17.783  0.00  0.00    +0.000 F 
ATOM     35  F   UNL     1       4.016   7.491  18.667  0.00  0.00    +0.000 F 
ATOM     36  F   UNL     1       3.794   7.325  16.513  0.00  0.00    +0.000 F 
ENDBRANCH  28  33
ENDBRANCH  22  23
ENDBRANCH   1  22
TORSDOF 7
ENDMDL
MODEL 2
REMARK VINA RESULT:      -8.9      1.672      2.133
REMARK  Name = 
REMARK  8 active torsions:
REMARK  status: ('A' for Active; 'I' for Inactive)
REMARK    1  A    between atoms: C_1  and  C_2
REMARK    2  A    between atoms: C_2  and  C_3
REMARK    3  A    between atoms: C_2  and  N_17
REMARK    4  A    between atoms: C_6  and  C_7
REMARK    5  A    between atoms: C_12  and  C_13
REMARK    6  A    between atoms: C_19  and  N_20
REMARK    7  A    between atoms: C_21  and  C_23
REMARK    8  A    between atoms: C_25  and  C_26
REMARK                            x       y       z     vdW  Elec       q    Type
REMARK                         _______ _______ _______ _____ _____    ______ ____
ROOT
ATOM      1  N   UNL     1       6.702   6.382  17.476  0.00  0.00    +0.000 N 
ATOM      2  C   UNL     1       6.885   7.638  16.964  0.00  0.00    +0.000 A 
ATOM      3  C   UNL     1       7.856   8.245  17.719  0.00  0.00    +0.000 A 
ATOM      4  C   UNL     1       8.228   7.250  18.654  0.00  0.00    +0.000 A 
ATOM      5  N   UNL     1       7.551   6.108  18.493  0.00  0.00    +0.000 NA
ENDROOT
BRANCH   3   6
ATOM      6  N   UNL     1       8.348   9.534  17.596  0.00  0.00    +0.000 N 
ATOM      7  C   UNL     1       9.017  10.224  18.600  0.00  0.00    +0.000 C 
ATOM      8  O   UNL     1       9.217   9.792  19.732  0.00  0.00    +0.000 OA
ATOM      9  H   UNL     1       8.216   9.998  16.704  0.00  0.00    +0.000 HD
BRANCH   7  10
ATOM     10  C   UNL     1       9.487  11.534  18.210  0.00  0.00    +0.000 A 
ATOM     11  C   UNL     1       8.952  12.784  18.406  0.00  0.00    +0.000 A 
ATOM     12  C   UNL     1       9.899  13.686  17.854  0.00  0.00    +0.000 A 
ATOM     13  N   UNL     1      10.923  13.000  17.313  0.00  0.00    +0.000 NA
ATOM     14  O   UNL     1      10.664  11.664  17.541  0.00  0.00    +0.000 OA
BRANCH  12  15
ATOM     15  C   UNL     1       9.845  15.150  17.869  0.00  0.00    +0.000 A 
ATOM     16  C   UNL     1      10.727  15.914  17.107  0.00  0.00    +0.000 A 
ATOM     17  C   UNL     1      10.672  17.302  17.205  0.00  0.00    +0.000 A 
ATOM     18  C   UNL     1       9.740  17.889  18.051  0.00  0.00    +0.000 A 
ATOM     19  C   UNL     1       8.890  17.059  18.764  0.00  0.00    +0.000 A 
ATOM     20  N   UNL     1       8.918  15.709  18.693  0.00  0.00    +0.000 NA
ENDBRANCH  12  15
ENDBRANCH   7  10
ENDBRANCH   3   6
BRANCH   1  22
ATOM     21  C   UNL     1       6.477   4.245  16.253  0.00  0.00    +0.000 C 
ATOM     22  C   UNL     1       5.745   5.396  16.960  0.00  0.00    +0.000 C 
BRANCH  22  23
ATOM     23  C   UNL     1       4.717   4.964  18.012  0.00  0.00    +0.000 A 
ATOM     24  C   UNL     1       4.916   3.747  18.703  0.00  0.00    +0.000 A 
ATOM     25  C   UNL     1       3.993   3.258  19.628  0.00  0.00    +0.000 A 
ATOM     26  C   UNL     1       2.841   3.984  19.928  0.00  0.00    +0.000 A 
ATOM     27  C   UNL     1       2.647   5.216  19.286  0.00  0.00    +0.000 A 
ATOM     28  C   UNL     1       3.562   5.725  18.331  0.00  0.00    +0.000 A 
BRANCH  26  29
ATOM     29  C   UNL     1       1.828   3.465  20.919  0.00  0.00    +0.000 C 
ATOM     30  F   UNL     1       0.588   4.008  20.765  0.00  0.00    +0.000 F 
ATOM     31  F   UNL     1       1.661   2.117  20.836  0.00  0.00    +0.000 F 
ATOM     32  F   UNL     1       2.188   3.721  22.207  0.00  0.00    +0.000 F 
ENDBRANCH  26  29
BRANCH  28  33
ATOM     33  C   UNL     1       3.186   7.062  17.712  0.00  0.00    +0.000 C 
ATOM     34  F   UNL     1       1.855   7.298  17.578  0.00  0.00    +0.000 F 
ATOM     35  F   UNL     1       3.665   8.104  18.451  0.00  0.00    +0.000 F 
ATOM     36  F   UNL     1       3.714   7.222  16.467  0.00  0.00    +0.000 F 
ENDBRANCH  28  33
ENDBRANCH  22  23
ENDBRANCH   1  22
TORSDOF 7
ENDMDL
MODEL 3
REMARK VINA RESULT:      -8.7      5.869      7.308
REMARK  Name = 
REMARK  8 active torsions:
REMARK  status: ('A' for Active; 'I' for Inactive)
REMARK    1  A    between atoms: C_1  and  C_2
REMARK    2  A    between atoms: C_2  and  C_3
REMARK    3  A    between atoms: C_2  and  N_17
REMARK    4  A    between atoms: C_6  and  C_7
REMARK    5  A    between atoms: C_12  and  C_13
REMARK    6  A    between atoms: C_19  and  N_20
REMARK    7  A    between atoms: C_21  and  C_23
REMARK    8  A    between atoms: C_25  and  C_26
REMARK                            x       y       z     vdW  Elec       q    Type
REMARK                         _______ _______ _______ _____ _____    ______ ____
ROOT
ATOM      1  N   UNL     1       3.555   4.999  19.659  0.00  0.00    +0.000 N 
ATOM      2  C   UNL     1       3.538   6.327  19.333  0.00  0.00    +0.000 A 
ATOM      3  C   UNL     1       2.354   6.843  19.794  0.00  0.00    +0.000 A 
ATOM      4  C   UNL     1       1.729   5.741  20.425  0.00  0.00    +0.000 A 
ATOM      5  N   UNL     1       2.467   4.626  20.371  0.00  0.00    +0.000 NA
ENDROOT
BRANCH   3   6
ATOM      6  N   UNL     1       1.881   8.138  19.662  0.00  0.00    +0.000 N 
ATOM      7  C   UNL     1       1.864   8.856  18.473  0.00  0.00    +0.000 C 
ATOM      8  O   UNL     1       2.307   8.447  17.403  0.00  0.00    +0.000 OA
ATOM      9  H   UNL     1       1.511   8.584  20.494  0.00  0.00    +0.000 HD
BRANCH   7  10
ATOM     10  C   UNL     1       1.265  10.167  18.578  0.00  0.00    +0.000 A 
ATOM     11  C   UNL     1       1.828  11.415  18.682  0.00  0.00    +0.000 A 
ATOM     12  C   UNL     1       0.734  12.320  18.686  0.00  0.00    +0.000 A 
ATOM     13  N   UNL     1      -0.425  11.637  18.635  0.00  0.00    +0.000 NA
ATOM     14  O   UNL     1      -0.089  10.300  18.563  0.00  0.00    +0.000 OA
BRANCH  12  15
ATOM     15  C   UNL     1       0.792  13.783  18.705  0.00  0.00    +0.000 A 
ATOM     16  C   UNL     1      -0.367  14.551  18.804  0.00  0.00    +0.000 A 
ATOM     17  C   UNL     1      -0.261  15.938  18.757  0.00  0.00    +0.000 A 
ATOM     18  C   UNL     1       0.992  16.521  18.619  0.00  0.00    +0.000 A 
ATOM     19  C   UNL     1       2.096  15.689  18.540  0.00  0.00    +0.000 A 
ATOM     20  N   UNL     1       2.027  14.338  18.581  0.00  0.00    +0.000 NA
ENDBRANCH  12  15
ENDBRANCH   7  10
ENDBRANCH   3   6
BRANCH   1  22
ATOM     21  C   UNL     1       4.324   2.657  19.853  0.00  0.00    +0.000 C 
ATOM     22  C   UNL     1       4.648   4.069  19.345  0.00  0.00    +0.000 C 
BRANCH  22  23
ATOM     23  C   UNL     1       5.086   4.149  17.877  0.00  0.00    +0.000 A 
ATOM     24  C   UNL     1       4.215   3.662  16.877  0.00  0.00    +0.000 A 
ATOM     25  C   UNL     1       4.569   3.643  15.528  0.00  0.00    +0.000 A 
ATOM     26  C   UNL     1       5.803   4.143  15.115  0.00  0.00    +0.000 A 
ATOM     27  C   UNL     1       6.664   4.673  16.087  0.00  0.00    +0.000 A 
ATOM     28  C   UNL     1       6.333   4.688  17.465  0.00  0.00    +0.000 A 
BRANCH  26  29
ATOM     29  C   UNL     1       6.206   4.121  13.661  0.00  0.00    +0.000 C 
ATOM     30  F   UNL     1       6.723   2.927  13.256  0.00  0.00    +0.000 F 
ATOM     31  F   UNL     1       5.164   4.380  12.826  0.00  0.00    +0.000 F 
ATOM     32  F   UNL     1       7.157   5.054  13.375  0.00  0.00    +0.000 F 
ENDBRANCH  26  29
BRANCH  28  33
ATOM     33  C   UNL     1       7.391   5.275  18.386  0.00  0.00    +0.000 C 
ATOM     34  F   UNL     1       7.004   5.491  19.669  0.00  0.00    +0.000 F 
ATOM     35  F   UNL     1       8.483   4.461  18.470  0.00  0.00    +0.000 F 
ATOM     36  F   UNL     1       7.860   6.472  17.937  0.00  0.00    +0.000 F 
ENDBRANCH  28  33
ENDBRANCH  22  23
ENDBRANCH   1  22
TORSDOF 7
ENDMDL
MODEL 4
REMARK VINA RESULT:      -8.6      1.299      1.785
REMARK  Name = 
REMARK  8 active torsions:
REMARK  status: ('A' for Active; 'I' for Inactive)
REMARK    1  A    between atoms: C_1  and  C_2
REMARK    2  A    between atoms: C_2  and  C_3
REMARK    3  A    between atoms: C_2  and  N_17
REMARK    4  A    between atoms: C_6  and  C_7
REMARK    5  A    between atoms: C_12  and  C_13
REMARK    6  A    between atoms: C_19  and  N_20
REMARK    7  A    between atoms: C_21  and  C_23
REMARK    8  A    between atoms: C_25  and  C_26
REMARK                            x       y       z     vdW  Elec       q    Type
REMARK                         _______ _______ _______ _____ _____    ______ ____
ROOT
ATOM      1  N   UNL     1       6.280   6.207  16.897  0.00  0.00    +0.000 N 
ATOM      2  C   UNL     1       6.618   7.504  16.621  0.00  0.00    +0.000 A 
ATOM      3  C   UNL     1       7.582   7.873  17.523  0.00  0.00    +0.000 A 
ATOM      4  C   UNL     1       7.789   6.703  18.292  0.00  0.00    +0.000 A 
ATOM      5  N   UNL     1       7.022   5.680  17.898  0.00  0.00    +0.000 NA
ENDROOT
BRANCH   3   6
ATOM      6  N   UNL     1       8.199   9.106  17.653  0.00  0.00    +0.000 N 
ATOM      7  C   UNL     1       8.901   9.524  18.777  0.00  0.00    +0.000 C 
ATOM      8  O   UNL     1       9.023   8.869  19.809  0.00  0.00    +0.000 OA
ATOM      9  H   UNL     1       8.141   9.740  16.864  0.00  0.00    +0.000 HD
BRANCH   7  10
ATOM     10  C   UNL     1       9.507  10.830  18.649  0.00  0.00    +0.000 A 
ATOM     11  C   UNL     1       9.096  11.958  17.982  0.00  0.00    +0.000 A 
ATOM     12  C   UNL     1      10.075  12.944  18.276  0.00  0.00    +0.000 A 
ATOM     13  N   UNL     1      11.045  12.411  19.042  0.00  0.00    +0.000 NA
ATOM     14  O   UNL     1      10.684  11.099  19.274  0.00  0.00    +0.000 OA
BRANCH  12  15
ATOM     15  C   UNL     1      10.069  14.351  17.868  0.00  0.00    +0.000 A 
ATOM     16  C   UNL     1      11.093  14.880  17.087  0.00  0.00    +0.000 A 
ATOM     17  C   UNL     1      11.071  16.237  16.777  0.00  0.00    +0.000 A 
ATOM     18  C   UNL     1      10.029  17.026  17.249  0.00  0.00    +0.000 A 
ATOM     19  C   UNL     1       9.042  16.420  18.009  0.00  0.00    +0.000 A 
ATOM     20  N   UNL     1       9.036  15.106  18.328  0.00  0.00    +0.000 NA
ENDBRANCH  12  15
ENDBRANCH   7  10
ENDBRANCH   3   6
BRANCH   1  22
ATOM     21  C   UNL     1       5.953   4.416  15.224  0.00  0.00    +0.000 C 
ATOM     22  C   UNL     1       5.276   5.425  16.163  0.00  0.00    +0.000 C 
BRANCH  22  23
ATOM     23  C   UNL     1       4.199   4.837  17.083  0.00  0.00    +0.000 A 
ATOM     24  C   UNL     1       4.180   3.442  17.308  0.00  0.00    +0.000 A 
ATOM     25  C   UNL     1       3.194   2.828  18.081  0.00  0.00    +0.000 A 
ATOM     26  C   UNL     1       2.199   3.589  18.692  0.00  0.00    +0.000 A 
ATOM     27  C   UNL     1       2.227   4.981  18.518  0.00  0.00    +0.000 A 
ATOM     28  C   UNL     1       3.208   5.626  17.724  0.00  0.00    +0.000 A 
BRANCH  26  29
ATOM     29  C   UNL     1       1.120   2.940  19.523  0.00  0.00    +0.000 C 
ATOM     30  F   UNL     1       0.408   3.822  20.278  0.00  0.00    +0.000 F 
ATOM     31  F   UNL     1       0.208   2.273  18.765  0.00  0.00    +0.000 F 
ATOM     32  F   UNL     1       1.622   2.024  20.397  0.00  0.00    +0.000 F 
ENDBRANCH  26  29
BRANCH  28  33
ATOM     33  C   UNL     1       3.077   7.137  17.621  0.00  0.00    +0.000 C 
ATOM     34  F   UNL     1       3.346   7.672  16.402  0.00  0.00    +0.000 F 
ATOM     35  F   UNL     1       1.812   7.547  17.924  0.00  0.00    +0.000 F 
ATOM     36  F   UNL     1       3.893   7.787  18.496  0.00  0.00    +0.000 F 
ENDBRANCH  28  33
ENDBRANCH  22  23
ENDBRANCH   1  22
TORSDOF 7
ENDMDL
MODEL 5
REMARK VINA RESULT:      -8.5      1.502      1.787
REMARK  Name = 
REMARK  8 active torsions:
REMARK  status: ('A' for Active; 'I' for Inactive)
REMARK    1  A    between atoms: C_1  and  C_2
REMARK    2  A    between atoms: C_2  and  C_3
REMARK    3  A    between atoms: C_2  and  N_17
REMARK    4  A    between atoms: C_6  and  C_7
REMARK    5  A    between atoms: C_12  and  C_13
REMARK    6  A    between atoms: C_19  and  N_20
REMARK    7  A    between atoms: C_21  and  C_23
REMARK    8  A    between atoms: C_25  and  C_26
REMARK                            x       y       z     vdW  Elec       q    Type
REMARK                         _______ _______ _______ _____ _____    ______ ____
ROOT
ATOM      1  N   UNL     1       6.370   6.925  17.449  0.00  0.00    +0.000 N 
ATOM      2  C   UNL     1       6.751   8.210  17.173  0.00  0.00    +0.000 A 
ATOM      3  C   UNL     1       7.909   8.447  17.869  0.00  0.00    +0.000 A 
ATOM      4  C   UNL     1       8.170   7.217  18.517  0.00  0.00    +0.000 A 
ATOM      5  N   UNL     1       7.255   6.281  18.243  0.00  0.00    +0.000 NA
ENDROOT
BRANCH   3   6
ATOM      6  N   UNL     1       8.641   9.621  17.928  0.00  0.00    +0.000 N 
ATOM      7  C   UNL     1       9.128  10.191  19.098  0.00  0.00    +0.000 C 
ATOM      8  O   UNL     1       8.933   9.747  20.226  0.00  0.00    +0.000 OA
ATOM      9  H   UNL     1       8.842  10.088  17.051  0.00  0.00    +0.000 HD
BRANCH   7  10
ATOM     10  C   UNL     1       9.916  11.386  18.894  0.00  0.00    +0.000 A 
ATOM     11  C   UNL     1       9.562  12.643  18.470  0.00  0.00    +0.000 A 
ATOM     12  C   UNL     1      10.757  13.408  18.532  0.00  0.00    +0.000 A 
ATOM     13  N   UNL     1      11.779  12.628  18.929  0.00  0.00    +0.000 NA
ATOM     14  O   UNL     1      11.251  11.374  19.157  0.00  0.00    +0.000 OA
BRANCH  12  15
ATOM     15  C   UNL     1      10.911  14.838  18.254  0.00  0.00    +0.000 A 
ATOM     16  C   UNL     1      10.261  15.798  19.028  0.00  0.00    +0.000 A 
ATOM     17  C   UNL     1      10.393  17.141  18.685  0.00  0.00    +0.000 A 
ATOM     18  C   UNL     1      11.169  17.490  17.587  0.00  0.00    +0.000 A 
ATOM     19  C   UNL     1      11.792  16.476  16.877  0.00  0.00    +0.000 A 
ATOM     20  N   UNL     1      11.683  15.164  17.184  0.00  0.00    +0.000 NA
ENDBRANCH  12  15
ENDBRANCH   7  10
ENDBRANCH   3   6
BRANCH   1  22
ATOM     21  C   UNL     1       5.539   5.380  15.706  0.00  0.00    +0.000 C 
ATOM     22  C   UNL     1       5.174   6.268  16.905  0.00  0.00    +0.000 C 
BRANCH  22  23
ATOM     23  C   UNL     1       4.333   5.584  17.989  0.00  0.00    +0.000 A 
ATOM     24  C   UNL     1       4.693   4.286  18.416  0.00  0.00    +0.000 A 
ATOM     25  C   UNL     1       3.939   3.575  19.352  0.00  0.00    +0.000 A 
ATOM     26  C   UNL     1       2.807   4.148  19.928  0.00  0.00    +0.000 A 
ATOM     27  C   UNL     1       2.458   5.454  19.551  0.00  0.00    +0.000 A 
ATOM     28  C   UNL     1       3.198   6.188  18.590  0.00  0.00    +0.000 A 
BRANCH  26  29
ATOM     29  C   UNL     1       1.976   3.390  20.934  0.00  0.00    +0.000 C 
ATOM     30  F   UNL     1       1.938   2.047  20.708  0.00  0.00    +0.000 F 
ATOM     31  F   UNL     1       2.429   3.544  22.207  0.00  0.00    +0.000 F 
ATOM     32  F   UNL     1       0.677   3.802  20.945  0.00  0.00    +0.000 F 
ENDBRANCH  26  29
BRANCH  28  33
ATOM     33  C   UNL     1       2.667   7.579  18.280  0.00  0.00    +0.000 C 
ATOM     34  F   UNL     1       2.184   8.278  19.339  0.00  0.00    +0.000 F 
ATOM     35  F   UNL     1       3.636   8.370  17.735  0.00  0.00    +0.000 F 
ATOM     36  F   UNL     1       1.657   7.553  17.365  0.00  0.00    +0.000 F 
ENDBRANCH  28  33
ENDBRANCH  22  23
ENDBRANCH   1  22
TORSDOF 7
ENDMDL
MODEL 6
REMARK VINA RESULT:      -8.5      6.306      8.202
REMARK  Name = 
REMARK  8 active torsions:
REMARK  status: ('A' for Active; 'I' for Inactive)
REMARK    1  A    between atoms: C_1  and  C_2
REMARK    2  A    between atoms: C_2  and  C_3
REMARK    3  A    between atoms: C_2  and  N_17
REMARK    4  A    between atoms: C_6  and  C_7
REMARK    5  A    between atoms: C_12  and  C_13
REMARK    6  A    between atoms: C_19  and  N_20
REMARK    7  A    between atoms: C_21  and  C_23
REMARK    8  A    between atoms: C_25  and  C_26
REMARK                            x       y       z     vdW  Elec       q    Type
REMARK                         _______ _______ _______ _____ _____    ______ ____
ROOT
ATOM      1  N   UNL     1       3.600   4.901  19.745  0.00  0.00    +0.000 N 
ATOM      2  C   UNL     1       3.563   6.251  19.524  0.00  0.00    +0.000 A 
ATOM      3  C   UNL     1       2.345   6.700  19.966  0.00  0.00    +0.000 A 
ATOM      4  C   UNL     1       1.721   5.537  20.476  0.00  0.00    +0.000 A 
ATOM      5  N   UNL     1       2.490   4.447  20.370  0.00  0.00    +0.000 NA
ENDROOT
BRANCH   3   6
ATOM      6  N   UNL     1       1.845   7.991  19.914  0.00  0.00    +0.000 N 
ATOM      7  C   UNL     1       1.582   8.690  18.743  0.00  0.00    +0.000 C 
ATOM      8  O   UNL     1       1.802   8.267  17.611  0.00  0.00    +0.000 OA
ATOM      9  H   UNL     1       1.647   8.448  20.797  0.00  0.00    +0.000 HD
BRANCH   7  10
ATOM     10  C   UNL     1       1.006  10.000  18.948  0.00  0.00    +0.000 A 
ATOM     11  C   UNL     1      -0.210  10.386  19.457  0.00  0.00    +0.000 A 
ATOM     12  C   UNL     1      -0.176  11.805  19.469  0.00  0.00    +0.000 A 
ATOM     13  N   UNL     1       0.985  12.240  18.947  0.00  0.00    +0.000 NA
ATOM     14  O   UNL     1       1.718  11.114  18.629  0.00  0.00    +0.000 OA
BRANCH  12  15
ATOM     15  C   UNL     1      -1.201  12.713  19.989  0.00  0.00    +0.000 A 
ATOM     16  C   UNL     1      -0.866  13.969  20.492  0.00  0.00    +0.000 A 
ATOM     17  C   UNL     1      -1.871  14.768  21.030  0.00  0.00    +0.000 A 
ATOM     18  C   UNL     1      -3.179  14.299  21.047  0.00  0.00    +0.000 A 
ATOM     19  C   UNL     1      -3.431  13.045  20.516  0.00  0.00    +0.000 A 
ATOM     20  N   UNL     1      -2.478  12.243  19.989  0.00  0.00    +0.000 NA
ENDBRANCH  12  15
ENDBRANCH   7  10
ENDBRANCH   3   6
BRANCH   1  22
ATOM     21  C   UNL     1       4.482   2.598  19.922  0.00  0.00    +0.000 C 
ATOM     22  C   UNL     1       4.731   4.025  19.411  0.00  0.00    +0.000 C 
BRANCH  22  23
ATOM     23  C   UNL     1       5.141   4.127  17.938  0.00  0.00    +0.000 A 
ATOM     24  C   UNL     1       4.263   3.631  16.948  0.00  0.00    +0.000 A 
ATOM     25  C   UNL     1       4.595   3.632  15.592  0.00  0.00    +0.000 A 
ATOM     26  C   UNL     1       5.811   4.161  15.163  0.00  0.00    +0.000 A 
ATOM     27  C   UNL     1       6.677   4.700  16.126  0.00  0.00    +0.000 A 
ATOM     28  C   UNL     1       6.370   4.695  17.510  0.00  0.00    +0.000 A 
BRANCH  26  29
ATOM     29  C   UNL     1       6.189   4.161  13.702  0.00  0.00    +0.000 C 
ATOM     30  F   UNL     1       5.134   4.370  12.866  0.00  0.00    +0.000 F 
ATOM     31  F   UNL     1       7.104   5.121  13.400  0.00  0.00    +0.000 F 
ATOM     32  F   UNL     1       6.743   2.979  13.313  0.00  0.00    +0.000 F 
ENDBRANCH  26  29
BRANCH  28  33
ATOM     33  C   UNL     1       7.432   5.294  18.418  0.00  0.00    +0.000 C 
ATOM     34  F   UNL     1       7.049   5.529  19.699  0.00  0.00    +0.000 F 
ATOM     35  F   UNL     1       8.524   4.482  18.510  0.00  0.00    +0.000 F 
ATOM     36  F   UNL     1       7.899   6.485  17.950  0.00  0.00    +0.000 F 
ENDBRANCH  28  33
ENDBRANCH  22  23
ENDBRANCH   1  22
TORSDOF 7
ENDMDL
MODEL 7
REMARK VINA RESULT:      -8.5      5.995      9.542
REMARK  Name = 
REMARK  8 active torsions:
REMARK  status: ('A' for Active; 'I' for Inactive)
REMARK    1  A    between atoms: C_1  and  C_2
REMARK    2  A    between atoms: C_2  and  C_3
REMARK    3  A    between atoms: C_2  and  N_17
REMARK    4  A    between atoms: C_6  and  C_7
REMARK    5  A    between atoms: C_12  and  C_13
REMARK    6  A    between atoms: C_19  and  N_20
REMARK    7  A    between atoms: C_21  and  C_23
REMARK    8  A    between atoms: C_25  and  C_26
REMARK                            x       y       z     vdW  Elec       q    Type
REMARK                         _______ _______ _______ _____ _____    ______ ____
ROOT
ATOM      1  N   UNL     1       0.779   8.662  20.453  0.00  0.00    +0.000 N 
ATOM      2  C   UNL     1       1.619   8.642  19.373  0.00  0.00    +0.000 A 
ATOM      3  C   UNL     1       2.347   7.482  19.448  0.00  0.00    +0.000 A 
ATOM      4  C   UNL     1       1.843   6.842  20.604  0.00  0.00    +0.000 A 
ATOM      5  N   UNL     1       0.871   7.540  21.202  0.00  0.00    +0.000 NA
ENDROOT
BRANCH   3   6
ATOM      6  N   UNL     1       3.347   7.049  18.593  0.00  0.00    +0.000 N 
ATOM      7  C   UNL     1       4.146   5.933  18.812  0.00  0.00    +0.000 C 
ATOM      8  O   UNL     1       4.092   5.221  19.811  0.00  0.00    +0.000 OA
ATOM      9  H   UNL     1       3.494   7.581  17.743  0.00  0.00    +0.000 HD
BRANCH   7  10
ATOM     10  C   UNL     1       5.078   5.650  17.746  0.00  0.00    +0.000 A 
ATOM     11  C   UNL     1       4.880   5.197  16.464  0.00  0.00    +0.000 A 
ATOM     12  C   UNL     1       6.170   5.176  15.871  0.00  0.00    +0.000 A 
ATOM     13  N   UNL     1       7.095   5.553  16.774  0.00  0.00    +0.000 NA
ATOM     14  O   UNL     1       6.411   5.850  17.935  0.00  0.00    +0.000 OA
BRANCH  12  15
ATOM     15  C   UNL     1       6.505   4.840  14.486  0.00  0.00    +0.000 A 
ATOM     16  C   UNL     1       5.771   3.892  13.775  0.00  0.00    +0.000 A 
ATOM     17  C   UNL     1       6.169   3.565  12.481  0.00  0.00    +0.000 A 
ATOM     18  C   UNL     1       7.279   4.193  11.931  0.00  0.00    +0.000 A 
ATOM     19  C   UNL     1       7.946   5.134  12.698  0.00  0.00    +0.000 A 
ATOM     20  N   UNL     1       7.587   5.472  13.957  0.00  0.00    +0.000 NA
ENDBRANCH  12  15
ENDBRANCH   7  10
ENDBRANCH   3   6
BRANCH   1  22
ATOM     21  C   UNL     1      -0.534   9.741  22.249  0.00  0.00    +0.000 C 
ATOM     22  C   UNL     1      -0.176   9.736  20.756  0.00  0.00    +0.000 C 
BRANCH  22  23
ATOM     23  C   UNL     1       0.262  11.092  20.188  0.00  0.00    +0.000 A 
ATOM     24  C   UNL     1       1.226  11.848  20.891  0.00  0.00    +0.000 A 
ATOM     25  C   UNL     1       1.627  13.117  20.469  0.00  0.00    +0.000 A 
ATOM     26  C   UNL     1       1.103  13.672  19.303  0.00  0.00    +0.000 A 
ATOM     27  C   UNL     1       0.178  12.917  18.566  0.00  0.00    +0.000 A 
ATOM     28  C   UNL     1      -0.257  11.635  18.983  0.00  0.00    +0.000 A 
BRANCH  26  29
ATOM     29  C   UNL     1       1.518  15.046  18.839  0.00  0.00    +0.000 C 
ATOM     30  F   UNL     1       2.086  15.804  19.818  0.00  0.00    +0.000 F 
ATOM     31  F   UNL     1       2.424  15.003  17.825  0.00  0.00    +0.000 F 
ATOM     32  F   UNL     1       0.465  15.773  18.371  0.00  0.00    +0.000 F 
ENDBRANCH  26  29
BRANCH  28  33
ATOM     33  C   UNL     1      -1.283  10.966  18.081  0.00  0.00    +0.000 C 
ATOM     34  F   UNL     1      -1.782  11.737  17.081  0.00  0.00    +0.000 F 
ATOM     35  F   UNL     1      -0.761   9.867  17.465  0.00  0.00    +0.000 F 
ATOM     36  F   UNL     1      -2.366  10.518  18.774  0.00  0.00    +0.000 F 
ENDBRANCH  28  33
ENDBRANCH  22  23
ENDBRANCH   1  22
TORSDOF 7
ENDMDL
MODEL 8
REMARK VINA RESULT:      -8.4      6.309      8.386
REMARK  Name = 
REMARK  8 active torsions:
REMARK  status: ('A' for Active; 'I' for Inactive)
REMARK    1  A    between atoms: C_1  and  C_2
REMARK    2  A    between atoms: C_2  and  C_3
REMARK    3  A    between atoms: C_2  and  N_17
REMARK    4  A    between atoms: C_6  and  C_7
REMARK    5  A    between atoms: C_12  and  C_13
REMARK    6  A    between atoms: C_19  and  N_20
REMARK    7  A    between atoms: C_21  and  C_23
REMARK    8  A    between atoms: C_25  and  C_26
REMARK                            x       y       z     vdW  Elec       q    Type
REMARK                         _______ _______ _______ _____ _____    ______ ____
ROOT
ATOM      1  N   UNL     1       3.539   4.632  19.828  0.00  0.00    +0.000 N 
ATOM      2  C   UNL     1       3.434   5.997  19.792  0.00  0.00    +0.000 A 
ATOM      3  C   UNL     1       2.156   6.314  20.174  0.00  0.00    +0.000 A 
ATOM      4  C   UNL     1       1.567   5.060  20.457  0.00  0.00    +0.000 A 
ATOM      5  N   UNL     1       2.411   4.037  20.276  0.00  0.00    +0.000 NA
ENDROOT
BRANCH   3   6
ATOM      6  N   UNL     1       1.579   7.571  20.252  0.00  0.00    +0.000 N 
ATOM      7  C   UNL     1       1.566   8.501  19.220  0.00  0.00    +0.000 C 
ATOM      8  O   UNL     1       2.103   8.340  18.127  0.00  0.00    +0.000 OA
ATOM      9  H   UNL     1       1.125   7.820  21.124  0.00  0.00    +0.000 HD
BRANCH   7  10
ATOM     10  C   UNL     1       0.849   9.718  19.524  0.00  0.00    +0.000 A 
ATOM     11  C   UNL     1      -0.259   9.947  20.302  0.00  0.00    +0.000 A 
ATOM     12  C   UNL     1      -0.455  11.354  20.269  0.00  0.00    +0.000 A 
ATOM     13  N   UNL     1       0.465  11.924  19.469  0.00  0.00    +0.000 NA
ATOM     14  O   UNL     1       1.275  10.905  19.013  0.00  0.00    +0.000 OA
BRANCH  12  15
ATOM     15  C   UNL     1      -1.463  12.127  20.998  0.00  0.00    +0.000 A 
ATOM     16  C   UNL     1      -2.184  13.143  20.374  0.00  0.00    +0.000 A 
ATOM     17  C   UNL     1      -3.087  13.888  21.128  0.00  0.00    +0.000 A 
ATOM     18  C   UNL     1      -3.250  13.598  22.477  0.00  0.00    +0.000 A 
ATOM     19  C   UNL     1      -2.505  12.563  23.018  0.00  0.00    +0.000 A 
ATOM     20  N   UNL     1      -1.619  11.823  22.314  0.00  0.00    +0.000 NA
ENDBRANCH  12  15
ENDBRANCH   7  10
ENDBRANCH   3   6
BRANCH   1  22
ATOM     21  C   UNL     1       4.636   2.421  19.973  0.00  0.00    +0.000 C 
ATOM     22  C   UNL     1       4.749   3.873  19.486  0.00  0.00    +0.000 C 
BRANCH  22  23
ATOM     23  C   UNL     1       5.153   4.037  18.016  0.00  0.00    +0.000 A 
ATOM     24  C   UNL     1       4.324   3.486  17.014  0.00  0.00    +0.000 A 
ATOM     25  C   UNL     1       4.658   3.541  15.660  0.00  0.00    +0.000 A 
ATOM     26  C   UNL     1       5.825   4.180  15.246  0.00  0.00    +0.000 A 
ATOM     27  C   UNL     1       6.639   4.773  16.222  0.00  0.00    +0.000 A 
ATOM     28  C   UNL     1       6.330   4.716  17.604  0.00  0.00    +0.000 A 
BRANCH  26  29
ATOM     29  C   UNL     1       6.206   4.239  13.787  0.00  0.00    +0.000 C 
ATOM     30  F   UNL     1       7.148   5.183  13.507  0.00  0.00    +0.000 F 
ATOM     31  F   UNL     1       6.709   3.060  13.330  0.00  0.00    +0.000 F 
ATOM     32  F   UNL     1       5.142   4.528  12.987  0.00  0.00    +0.000 F 
ENDBRANCH  26  29
BRANCH  28  33
ATOM     33  C   UNL     1       7.334   5.388  18.527  0.00  0.00    +0.000 C 
ATOM     34  F   UNL     1       6.883   5.689  19.772  0.00  0.00    +0.000 F 
ATOM     35  F   UNL     1       8.433   4.604  18.720  0.00  0.00    +0.000 F 
ATOM     36  F   UNL     1       7.804   6.559  18.014  0.00  0.00    +0.000 F 
ENDBRANCH  28  33
ENDBRANCH  22  23
ENDBRANCH   1  22
TORSDOF 7
ENDMDL
MODEL 9
REMARK VINA RESULT:      -8.4      5.973      7.522
REMARK  Name = 
REMARK  8 active torsions:
REMARK  status: ('A' for Active; 'I' for Inactive)
REMARK    1  A    between atoms: C_1  and  C_2
REMARK    2  A    between atoms: C_2  and  C_3
REMARK    3  A    between atoms: C_2  and  N_17
REMARK    4  A    between atoms: C_6  and  C_7
REMARK    5  A    between atoms: C_12  and  C_13
REMARK    6  A    between atoms: C_19  and  N_20
REMARK    7  A    between atoms: C_21  and  C_23
REMARK    8  A    between atoms: C_25  and  C_26
REMARK                            x       y       z     vdW  Elec       q    Type
REMARK                         _______ _______ _______ _____ _____    ______ ____
ROOT
ATOM      1  N   UNL     1       3.576   5.024  19.761  0.00  0.00    +0.000 N 
ATOM      2  C   UNL     1       3.467   6.334  19.382  0.00  0.00    +0.000 A 
ATOM      3  C   UNL     1       2.264   6.793  19.854  0.00  0.00    +0.000 A 
ATOM      4  C   UNL     1       1.727   5.682  20.546  0.00  0.00    +0.000 A 
ATOM      5  N   UNL     1       2.533   4.614  20.517  0.00  0.00    +0.000 NA
ENDROOT
BRANCH   3   6
ATOM      6  N   UNL     1       1.706   8.049  19.683  0.00  0.00    +0.000 N 
ATOM      7  C   UNL     1       1.204   8.837  20.711  0.00  0.00    +0.000 C 
ATOM      8  O   UNL     1       1.153   8.499  21.891  0.00  0.00    +0.000 OA
ATOM      9  H   UNL     1       1.675   8.419  18.740  0.00  0.00    +0.000 HD
BRANCH   7  10
ATOM     10  C   UNL     1       0.728  10.135  20.288  0.00  0.00    +0.000 A 
ATOM     11  C   UNL     1       1.345  11.362  20.262  0.00  0.00    +0.000 A 
ATOM     12  C   UNL     1       0.396  12.245  19.683  0.00  0.00    +0.000 A 
ATOM     13  N   UNL     1      -0.746  11.583  19.423  0.00  0.00    +0.000 NA
ATOM     14  O   UNL     1      -0.533  10.271  19.797  0.00  0.00    +0.000 OA
BRANCH  12  15
ATOM     15  C   UNL     1       0.582  13.662  19.361  0.00  0.00    +0.000 A 
ATOM     16  C   UNL     1      -0.507  14.516  19.202  0.00  0.00    +0.000 A 
ATOM     17  C   UNL     1      -0.277  15.840  18.836  0.00  0.00    +0.000 A 
ATOM     18  C   UNL     1       1.028  16.276  18.646  0.00  0.00    +0.000 A 
ATOM     19  C   UNL     1       2.057  15.368  18.837  0.00  0.00    +0.000 A 
ATOM     20  N   UNL     1       1.866  14.076  19.190  0.00  0.00    +0.000 NA
ENDBRANCH  12  15
ENDBRANCH   7  10
ENDBRANCH   3   6
BRANCH   1  22
ATOM     21  C   UNL     1       4.479   2.733  19.990  0.00  0.00    +0.000 C 
ATOM     22  C   UNL     1       4.719   4.153  19.454  0.00  0.00    +0.000 C 
BRANCH  22  23
ATOM     23  C   UNL     1       5.141   4.231  17.983  0.00  0.00    +0.000 A 
ATOM     24  C   UNL     1       4.270   3.722  16.994  0.00  0.00    +0.000 A 
ATOM     25  C   UNL     1       4.613   3.702  15.641  0.00  0.00    +0.000 A 
ATOM     26  C   UNL     1       5.833   4.221  15.214  0.00  0.00    +0.000 A 
ATOM     27  C   UNL     1       6.694   4.772  16.175  0.00  0.00    +0.000 A 
ATOM     28  C   UNL     1       6.375   4.789  17.556  0.00  0.00    +0.000 A 
BRANCH  26  29
ATOM     29  C   UNL     1       6.224   4.197  13.756  0.00  0.00    +0.000 C 
ATOM     30  F   UNL     1       5.172   4.372  12.907  0.00  0.00    +0.000 F 
ATOM     31  F   UNL     1       7.125   5.166  13.441  0.00  0.00    +0.000 F 
ATOM     32  F   UNL     1       6.800   3.017  13.395  0.00  0.00    +0.000 F 
ENDBRANCH  26  29
BRANCH  28  33
ATOM     33  C   UNL     1       7.431   5.399  18.464  0.00  0.00    +0.000 C 
ATOM     34  F   UNL     1       8.540   4.645  18.671  0.00  0.00    +0.000 F 
ATOM     35  F   UNL     1       7.887   6.585  17.967  0.00  0.00    +0.000 F 
ATOM     36  F   UNL     1       6.944   5.685  19.703  0.00  0.00    +0.000 F 
ENDBRANCH  28  33
ENDBRANCH  22  23
ENDBRANCH   1  22
TORSDOF 7
ENDMDL
