MODEL 1
REMARK VINA RESULT:      -8.6      0.000      0.000
REMARK  Name = 
REMARK  6 active torsions:
REMARK  status: ('A' for Active; 'I' for Inactive)
REMARK    1  A    between atoms: C_1  and  C_2
REMARK    2  A    between atoms: C_2  and  C_3
REMARK    3  A    between atoms: C_3  and  N_4
REMARK    4  A    between atoms: N_7  and  C_8
REMARK    5  A    between atoms: C_11  and  C_12
REMARK    6  A    between atoms: C_12  and  C_13
REMARK                            x       y       z     vdW  Elec       q    Type
REMARK                         _______ _______ _______ _____ _____    ______ ____
ROOT
ATOM      1  C   UNL     1       1.091   9.686  18.702  0.00  0.00    +0.000 A 
ATOM      2  C   UNL     1       1.804   8.924  17.768  0.00  0.00    +0.000 A 
ATOM      3  C   UNL     1       2.417   7.724  18.134  0.00  0.00    +0.000 A 
ATOM      4  C   UNL     1       2.340   7.261  19.456  0.00  0.00    +0.000 A 
ATOM      5  C   UNL     1       1.664   8.040  20.399  0.00  0.00    +0.000 A 
ATOM      6  C   UNL     1       1.046   9.237  20.028  0.00  0.00    +0.000 A 
ENDROOT
BRANCH   1  10
ATOM      7  N   UNL     1      -1.696  10.040  17.909  0.00  0.00    +0.000 N 
ATOM      8  C   UNL     1      -0.913  11.093  18.270  0.00  0.00    +0.000 C 
ATOM      9  N   UNL     1      -1.345  12.279  18.536  0.00  0.00    +0.000 NA
ATOM     10  N   UNL     1       0.425  10.849  18.261  0.00  0.00    +0.000 N 
ATOM     11  H   UNL     1      -1.124   9.274  17.566  0.00  0.00    +0.000 HD
ATOM     12  H   UNL     1      -2.366  12.263  18.512  0.00  0.00    +0.000 HD
ATOM     13  H   UNL     1       0.962  11.690  18.440  0.00  0.00    +0.000 HD
BRANCH   7  14
ATOM     14  C   UNL     1      -2.926  10.178  17.155  0.00  0.00    +0.000 C 
BRANCH  14  16
ATOM     15  C   UNL     1      -3.050  10.060  14.618  0.00  0.00    +0.000 C 
ATOM     16  C   UNL     1      -2.656  10.894  15.830  0.00  0.00    +0.000 C 
ENDBRANCH  14  16
ENDBRANCH   7  14
ENDBRANCH   1  10
BRANCH   4  17
ATOM     17  C   UNL     1       3.003   5.962  19.855  0.00  0.00    +0.000 C 
BRANCH  17  18
ATOM     18  C   UNL     1       3.765   5.316  18.732  0.00  0.00    +0.000 A 
ATOM     19  C   UNL     1       4.966   5.848  18.276  0.00  0.00    +0.000 A 
ATOM     20  C   UNL     1       5.607   5.266  17.186  0.00  0.00    +0.000 A 
ATOM     21  C   UNL     1       5.042   4.165  16.554  0.00  0.00    +0.000 A 
ATOM     22  N   UNL     1       5.569   3.584  15.403  0.00  0.00    +0.000 N 
ATOM     23  C   UNL     1       6.394   4.160  14.494  0.00  0.00    +0.000 C 
ATOM     24  N   UNL     1       7.170   5.195  14.634  0.00  0.00    +0.000 NA
ATOM     25  C   UNL     1       7.769   5.424  13.299  0.00  0.00    +0.000 C 
ATOM     26  C   UNL     1       7.237   4.324  12.381  0.00  0.00    +0.000 C 
ATOM     27  N   UNL     1       6.389   3.555  13.270  0.00  0.00    +0.000 N 
ATOM     28  N   UNL     1       3.899   3.605  17.015  0.00  0.00    +0.000 NA
ATOM     29  C   UNL     1       3.286   4.192  18.072  0.00  0.00    +0.000 A 
ATOM     30  H   UNL     1       5.006   2.801  15.116  0.00  0.00    +0.000 HD
ATOM     31  H   UNL     1       5.463   3.364  12.906  0.00  0.00    +0.000 HD
ENDBRANCH  17  18
ENDBRANCH   4  17
TORSDOF 5
ENDMDL
MODEL 2
REMARK VINA RESULT:      -8.3      2.621      9.396
REMARK  Name = 
REMARK  6 active torsions:
REMARK  status: ('A' for Active; 'I' for Inactive)
REMARK    1  A    between atoms: C_1  and  C_2
REMARK    2  A    between atoms: C_2  and  C_3
REMARK    3  A    between atoms: C_3  and  N_4
REMARK    4  A    between atoms: N_7  and  C_8
REMARK    5  A    between atoms: C_11  and  C_12
REMARK    6  A    between atoms: C_12  and  C_13
REMARK                            x       y       z     vdW  Elec       q    Type
REMARK                         _______ _______ _______ _____ _____    ______ ____
ROOT
ATOM      1  C   UNL     1       6.260   5.244  16.016  0.00  0.00    +0.000 A 
ATOM      2  C   UNL     1       5.558   4.056  16.254  0.00  0.00    +0.000 A 
ATOM      3  C   UNL     1       4.365   4.059  16.981  0.00  0.00    +0.000 A 
ATOM      4  C   UNL     1       3.851   5.255  17.499  0.00  0.00    +0.000 A 
ATOM      5  C   UNL     1       4.572   6.436  17.299  0.00  0.00    +0.000 A 
ATOM      6  C   UNL     1       5.761   6.432  16.566  0.00  0.00    +0.000 A 
ENDROOT
BRANCH   1  10
ATOM      7  N   UNL     1       6.567   4.321  13.264  0.00  0.00    +0.000 N 
ATOM      8  C   UNL     1       7.481   5.140  13.852  0.00  0.00    +0.000 C 
ATOM      9  N   UNL     1       8.411   5.778  13.228  0.00  0.00    +0.000 NA
ATOM     10  N   UNL     1       7.417   5.196  15.210  0.00  0.00    +0.000 N 
ATOM     11  H   UNL     1       6.066   3.785  13.967  0.00  0.00    +0.000 HD
ATOM     12  H   UNL     1       8.286   5.630  12.226  0.00  0.00    +0.000 HD
ATOM     13  H   UNL     1       8.180   5.740  15.600  0.00  0.00    +0.000 HD
BRANCH   7  14
ATOM     14  C   UNL     1       6.842   3.534  12.078  0.00  0.00    +0.000 C 
BRANCH  14  16
ATOM     15  C   UNL     1       6.131   1.302  11.090  0.00  0.00    +0.000 C 
ATOM     16  C   UNL     1       5.685   2.572  11.802  0.00  0.00    +0.000 C 
ENDBRANCH  14  16
ENDBRANCH   7  14
ENDBRANCH   1  10
BRANCH   4  17
ATOM     17  C   UNL     1       2.559   5.260  18.286  0.00  0.00    +0.000 C 
BRANCH  17  18
ATOM     18  C   UNL     1       2.200   6.615  18.829  0.00  0.00    +0.000 A 
ATOM     19  C   UNL     1       1.963   6.808  20.185  0.00  0.00    +0.000 A 
ATOM     20  C   UNL     1       1.561   8.060  20.642  0.00  0.00    +0.000 A 
ATOM     21  C   UNL     1       1.390   9.106  19.743  0.00  0.00    +0.000 A 
ATOM     22  N   UNL     1       0.901  10.359  20.104  0.00  0.00    +0.000 N 
ATOM     23  C   UNL     1       0.151  10.669  21.191  0.00  0.00    +0.000 C 
ATOM     24  N   UNL     1       0.021  10.014  22.308  0.00  0.00    +0.000 NA
ATOM     25  C   UNL     1      -0.983  10.767  23.094  0.00  0.00    +0.000 C 
ATOM     26  C   UNL     1      -1.377  11.983  22.258  0.00  0.00    +0.000 C 
ATOM     27  N   UNL     1      -0.559  11.828  21.071  0.00  0.00    +0.000 N 
ATOM     28  N   UNL     1       1.663   8.947  18.427  0.00  0.00    +0.000 NA
ATOM     29  C   UNL     1       2.045   7.719  18.002  0.00  0.00    +0.000 A 
ATOM     30  H   UNL     1       0.858  10.964  19.301  0.00  0.00    +0.000 HD
ATOM     31  H   UNL     1      -1.065  11.916  20.198  0.00  0.00    +0.000 HD
ENDBRANCH  17  18
ENDBRANCH   4  17
TORSDOF 5
ENDMDL
MODEL 3
REMARK VINA RESULT:      -8.2      2.087      9.186
REMARK  Name = 
REMARK  6 active torsions:
REMARK  status: ('A' for Active; 'I' for Inactive)
REMARK    1  A    between atoms: C_1  and  C_2
REMARK    2  A    between atoms: C_2  and  C_3
REMARK    3  A    between atoms: C_3  and  N_4
REMARK    4  A    between atoms: N_7  and  C_8
REMARK    5  A    between atoms: C_11  and  C_12
REMARK    6  A    between atoms: C_12  and  C_13
REMARK                            x       y       z     vdW  Elec       q    Type
REMARK                         _______ _______ _______ _____ _____    ______ ____
ROOT
ATOM      1  C   UNL     1       6.193   5.284  16.033  0.00  0.00    +0.000 A 
ATOM      2  C   UNL     1       5.796   6.565  16.435  0.00  0.00    +0.000 A 
ATOM      3  C   UNL     1       4.713   6.745  17.299  0.00  0.00    +0.000 A 
ATOM      4  C   UNL     1       3.991   5.640  17.774  0.00  0.00    +0.000 A 
ATOM      5  C   UNL     1       4.360   4.363  17.340  0.00  0.00    +0.000 A 
ATOM      6  C   UNL     1       5.448   4.186  16.482  0.00  0.00    +0.000 A 
ENDROOT
BRANCH   1  10
ATOM      7  N   UNL     1       6.429   4.305  13.293  0.00  0.00    +0.000 N 
ATOM      8  C   UNL     1       7.395   5.074  13.865  0.00  0.00    +0.000 C 
ATOM      9  N   UNL     1       8.360   5.646  13.229  0.00  0.00    +0.000 NA
ATOM     10  N   UNL     1       7.341   5.154  15.223  0.00  0.00    +0.000 N 
ATOM     11  H   UNL     1       5.900   3.811  14.005  0.00  0.00    +0.000 HD
ATOM     12  H   UNL     1       8.221   5.492  12.229  0.00  0.00    +0.000 HD
ATOM     13  H   UNL     1       8.137   5.654  15.602  0.00  0.00    +0.000 HD
BRANCH   7  14
ATOM     14  C   UNL     1       6.650   3.487  12.116  0.00  0.00    +0.000 C 
BRANCH  14  16
ATOM     15  C   UNL     1       4.204   3.363  11.435  0.00  0.00    +0.000 C 
ATOM     16  C   UNL     1       5.440   2.585  11.866  0.00  0.00    +0.000 C 
ENDBRANCH  14  16
ENDBRANCH   7  14
ENDBRANCH   1  10
BRANCH   4  17
ATOM     17  C   UNL     1       2.818   5.833  18.709  0.00  0.00    +0.000 C 
BRANCH  17  18
ATOM     18  C   UNL     1       2.313   7.248  18.743  0.00  0.00    +0.000 A 
ATOM     19  C   UNL     1       1.858   7.823  19.924  0.00  0.00    +0.000 A 
ATOM     20  C   UNL     1       1.329   9.111  19.904  0.00  0.00    +0.000 A 
ATOM     21  C   UNL     1       1.249   9.810  18.705  0.00  0.00    +0.000 A 
ATOM     22  N   UNL     1       0.648  11.061  18.584  0.00  0.00    +0.000 N 
ATOM     23  C   UNL     1      -0.275  11.615  19.407  0.00  0.00    +0.000 C 
ATOM     24  N   UNL     1      -0.546  11.323  20.646  0.00  0.00    +0.000 NA
ATOM     25  C   UNL     1      -1.696  12.181  21.013  0.00  0.00    +0.000 C 
ATOM     26  C   UNL     1      -2.014  13.041  19.790  0.00  0.00    +0.000 C 
ATOM     27  N   UNL     1      -1.014  12.609  18.833  0.00  0.00    +0.000 N 
ATOM     28  N   UNL     1       1.731   9.284  17.556  0.00  0.00    +0.000 NA
ATOM     29  C   UNL     1       2.235   8.027  17.596  0.00  0.00    +0.000 A 
ATOM     30  H   UNL     1       0.702  11.385  17.632  0.00  0.00    +0.000 HD
ATOM     31  H   UNL     1      -1.382  12.377  17.918  0.00  0.00    +0.000 HD
ENDBRANCH  17  18
ENDBRANCH   4  17
TORSDOF 5
ENDMDL
MODEL 4
REMARK VINA RESULT:      -8.1      2.531      8.742
REMARK  Name = 
REMARK  6 active torsions:
REMARK  status: ('A' for Active; 'I' for Inactive)
REMARK    1  A    between atoms: C_1  and  C_2
REMARK    2  A    between atoms: C_2  and  C_3
REMARK    3  A    between atoms: C_3  and  N_4
REMARK    4  A    between atoms: N_7  and  C_8
REMARK    5  A    between atoms: C_11  and  C_12
REMARK    6  A    between atoms: C_12  and  C_13
REMARK                            x       y       z     vdW  Elec       q    Type
REMARK                         _______ _______ _______ _____ _____    ______ ____
ROOT
ATOM      1  C   UNL     1       6.147   5.110  16.032  0.00  0.00    +0.000 A 
ATOM      2  C   UNL     1       5.794   6.300  16.681  0.00  0.00    +0.000 A 
ATOM      3  C   UNL     1       4.712   6.346  17.562  0.00  0.00    +0.000 A 
ATOM      4  C   UNL     1       3.944   5.199  17.806  0.00  0.00    +0.000 A 
ATOM      5  C   UNL     1       4.268   4.020  17.128  0.00  0.00    +0.000 A 
ATOM      6  C   UNL     1       5.356   3.974  16.253  0.00  0.00    +0.000 A 
ENDROOT
BRANCH   1  10
ATOM      7  N   UNL     1       6.446   4.232  13.265  0.00  0.00    +0.000 N 
ATOM      8  C   UNL     1       7.347   5.063  13.855  0.00  0.00    +0.000 C 
ATOM      9  N   UNL     1       8.257   5.730  13.230  0.00  0.00    +0.000 NA
ATOM     10  N   UNL     1       7.296   5.099  15.214  0.00  0.00    +0.000 N 
ATOM     11  H   UNL     1       5.964   3.675  13.965  0.00  0.00    +0.000 HD
ATOM     12  H   UNL     1       8.125   5.593  12.227  0.00  0.00    +0.000 HD
ATOM     13  H   UNL     1       8.050   5.654  15.604  0.00  0.00    +0.000 HD
BRANCH   7  14
ATOM     14  C   UNL     1       6.726   3.468  12.065  0.00  0.00    +0.000 C 
BRANCH  14  16
ATOM     15  C   UNL     1       4.317   3.236  11.287  0.00  0.00    +0.000 C 
ATOM     16  C   UNL     1       5.570   2.513  11.764  0.00  0.00    +0.000 C 
ENDBRANCH  14  16
ENDBRANCH   7  14
ENDBRANCH   1  10
BRANCH   4  17
ATOM     17  C   UNL     1       2.771   5.247  18.760  0.00  0.00    +0.000 C 
BRANCH  17  18
ATOM     18  C   UNL     1       2.267   6.640  19.010  0.00  0.00    +0.000 A 
ATOM     19  C   UNL     1       2.273   7.600  18.003  0.00  0.00    +0.000 A 
ATOM     20  C   UNL     1       1.868   8.901  18.290  0.00  0.00    +0.000 A 
ATOM     21  C   UNL     1       1.469   9.236  19.578  0.00  0.00    +0.000 A 
ATOM     22  N   UNL     1       1.140  10.532  19.968  0.00  0.00    +0.000 N 
ATOM     23  C   UNL     1       1.517  11.692  19.375  0.00  0.00    +0.000 C 
ATOM     24  N   UNL     1       1.930  11.891  18.157  0.00  0.00    +0.000 NA
ATOM     25  C   UNL     1       2.282  13.327  18.089  0.00  0.00    +0.000 C 
ATOM     26  C   UNL     1       1.966  13.926  19.458  0.00  0.00    +0.000 C 
ATOM     27  N   UNL     1       1.451  12.786  20.189  0.00  0.00    +0.000 N 
ATOM     28  N   UNL     1       1.411   8.303  20.557  0.00  0.00    +0.000 NA
ATOM     29  C   UNL     1       1.817   7.045  20.259  0.00  0.00    +0.000 A 
ATOM     30  H   UNL     1       0.879  10.550  20.940  0.00  0.00    +0.000 HD
ATOM     31  H   UNL     1       1.869  12.649  21.102  0.00  0.00    +0.000 HD
ENDBRANCH  17  18
ENDBRANCH   4  17
TORSDOF 5
ENDMDL
MODEL 5
REMARK VINA RESULT:      -8.1      2.565      9.251
REMARK  Name = 
REMARK  6 active torsions:
REMARK  status: ('A' for Active; 'I' for Inactive)
REMARK    1  A    between atoms: C_1  and  C_2
REMARK    2  A    between atoms: C_2  and  C_3
REMARK    3  A    between atoms: C_3  and  N_4
REMARK    4  A    between atoms: N_7  and  C_8
REMARK    5  A    between atoms: C_11  and  C_12
REMARK    6  A    between atoms: C_12  and  C_13
REMARK                            x       y       z     vdW  Elec       q    Type
REMARK                         _______ _______ _______ _____ _____    ______ ____
ROOT
ATOM      1  C   UNL     1       6.062   5.078  16.006  0.00  0.00    +0.000 A 
ATOM      2  C   UNL     1       5.328   6.260  16.166  0.00  0.00    +0.000 A 
ATOM      3  C   UNL     1       4.215   6.308  17.007  0.00  0.00    +0.000 A 
ATOM      4  C   UNL     1       3.801   5.164  17.705  0.00  0.00    +0.000 A 
ATOM      5  C   UNL     1       4.507   3.973  17.515  0.00  0.00    +0.000 A 
ATOM      6  C   UNL     1       5.625   3.929  16.678  0.00  0.00    +0.000 A 
ENDROOT
BRANCH   1  10
ATOM      7  N   UNL     1       6.447   4.158  13.263  0.00  0.00    +0.000 N 
ATOM      8  C   UNL     1       7.298   5.043  13.849  0.00  0.00    +0.000 C 
ATOM      9  N   UNL     1       8.185   5.740  13.224  0.00  0.00    +0.000 NA
ATOM     10  N   UNL     1       7.224   5.105  15.206  0.00  0.00    +0.000 N 
ATOM     11  H   UNL     1       5.980   3.594  13.968  0.00  0.00    +0.000 HD
ATOM     12  H   UNL     1       8.076   5.576  12.222  0.00  0.00    +0.000 HD
ATOM     13  H   UNL     1       7.945   5.703  15.595  0.00  0.00    +0.000 HD
BRANCH   7  14
ATOM     14  C   UNL     1       6.782   3.383  12.084  0.00  0.00    +0.000 C 
BRANCH  14  16
ATOM     15  C   UNL     1       4.318   3.272  11.469  0.00  0.00    +0.000 C 
ATOM     16  C   UNL     1       5.606   2.490  11.687  0.00  0.00    +0.000 C 
ENDBRANCH  14  16
ENDBRANCH   7  14
ENDBRANCH   1  10
BRANCH   4  17
ATOM     17  C   UNL     1       2.595   5.214  18.617  0.00  0.00    +0.000 C 
BRANCH  17  18
ATOM     18  C   UNL     1       2.226   6.610  19.035  0.00  0.00    +0.000 A 
ATOM     19  C   UNL     1       1.959   6.917  20.364  0.00  0.00    +0.000 A 
ATOM     20  C   UNL     1       1.548   8.203  20.705  0.00  0.00    +0.000 A 
ATOM     21  C   UNL     1       1.398   9.168  19.717  0.00  0.00    +0.000 A 
ATOM     22  N   UNL     1       0.902  10.447  19.960  0.00  0.00    +0.000 N 
ATOM     23  C   UNL     1       0.129  10.847  21.000  0.00  0.00    +0.000 C 
ATOM     24  N   UNL     1      -0.026  10.288  22.166  0.00  0.00    +0.000 NA
ATOM     25  C   UNL     1      -1.046  11.104  22.863  0.00  0.00    +0.000 C 
ATOM     26  C   UNL     1      -1.421  12.245  21.918  0.00  0.00    +0.000 C 
ATOM     27  N   UNL     1      -0.577  11.991  20.767  0.00  0.00    +0.000 N 
ATOM     28  N   UNL     1       1.699   8.899  18.425  0.00  0.00    +0.000 NA
ATOM     29  C   UNL     1       2.090   7.639  18.114  0.00  0.00    +0.000 A 
ATOM     30  H   UNL     1       0.877  10.982  19.108  0.00  0.00    +0.000 HD
ATOM     31  H   UNL     1      -1.065  12.004  19.879  0.00  0.00    +0.000 HD
ENDBRANCH  17  18
ENDBRANCH   4  17
TORSDOF 5
ENDMDL
MODEL 6
REMARK VINA RESULT:      -8.0      2.546      8.698
REMARK  Name = 
REMARK  6 active torsions:
REMARK  status: ('A' for Active; 'I' for Inactive)
REMARK    1  A    between atoms: C_1  and  C_2
REMARK    2  A    between atoms: C_2  and  C_3
REMARK    3  A    between atoms: C_3  and  N_4
REMARK    4  A    between atoms: N_7  and  C_8
REMARK    5  A    between atoms: C_11  and  C_12
REMARK    6  A    between atoms: C_12  and  C_13
REMARK                            x       y       z     vdW  Elec       q    Type
REMARK                         _______ _______ _______ _____ _____    ______ ____
ROOT
ATOM      1  C   UNL     1       6.670   4.824  15.852  0.00  0.00    +0.000 A 
ATOM      2  C   UNL     1       5.321   4.583  15.564  0.00  0.00    +0.000 A 
ATOM      3  C   UNL     1       4.369   4.505  16.583  0.00  0.00    +0.000 A 
ATOM      4  C   UNL     1       4.750   4.656  17.924  0.00  0.00    +0.000 A 
ATOM      5  C   UNL     1       6.102   4.856  18.217  0.00  0.00    +0.000 A 
ATOM      6  C   UNL     1       7.051   4.941  17.195  0.00  0.00    +0.000 A 
ENDROOT
BRANCH   1  10
ATOM      7  N   UNL     1       6.539   3.730  13.149  0.00  0.00    +0.000 N 
ATOM      8  C   UNL     1       7.327   4.796  13.454  0.00  0.00    +0.000 C 
ATOM      9  N   UNL     1       7.889   5.571  12.590  0.00  0.00    +0.000 NA
ATOM     10  N   UNL     1       7.575   4.972  14.780  0.00  0.00    +0.000 N 
ATOM     11  H   UNL     1       6.372   3.164  13.976  0.00  0.00    +0.000 HD
ATOM     12  H   UNL     1       7.572   5.299  11.659  0.00  0.00    +0.000 HD
ATOM     13  H   UNL     1       8.244   5.716  14.942  0.00  0.00    +0.000 HD
BRANCH   7  14
ATOM     14  C   UNL     1       6.716   2.916  11.962  0.00  0.00    +0.000 C 
BRANCH  14  16
ATOM     15  C   UNL     1       4.264   3.371  11.467  0.00  0.00    +0.000 C 
ATOM     16  C   UNL     1       5.374   2.330  11.520  0.00  0.00    +0.000 C 
ENDBRANCH  14  16
ENDBRANCH   7  14
ENDBRANCH   1  10
BRANCH   4  17
ATOM     17  C   UNL     1       3.721   4.572  19.030  0.00  0.00    +0.000 C 
BRANCH  17  18
ATOM     18  C   UNL     1       2.942   5.844  19.213  0.00  0.00    +0.000 A 
ATOM     19  C   UNL     1       2.947   6.838  18.240  0.00  0.00    +0.000 A 
ATOM     20  C   UNL     1       2.274   8.034  18.475  0.00  0.00    +0.000 A 
ATOM     21  C   UNL     1       1.611   8.233  19.680  0.00  0.00    +0.000 A 
ATOM     22  N   UNL     1       0.996   9.433  20.030  0.00  0.00    +0.000 N 
ATOM     23  C   UNL     1       1.254  10.667  19.532  0.00  0.00    +0.000 C 
ATOM     24  N   UNL     1       1.824  10.993  18.408  0.00  0.00    +0.000 NA
ATOM     25  C   UNL     1       1.921  12.470  18.428  0.00  0.00    +0.000 C 
ATOM     26  C   UNL     1       1.278  12.939  19.732  0.00  0.00    +0.000 C 
ATOM     27  N   UNL     1       0.859  11.693  20.342  0.00  0.00    +0.000 N 
ATOM     28  N   UNL     1       1.557   7.258  20.617  0.00  0.00    +0.000 NA
ATOM     29  C   UNL     1       2.225   6.105  20.372  0.00  0.00    +0.000 A 
ATOM     30  H   UNL     1       0.577   9.359  20.942  0.00  0.00    +0.000 HD
ATOM     31  H   UNL     1       1.135  11.586  21.311  0.00  0.00    +0.000 HD
ENDBRANCH  17  18
ENDBRANCH   4  17
TORSDOF 5
ENDMDL
MODEL 7
REMARK VINA RESULT:      -8.0      3.537     10.074
REMARK  Name = 
REMARK  6 active torsions:
REMARK  status: ('A' for Active; 'I' for Inactive)
REMARK    1  A    between atoms: C_1  and  C_2
REMARK    2  A    between atoms: C_2  and  C_3
REMARK    3  A    between atoms: C_3  and  N_4
REMARK    4  A    between atoms: N_7  and  C_8
REMARK    5  A    between atoms: C_11  and  C_12
REMARK    6  A    between atoms: C_12  and  C_13
REMARK                            x       y       z     vdW  Elec       q    Type
REMARK                         _______ _______ _______ _____ _____    ______ ____
ROOT
ATOM      1  C   UNL     1       2.396   7.386  19.550  0.00  0.00    +0.000 A 
ATOM      2  C   UNL     1       2.612   7.880  18.258  0.00  0.00    +0.000 A 
ATOM      3  C   UNL     1       2.035   9.082  17.842  0.00  0.00    +0.000 A 
ATOM      4  C   UNL     1       1.215   9.816  18.710  0.00  0.00    +0.000 A 
ATOM      5  C   UNL     1       0.965   9.304  19.987  0.00  0.00    +0.000 A 
ATOM      6  C   UNL     1       1.549   8.105  20.404  0.00  0.00    +0.000 A 
ENDROOT
BRANCH   1  10
ATOM      7  N   UNL     1       1.950   4.628  18.707  0.00  0.00    +0.000 N 
ATOM      8  C   UNL     1       3.119   5.022  19.282  0.00  0.00    +0.000 C 
ATOM      9  N   UNL     1       4.207   4.329  19.296  0.00  0.00    +0.000 NA
ATOM     10  N   UNL     1       3.066   6.209  19.945  0.00  0.00    +0.000 N 
ATOM     11  H   UNL     1       1.191   5.242  18.988  0.00  0.00    +0.000 HD
ATOM     12  H   UNL     1       4.060   3.489  18.735  0.00  0.00    +0.000 HD
ATOM     13  H   UNL     1       3.932   6.405  20.435  0.00  0.00    +0.000 HD
BRANCH   7  14
ATOM     14  C   UNL     1       1.524   3.244  18.626  0.00  0.00    +0.000 C 
BRANCH  14  16
ATOM     15  C   UNL     1       1.449   2.602  21.084  0.00  0.00    +0.000 C 
ATOM     16  C   UNL     1       0.643   2.891  19.825  0.00  0.00    +0.000 C 
ENDBRANCH  14  16
ENDBRANCH   7  14
ENDBRANCH   1  10
BRANCH   4  17
ATOM     17  C   UNL     1       0.590  11.118  18.261  0.00  0.00    +0.000 C 
BRANCH  17  18
ATOM     18  C   UNL     1      -0.912  11.074  18.227  0.00  0.00    +0.000 A 
ATOM     19  C   UNL     1      -1.677  11.975  18.960  0.00  0.00    +0.000 A 
ATOM     20  C   UNL     1      -3.064  11.858  18.962  0.00  0.00    +0.000 A 
ATOM     21  C   UNL     1      -3.676  10.839  18.242  0.00  0.00    +0.000 A 
ATOM     22  N   UNL     1      -5.047  10.596  18.268  0.00  0.00    +0.000 N 
ATOM     23  C   UNL     1      -5.932  10.965  19.227  0.00  0.00    +0.000 C 
ATOM     24  N   UNL     1      -5.824  11.905  20.121  0.00  0.00    +0.000 NA
ATOM     25  C   UNL     1      -7.043  11.801  20.954  0.00  0.00    +0.000 C 
ATOM     26  C   UNL     1      -7.886  10.670  20.366  0.00  0.00    +0.000 C 
ATOM     27  N   UNL     1      -7.083  10.231  19.242  0.00  0.00    +0.000 N 
ATOM     28  N   UNL     1      -2.950   9.984  17.485  0.00  0.00    +0.000 NA
ATOM     29  C   UNL     1      -1.601  10.110  17.503  0.00  0.00    +0.000 A 
ATOM     30  H   UNL     1      -5.276   9.815  17.676  0.00  0.00    +0.000 HD
ATOM     31  H   UNL     1      -6.937   9.229  19.196  0.00  0.00    +0.000 HD
ENDBRANCH  17  18
ENDBRANCH   4  17
TORSDOF 5
ENDMDL
MODEL 8
REMARK VINA RESULT:      -8.0      3.878      6.263
REMARK  Name = 
REMARK  6 active torsions:
REMARK  status: ('A' for Active; 'I' for Inactive)
REMARK    1  A    between atoms: C_1  and  C_2
REMARK    2  A    between atoms: C_2  and  C_3
REMARK    3  A    between atoms: C_3  and  N_4
REMARK    4  A    between atoms: N_7  and  C_8
REMARK    5  A    between atoms: C_11  and  C_12
REMARK    6  A    between atoms: C_12  and  C_13
REMARK                            x       y       z     vdW  Elec       q    Type
REMARK                         _______ _______ _______ _____ _____    ______ ____
ROOT
ATOM      1  C   UNL     1      -3.655  10.944  17.562  0.00  0.00    +0.000 A 
ATOM      2  C   UNL     1      -3.132  11.979  18.347  0.00  0.00    +0.000 A 
ATOM      3  C   UNL     1      -1.777  12.013  18.683  0.00  0.00    +0.000 A 
ATOM      4  C   UNL     1      -0.910  11.001  18.247  0.00  0.00    +0.000 A 
ATOM      5  C   UNL     1      -1.438   9.945  17.498  0.00  0.00    +0.000 A 
ATOM      6  C   UNL     1      -2.793   9.917  17.157  0.00  0.00    +0.000 A 
ENDROOT
BRANCH   1  10
ATOM      7  N   UNL     1      -6.046  10.887  19.235  0.00  0.00    +0.000 N 
ATOM      8  C   UNL     1      -6.075  11.358  17.959  0.00  0.00    +0.000 C 
ATOM      9  N   UNL     1      -7.044  12.033  17.442  0.00  0.00    +0.000 NA
ATOM     10  N   UNL     1      -5.014  11.000  17.186  0.00  0.00    +0.000 N 
ATOM     11  H   UNL     1      -5.280  10.229  19.354  0.00  0.00    +0.000 HD
ATOM     12  H   UNL     1      -7.732  12.220  18.173  0.00  0.00    +0.000 HD
ATOM     13  H   UNL     1      -5.135  11.293  16.223  0.00  0.00    +0.000 HD
BRANCH   7  14
ATOM     14  C   UNL     1      -7.230  10.477  19.965  0.00  0.00    +0.000 C 
BRANCH  14  16
ATOM     15  C   UNL     1      -6.352  12.400  21.379  0.00  0.00    +0.000 C 
ATOM     16  C   UNL     1      -7.521  11.466  21.095  0.00  0.00    +0.000 C 
ENDBRANCH  14  16
ENDBRANCH   7  14
ENDBRANCH   1  10
BRANCH   4  17
ATOM     17  C   UNL     1       0.558  11.036  18.610  0.00  0.00    +0.000 C 
BRANCH  17  18
ATOM     18  C   UNL     1       1.048   9.755  19.224  0.00  0.00    +0.000 A 
ATOM     19  C   UNL     1       1.803   8.847  18.490  0.00  0.00    +0.000 A 
ATOM     20  C   UNL     1       2.178   7.637  19.069  0.00  0.00    +0.000 A 
ATOM     21  C   UNL     1       1.788   7.339  20.369  0.00  0.00    +0.000 A 
ATOM     22  N   UNL     1       2.040   6.116  20.985  0.00  0.00    +0.000 N 
ATOM     23  C   UNL     1       2.294   4.927  20.384  0.00  0.00    +0.000 C 
ATOM     24  N   UNL     1       2.723   4.695  19.178  0.00  0.00    +0.000 NA
ATOM     25  C   UNL     1       2.733   3.222  19.037  0.00  0.00    +0.000 C 
ATOM     26  C   UNL     1       2.276   2.646  20.377  0.00  0.00    +0.000 C 
ATOM     27  N   UNL     1       2.053   3.838  21.172  0.00  0.00    +0.000 N 
ATOM     28  N   UNL     1       1.095   8.231  21.113  0.00  0.00    +0.000 NA
ATOM     29  C   UNL     1       0.733   9.400  20.529  0.00  0.00    +0.000 A 
ATOM     30  H   UNL     1       1.675   6.114  21.923  0.00  0.00    +0.000 HD
ATOM     31  H   UNL     1       1.161   3.861  21.651  0.00  0.00    +0.000 HD
ENDBRANCH  17  18
ENDBRANCH   4  17
TORSDOF 5
ENDMDL
MODEL 9
REMARK VINA RESULT:      -7.9      1.717      2.454
REMARK  Name = 
REMARK  6 active torsions:
REMARK  status: ('A' for Active; 'I' for Inactive)
REMARK    1  A    between atoms: C_1  and  C_2
REMARK    2  A    between atoms: C_2  and  C_3
REMARK    3  A    between atoms: C_3  and  N_4
REMARK    4  A    between atoms: N_7  and  C_8
REMARK    5  A    between atoms: C_11  and  C_12
REMARK    6  A    between atoms: C_12  and  C_13
REMARK                            x       y       z     vdW  Elec       q    Type
REMARK                         _______ _______ _______ _____ _____    ______ ____
ROOT
ATOM      1  C   UNL     1       1.083   9.470  18.672  0.00  0.00    +0.000 A 
ATOM      2  C   UNL     1       1.878   8.790  17.740  0.00  0.00    +0.000 A 
ATOM      3  C   UNL     1       2.568   7.629  18.094  0.00  0.00    +0.000 A 
ATOM      4  C   UNL     1       2.488   7.124  19.400  0.00  0.00    +0.000 A 
ATOM      5  C   UNL     1       1.729   7.824  20.343  0.00  0.00    +0.000 A 
ATOM      6  C   UNL     1       1.033   8.981  19.984  0.00  0.00    +0.000 A 
ENDROOT
BRANCH   1  10
ATOM      7  N   UNL     1       0.169  11.785  20.196  0.00  0.00    +0.000 N 
ATOM      8  C   UNL     1       0.264  11.812  18.839  0.00  0.00    +0.000 C 
ATOM      9  N   UNL     1       0.209  12.878  18.115  0.00  0.00    +0.000 NA
ATOM     10  N   UNL     1       0.345  10.593  18.241  0.00  0.00    +0.000 N 
ATOM     11  H   UNL     1       0.046  10.832  20.525  0.00  0.00    +0.000 HD
ATOM     12  H   UNL     1       0.169  13.687  18.736  0.00  0.00    +0.000 HD
ATOM     13  H   UNL     1       0.313  10.667  17.230  0.00  0.00    +0.000 HD
BRANCH   7  14
ATOM     14  C   UNL     1      -0.621  12.729  20.963  0.00  0.00    +0.000 C 
BRANCH  14  16
ATOM     15  C   UNL     1      -0.650  10.836  22.659  0.00  0.00    +0.000 C 
ATOM     16  C   UNL     1      -1.419  11.996  22.042  0.00  0.00    +0.000 C 
ENDBRANCH  14  16
ENDBRANCH   7  14
ENDBRANCH   1  10
BRANCH   4  17
ATOM     17  C   UNL     1       3.235   5.866  19.785  0.00  0.00    +0.000 C 
BRANCH  17  18
ATOM     18  C   UNL     1       3.962   5.233  18.633  0.00  0.00    +0.000 A 
ATOM     19  C   UNL     1       5.164   5.753  18.166  0.00  0.00    +0.000 A 
ATOM     20  C   UNL     1       5.773   5.184  17.050  0.00  0.00    +0.000 A 
ATOM     21  C   UNL     1       5.174   4.109  16.405  0.00  0.00    +0.000 A 
ATOM     22  N   UNL     1       5.668   3.546  15.230  0.00  0.00    +0.000 N 
ATOM     23  C   UNL     1       6.486   4.126  14.318  0.00  0.00    +0.000 C 
ATOM     24  N   UNL     1       7.285   5.143  14.467  0.00  0.00    +0.000 NA
ATOM     25  C   UNL     1       7.862   5.392  13.126  0.00  0.00    +0.000 C 
ATOM     26  C   UNL     1       7.292   4.324  12.194  0.00  0.00    +0.000 C 
ATOM     27  N   UNL     1       6.446   3.551  13.081  0.00  0.00    +0.000 N 
ATOM     28  N   UNL     1       4.030   3.561  16.874  0.00  0.00    +0.000 NA
ATOM     29  C   UNL     1       3.449   4.134  17.957  0.00  0.00    +0.000 A 
ATOM     30  H   UNL     1       5.083   2.781  14.936  0.00  0.00    +0.000 HD
ATOM     31  H   UNL     1       5.509   3.387  12.731  0.00  0.00    +0.000 HD
ENDBRANCH  17  18
ENDBRANCH   4  17
TORSDOF 5
ENDMDL
