MODEL 1
REMARK VINA RESULT:      -7.4      0.000      0.000
REMARK  Name = 
REMARK  12 active torsions:
REMARK  status: ('A' for Active; 'I' for Inactive)
REMARK    1  A    between atoms: C_1  and  C_2
REMARK    2  A    between atoms: C_2  and  N_3
REMARK    3  A    between atoms: N_3  and  C_4
REMARK    4  A    between atoms: N_3  and  C_6
REMARK    5  A    between atoms: C_4  and  C_5
REMARK    6  A    between atoms: C_6  and  C_7
REMARK    7  A    between atoms: C_7  and  C_8
REMARK    8  A    between atoms: C_8  and  C_9
REMARK    9  A    between atoms: C_9  and  C_10
REMARK   10  A    between atoms: C_9  and  N_11
REMARK   11  A    between atoms: N_11  and  C_12
REMARK   12  A    between atoms: C_12  and  C_13
REMARK                            x       y       z     vdW  Elec       q    Type
REMARK                         _______ _______ _______ _____ _____    ______ ____
ROOT
ATOM      1  C   UNL     1       1.897   7.954  19.553  0.00  0.00    +0.000 A 
ATOM      2  C   UNL     1       2.120   8.460  18.259  0.00  0.00    +0.000 A 
ATOM      3  C   UNL     1       1.595   9.685  17.869  0.00  0.00    +0.000 A 
ATOM      4  C   UNL     1       0.824  10.433  18.760  0.00  0.00    +0.000 A 
ATOM      5  C   UNL     1       0.284  11.664  18.365  0.00  0.00    +0.000 A 
ATOM      6  C   UNL     1      -0.494  12.411  19.250  0.00  0.00    +0.000 A 
ATOM      7  C   UNL     1      -0.745  11.941  20.548  0.00  0.00    +0.000 A 
ATOM      8  C   UNL     1      -1.526  12.681  21.442  0.00  0.00    +0.000 A 
ATOM      9  C   UNL     1      -1.768  12.200  22.732  0.00  0.00    +0.000 A 
ATOM     10  C   UNL     1      -1.232  10.978  23.144  0.00  0.00    +0.000 A 
ATOM     11  C   UNL     1      -0.448  10.220  22.265  0.00  0.00    +0.000 A 
ATOM     12  C   UNL     1       0.089   8.993  22.666  0.00  0.00    +0.000 A 
ATOM     13  C   UNL     1       0.863   8.239  21.783  0.00  0.00    +0.000 A 
ATOM     14  C   UNL     1       1.123   8.700  20.474  0.00  0.00    +0.000 A 
ATOM     15  C   UNL     1       0.585   9.943  20.065  0.00  0.00    +0.000 A 
ATOM     16  C   UNL     1      -0.200  10.701  20.959  0.00  0.00    +0.000 A 
ENDROOT
BRANCH   1  17
ATOM     17  C   UNL     1       2.488   6.618  19.903  0.00  0.00    +0.000 C 
BRANCH  17  18
ATOM     18  N   UNL     1       2.272   5.656  18.811  0.00  0.00    +0.000 NA
ATOM     19  H   UNL     1       1.434   5.935  18.247  0.00  0.00    +0.000 HD
BRANCH  18  20
ATOM     20  C   UNL     1       2.120   4.274  19.299  0.00  0.00    +0.000 C 
ATOM     21  C   UNL     1       0.975   4.234  20.321  0.00  0.00    +0.000 C 
BRANCH  20  22
ATOM     22  C   UNL     1       3.450   3.755  19.916  0.00  0.00    +0.000 C 
BRANCH  22  23
ATOM     23  C   UNL     1       4.621   3.607  18.946  0.00  0.00    +0.000 C 
BRANCH  23  24
ATOM     24  C   UNL     1       5.603   4.790  19.039  0.00  0.00    +0.000 C 
BRANCH  24  25
ATOM     25  N   UNL     1       5.516   5.705  17.878  0.00  0.00    +0.000 NA
BRANCH  25  27
ATOM     26  C   UNL     1       7.812   6.094  18.839  0.00  0.00    +0.000 C 
ATOM     27  C   UNL     1       6.797   6.444  17.749  0.00  0.00    +0.000 C 
ENDBRANCH  25  27
BRANCH  25  28
ATOM     28  C   UNL     1       5.045   5.056  16.628  0.00  0.00    +0.000 C 
ATOM     29  C   UNL     1       5.412   5.812  15.346  0.00  0.00    +0.000 C 
ENDBRANCH  25  28
ENDBRANCH  24  25
ENDBRANCH  23  24
ENDBRANCH  22  23
ENDBRANCH  20  22
ENDBRANCH  18  20
ENDBRANCH  17  18
ENDBRANCH   1  17
TORSDOF 9
ENDMDL
MODEL 2
REMARK VINA RESULT:      -7.2      1.023      1.500
REMARK  Name = 
REMARK  12 active torsions:
REMARK  status: ('A' for Active; 'I' for Inactive)
REMARK    1  A    between atoms: C_1  and  C_2
REMARK    2  A    between atoms: C_2  and  N_3
REMARK    3  A    between atoms: N_3  and  C_4
REMARK    4  A    between atoms: N_3  and  C_6
REMARK    5  A    between atoms: C_4  and  C_5
REMARK    6  A    between atoms: C_6  and  C_7
REMARK    7  A    between atoms: C_7  and  C_8
REMARK    8  A    between atoms: C_8  and  C_9
REMARK    9  A    between atoms: C_9  and  C_10
REMARK   10  A    between atoms: C_9  and  N_11
REMARK   11  A    between atoms: N_11  and  C_12
REMARK   12  A    between atoms: C_12  and  C_13
REMARK                            x       y       z     vdW  Elec       q    Type
REMARK                         _______ _______ _______ _____ _____    ______ ____
ROOT
ATOM      1  C   UNL     1       1.807   8.041  19.731  0.00  0.00    +0.000 A 
ATOM      2  C   UNL     1       1.860   8.382  18.367  0.00  0.00    +0.000 A 
ATOM      3  C   UNL     1       1.153   9.470  17.872  0.00  0.00    +0.000 A 
ATOM      4  C   UNL     1       0.365  10.241  18.728  0.00  0.00    +0.000 A 
ATOM      5  C   UNL     1      -0.359  11.332  18.229  0.00  0.00    +0.000 A 
ATOM      6  C   UNL     1      -1.155  12.101  19.080  0.00  0.00    +0.000 A 
ATOM      7  C   UNL     1      -1.241  11.792  20.446  0.00  0.00    +0.000 A 
ATOM      8  C   UNL     1      -2.038  12.555  21.306  0.00  0.00    +0.000 A 
ATOM      9  C   UNL     1      -2.114  12.235  22.665  0.00  0.00    +0.000 A 
ATOM     10  C   UNL     1      -1.395  11.155  23.180  0.00  0.00    +0.000 A 
ATOM     11  C   UNL     1      -0.591  10.377  22.336  0.00  0.00    +0.000 A 
ATOM     12  C   UNL     1       0.130   9.290  22.841  0.00  0.00    +0.000 A 
ATOM     13  C   UNL     1       0.923   8.515  21.993  0.00  0.00    +0.000 A 
ATOM     14  C   UNL     1       1.018   8.814  20.617  0.00  0.00    +0.000 A 
ATOM     15  C   UNL     1       0.293   9.915  20.102  0.00  0.00    +0.000 A 
ATOM     16  C   UNL     1      -0.510  10.695  20.961  0.00  0.00    +0.000 A 
ENDROOT
BRANCH   1  17
ATOM     17  C   UNL     1       2.590   6.846  20.194  0.00  0.00    +0.000 C 
BRANCH  17  18
ATOM     18  N   UNL     1       2.079   5.619  19.566  0.00  0.00    +0.000 NA
ATOM     19  H   UNL     1       1.513   5.071  20.256  0.00  0.00    +0.000 HD
BRANCH  18  20
ATOM     20  C   UNL     1       3.156   4.779  19.011  0.00  0.00    +0.000 C 
ATOM     21  C   UNL     1       4.491   5.213  19.633  0.00  0.00    +0.000 C 
BRANCH  20  22
ATOM     22  C   UNL     1       3.193   4.879  17.459  0.00  0.00    +0.000 C 
BRANCH  22  23
ATOM     23  C   UNL     1       4.552   4.627  16.808  0.00  0.00    +0.000 C 
BRANCH  23  24
ATOM     24  C   UNL     1       5.111   5.892  16.129  0.00  0.00    +0.000 C 
BRANCH  24  25
ATOM     25  N   UNL     1       6.584   5.863  15.978  0.00  0.00    +0.000 NA
BRANCH  25  27
ATOM     26  C   UNL     1       7.585   7.627  17.472  0.00  0.00    +0.000 C 
ATOM     27  C   UNL     1       7.209   6.155  17.293  0.00  0.00    +0.000 C 
ENDBRANCH  25  27
BRANCH  25  28
ATOM     28  C   UNL     1       7.101   4.645  15.302  0.00  0.00    +0.000 C 
ATOM     29  C   UNL     1       6.632   4.482  13.851  0.00  0.00    +0.000 C 
ENDBRANCH  25  28
ENDBRANCH  24  25
ENDBRANCH  23  24
ENDBRANCH  22  23
ENDBRANCH  20  22
ENDBRANCH  18  20
ENDBRANCH  17  18
ENDBRANCH   1  17
TORSDOF 9
ENDMDL
MODEL 3
REMARK VINA RESULT:      -7.2      1.387      2.912
REMARK  Name = 
REMARK  12 active torsions:
REMARK  status: ('A' for Active; 'I' for Inactive)
REMARK    1  A    between atoms: C_1  and  C_2
REMARK    2  A    between atoms: C_2  and  N_3
REMARK    3  A    between atoms: N_3  and  C_4
REMARK    4  A    between atoms: N_3  and  C_6
REMARK    5  A    between atoms: C_4  and  C_5
REMARK    6  A    between atoms: C_6  and  C_7
REMARK    7  A    between atoms: C_7  and  C_8
REMARK    8  A    between atoms: C_8  and  C_9
REMARK    9  A    between atoms: C_9  and  C_10
REMARK   10  A    between atoms: C_9  and  N_11
REMARK   11  A    between atoms: N_11  and  C_12
REMARK   12  A    between atoms: C_12  and  C_13
REMARK                            x       y       z     vdW  Elec       q    Type
REMARK                         _______ _______ _______ _____ _____    ______ ____
ROOT
ATOM      1  C   UNL     1       1.757   8.249  19.167  0.00  0.00    +0.000 A 
ATOM      2  C   UNL     1       2.237   8.958  18.049  0.00  0.00    +0.000 A 
ATOM      3  C   UNL     1       2.018  10.323  17.919  0.00  0.00    +0.000 A 
ATOM      4  C   UNL     1       1.305  11.015  18.899  0.00  0.00    +0.000 A 
ATOM      5  C   UNL     1       1.073  12.390  18.763  0.00  0.00    +0.000 A 
ATOM      6  C   UNL     1       0.353  13.084  19.737  0.00  0.00    +0.000 A 
ATOM      7  C   UNL     1      -0.148  12.415  20.864  0.00  0.00    +0.000 A 
ATOM      8  C   UNL     1      -0.873  13.102  21.844  0.00  0.00    +0.000 A 
ATOM      9  C   UNL     1      -1.367  12.423  22.961  0.00  0.00    +0.000 A 
ATOM     10  C   UNL     1      -1.139  11.054  23.115  0.00  0.00    +0.000 A 
ATOM     11  C   UNL     1      -0.416  10.346  22.145  0.00  0.00    +0.000 A 
ATOM     12  C   UNL     1      -0.187   8.974  22.287  0.00  0.00    +0.000 A 
ATOM     13  C   UNL     1       0.528   8.274  21.314  0.00  0.00    +0.000 A 
ATOM     14  C   UNL     1       1.036   8.934  20.175  0.00  0.00    +0.000 A 
ATOM     15  C   UNL     1       0.810  10.323  20.029  0.00  0.00    +0.000 A 
ATOM     16  C   UNL     1       0.085  11.027  21.013  0.00  0.00    +0.000 A 
ENDROOT
BRANCH   1  17
ATOM     17  C   UNL     1       2.023   6.773  19.237  0.00  0.00    +0.000 C 
BRANCH  17  18
ATOM     18  N   UNL     1       3.383   6.516  19.736  0.00  0.00    +0.000 NA
ATOM     19  H   UNL     1       3.987   7.357  19.580  0.00  0.00    +0.000 HD
BRANCH  18  20
ATOM     20  C   UNL     1       3.995   5.328  19.115  0.00  0.00    +0.000 C 
ATOM     21  C   UNL     1       5.520   5.503  19.111  0.00  0.00    +0.000 C 
BRANCH  20  22
ATOM     22  C   UNL     1       3.445   5.109  17.677  0.00  0.00    +0.000 C 
BRANCH  22  23
ATOM     23  C   UNL     1       3.271   3.653  17.245  0.00  0.00    +0.000 C 
BRANCH  23  24
ATOM     24  C   UNL     1       1.998   3.021  17.840  0.00  0.00    +0.000 C 
BRANCH  24  25
ATOM     25  N   UNL     1       2.286   2.048  18.918  0.00  0.00    +0.000 NA
BRANCH  25  27
ATOM     26  C   UNL     1       4.507   1.900  20.098  0.00  0.00    +0.000 C 
ATOM     27  C   UNL     1       3.706   1.628  18.823  0.00  0.00    +0.000 C 
ENDBRANCH  25  27
BRANCH  25  28
ATOM     28  C   UNL     1       1.861   2.497  20.269  0.00  0.00    +0.000 C 
ATOM     29  C   UNL     1       0.804   3.608  20.262  0.00  0.00    +0.000 C 
ENDBRANCH  25  28
ENDBRANCH  24  25
ENDBRANCH  23  24
ENDBRANCH  22  23
ENDBRANCH  20  22
ENDBRANCH  18  20
ENDBRANCH  17  18
ENDBRANCH   1  17
TORSDOF 9
ENDMDL
MODEL 4
REMARK VINA RESULT:      -7.2      0.998      1.773
REMARK  Name = 
REMARK  12 active torsions:
REMARK  status: ('A' for Active; 'I' for Inactive)
REMARK    1  A    between atoms: C_1  and  C_2
REMARK    2  A    between atoms: C_2  and  N_3
REMARK    3  A    between atoms: N_3  and  C_4
REMARK    4  A    between atoms: N_3  and  C_6
REMARK    5  A    between atoms: C_4  and  C_5
REMARK    6  A    between atoms: C_6  and  C_7
REMARK    7  A    between atoms: C_7  and  C_8
REMARK    8  A    between atoms: C_8  and  C_9
REMARK    9  A    between atoms: C_9  and  C_10
REMARK   10  A    between atoms: C_9  and  N_11
REMARK   11  A    between atoms: N_11  and  C_12
REMARK   12  A    between atoms: C_12  and  C_13
REMARK                            x       y       z     vdW  Elec       q    Type
REMARK                         _______ _______ _______ _____ _____    ______ ____
ROOT
ATOM      1  C   UNL     1       1.878   8.172  19.443  0.00  0.00    +0.000 A 
ATOM      2  C   UNL     1       1.813   8.562  18.092  0.00  0.00    +0.000 A 
ATOM      3  C   UNL     1       1.009   9.621  17.691  0.00  0.00    +0.000 A 
ATOM      4  C   UNL     1       0.241  10.313  18.628  0.00  0.00    +0.000 A 
ATOM      5  C   UNL     1      -0.580  11.374  18.222  0.00  0.00    +0.000 A 
ATOM      6  C   UNL     1      -1.356  12.062  19.156  0.00  0.00    +0.000 A 
ATOM      7  C   UNL     1      -1.325  11.703  20.511  0.00  0.00    +0.000 A 
ATOM      8  C   UNL     1      -2.102  12.385  21.454  0.00  0.00    +0.000 A 
ATOM      9  C   UNL     1      -2.062  12.016  22.801  0.00  0.00    +0.000 A 
ATOM     10  C   UNL     1      -1.245  10.965  23.223  0.00  0.00    +0.000 A 
ATOM     11  C   UNL     1      -0.460  10.267  22.296  0.00  0.00    +0.000 A 
ATOM     12  C   UNL     1       0.358   9.210  22.707  0.00  0.00    +0.000 A 
ATOM     13  C   UNL     1       1.133   8.514  21.778  0.00  0.00    +0.000 A 
ATOM     14  C   UNL     1       1.110   8.865  20.411  0.00  0.00    +0.000 A 
ATOM     15  C   UNL     1       0.288   9.936  19.990  0.00  0.00    +0.000 A 
ATOM     16  C   UNL     1      -0.496  10.635  20.932  0.00  0.00    +0.000 A 
ENDROOT
BRANCH   1  17
ATOM     17  C   UNL     1       2.761   7.012  19.804  0.00  0.00    +0.000 C 
BRANCH  17  18
ATOM     18  N   UNL     1       2.080   5.739  19.526  0.00  0.00    +0.000 NA
ATOM     19  H   UNL     1       2.175   5.094  20.347  0.00  0.00    +0.000 HD
BRANCH  18  20
ATOM     20  C   UNL     1       2.585   5.085  18.306  0.00  0.00    +0.000 C 
ATOM     21  C   UNL     1       1.456   4.246  17.691  0.00  0.00    +0.000 C 
BRANCH  20  22
ATOM     22  C   UNL     1       3.834   4.213  18.620  0.00  0.00    +0.000 C 
BRANCH  22  23
ATOM     23  C   UNL     1       4.554   3.620  17.409  0.00  0.00    +0.000 C 
BRANCH  23  24
ATOM     24  C   UNL     1       4.996   4.706  16.410  0.00  0.00    +0.000 C 
BRANCH  24  25
ATOM     25  N   UNL     1       6.458   4.942  16.424  0.00  0.00    +0.000 NA
BRANCH  25  27
ATOM     26  C   UNL     1       5.947   4.174  14.079  0.00  0.00    +0.000 C 
ATOM     27  C   UNL     1       7.004   4.664  15.072  0.00  0.00    +0.000 C 
ENDBRANCH  25  27
BRANCH  25  28
ATOM     28  C   UNL     1       6.855   6.254  16.996  0.00  0.00    +0.000 C 
ATOM     29  C   UNL     1       7.548   6.164  18.361  0.00  0.00    +0.000 C 
ENDBRANCH  25  28
ENDBRANCH  24  25
ENDBRANCH  23  24
ENDBRANCH  22  23
ENDBRANCH  20  22
ENDBRANCH  18  20
ENDBRANCH  17  18
ENDBRANCH   1  17
TORSDOF 9
ENDMDL
MODEL 5
REMARK VINA RESULT:      -7.2      0.882      1.263
REMARK  Name = 
REMARK  12 active torsions:
REMARK  status: ('A' for Active; 'I' for Inactive)
REMARK    1  A    between atoms: C_1  and  C_2
REMARK    2  A    between atoms: C_2  and  N_3
REMARK    3  A    between atoms: N_3  and  C_4
REMARK    4  A    between atoms: N_3  and  C_6
REMARK    5  A    between atoms: C_4  and  C_5
REMARK    6  A    between atoms: C_6  and  C_7
REMARK    7  A    between atoms: C_7  and  C_8
REMARK    8  A    between atoms: C_8  and  C_9
REMARK    9  A    between atoms: C_9  and  C_10
REMARK   10  A    between atoms: C_9  and  N_11
REMARK   11  A    between atoms: N_11  and  C_12
REMARK   12  A    between atoms: C_12  and  C_13
REMARK                            x       y       z     vdW  Elec       q    Type
REMARK                         _______ _______ _______ _____ _____    ______ ____
ROOT
ATOM      1  C   UNL     1       1.792   8.246  19.430  0.00  0.00    +0.000 A 
ATOM      2  C   UNL     1       1.871   8.770  18.126  0.00  0.00    +0.000 A 
ATOM      3  C   UNL     1       1.210   9.942  17.785  0.00  0.00    +0.000 A 
ATOM      4  C   UNL     1       0.444  10.618  18.736  0.00  0.00    +0.000 A 
ATOM      5  C   UNL     1      -0.233  11.795  18.390  0.00  0.00    +0.000 A 
ATOM      6  C   UNL     1      -1.007  12.468  19.336  0.00  0.00    +0.000 A 
ATOM      7  C   UNL     1      -1.117  11.977  20.645  0.00  0.00    +0.000 A 
ATOM      8  C   UNL     1      -1.893  12.644  21.600  0.00  0.00    +0.000 A 
ATOM      9  C   UNL     1      -1.993  12.143  22.901  0.00  0.00    +0.000 A 
ATOM     10  C   UNL     1      -1.320  10.975  23.264  0.00  0.00    +0.000 A 
ATOM     11  C   UNL     1      -0.539  10.291  22.324  0.00  0.00    +0.000 A 
ATOM     12  C   UNL     1       0.135   9.117  22.676  0.00  0.00    +0.000 A 
ATOM     13  C   UNL     1       0.907   8.436  21.733  0.00  0.00    +0.000 A 
ATOM     14  C   UNL     1       1.025   8.919  20.411  0.00  0.00    +0.000 A 
ATOM     15  C   UNL     1       0.348  10.108  20.051  0.00  0.00    +0.000 A 
ATOM     16  C   UNL     1      -0.433  10.792  21.007  0.00  0.00    +0.000 A 
ENDROOT
BRANCH   1  17
ATOM     17  C   UNL     1       2.526   6.969  19.726  0.00  0.00    +0.000 C 
BRANCH  17  18
ATOM     18  N   UNL     1       2.404   6.030  18.599  0.00  0.00    +0.000 NA
ATOM     19  H   UNL     1       2.046   6.532  17.752  0.00  0.00    +0.000 HD
BRANCH  18  20
ATOM     20  C   UNL     1       1.537   4.881  18.915  0.00  0.00    +0.000 C 
ATOM     21  C   UNL     1       1.903   4.354  20.309  0.00  0.00    +0.000 C 
BRANCH  20  22
ATOM     22  C   UNL     1       1.672   3.772  17.834  0.00  0.00    +0.000 C 
BRANCH  22  23
ATOM     23  C   UNL     1       2.644   2.638  18.161  0.00  0.00    +0.000 C 
BRANCH  23  24
ATOM     24  C   UNL     1       4.021   2.849  17.504  0.00  0.00    +0.000 C 
BRANCH  24  25
ATOM     25  N   UNL     1       4.572   4.203  17.742  0.00  0.00    +0.000 NA
BRANCH  25  27
ATOM     26  C   UNL     1       6.282   5.422  19.134  0.00  0.00    +0.000 C 
ATOM     27  C   UNL     1       5.413   4.174  18.965  0.00  0.00    +0.000 C 
ENDBRANCH  25  27
BRANCH  25  28
ATOM     28  C   UNL     1       5.226   4.809  16.554  0.00  0.00    +0.000 C 
ATOM     29  C   UNL     1       5.867   3.795  15.599  0.00  0.00    +0.000 C 
ENDBRANCH  25  28
ENDBRANCH  24  25
ENDBRANCH  23  24
ENDBRANCH  22  23
ENDBRANCH  20  22
ENDBRANCH  18  20
ENDBRANCH  17  18
ENDBRANCH   1  17
TORSDOF 9
ENDMDL
MODEL 6
REMARK VINA RESULT:      -7.2      4.314      7.557
REMARK  Name = 
REMARK  12 active torsions:
REMARK  status: ('A' for Active; 'I' for Inactive)
REMARK    1  A    between atoms: C_1  and  C_2
REMARK    2  A    between atoms: C_2  and  N_3
REMARK    3  A    between atoms: N_3  and  C_4
REMARK    4  A    between atoms: N_3  and  C_6
REMARK    5  A    between atoms: C_4  and  C_5
REMARK    6  A    between atoms: C_6  and  C_7
REMARK    7  A    between atoms: C_7  and  C_8
REMARK    8  A    between atoms: C_8  and  C_9
REMARK    9  A    between atoms: C_9  and  C_10
REMARK   10  A    between atoms: C_9  and  N_11
REMARK   11  A    between atoms: N_11  and  C_12
REMARK   12  A    between atoms: C_12  and  C_13
REMARK                            x       y       z     vdW  Elec       q    Type
REMARK                         _______ _______ _______ _____ _____    ______ ____
ROOT
ATOM      1  C   UNL     1       5.347   5.836  16.842  0.00  0.00    +0.000 A 
ATOM      2  C   UNL     1       5.778   4.757  16.049  0.00  0.00    +0.000 A 
ATOM      3  C   UNL     1       5.201   3.500  16.174  0.00  0.00    +0.000 A 
ATOM      4  C   UNL     1       4.182   3.286  17.103  0.00  0.00    +0.000 A 
ATOM      5  C   UNL     1       3.607   2.016  17.239  0.00  0.00    +0.000 A 
ATOM      6  C   UNL     1       2.594   1.796  18.174  0.00  0.00    +0.000 A 
ATOM      7  C   UNL     1       2.138   2.843  18.988  0.00  0.00    +0.000 A 
ATOM      8  C   UNL     1       1.124   2.631  19.930  0.00  0.00    +0.000 A 
ATOM      9  C   UNL     1       0.680   3.684  20.736  0.00  0.00    +0.000 A 
ATOM     10  C   UNL     1       1.239   4.957  20.609  0.00  0.00    +0.000 A 
ATOM     11  C   UNL     1       2.255   5.191  19.674  0.00  0.00    +0.000 A 
ATOM     12  C   UNL     1       2.824   6.461  19.542  0.00  0.00    +0.000 A 
ATOM     13  C   UNL     1       3.841   6.686  18.613  0.00  0.00    +0.000 A 
ATOM     14  C   UNL     1       4.310   5.642  17.788  0.00  0.00    +0.000 A 
ATOM     15  C   UNL     1       3.735   4.355  17.914  0.00  0.00    +0.000 A 
ATOM     16  C   UNL     1       2.709   4.131  18.856  0.00  0.00    +0.000 A 
ENDROOT
BRANCH   1  17
ATOM     17  C   UNL     1       6.023   7.165  16.660  0.00  0.00    +0.000 C 
BRANCH  17  18
ATOM     18  N   UNL     1       7.479   6.992  16.543  0.00  0.00    +0.000 NA
ATOM     19  H   UNL     1       7.712   5.976  16.438  0.00  0.00    +0.000 HD
BRANCH  18  20
ATOM     20  C   UNL     1       8.208   7.566  17.687  0.00  0.00    +0.000 C 
ATOM     21  C   UNL     1       7.995   6.665  18.912  0.00  0.00    +0.000 C 
BRANCH  20  22
ATOM     22  C   UNL     1       7.742   9.023  17.966  0.00  0.00    +0.000 C 
BRANCH  22  23
ATOM     23  C   UNL     1       8.850  10.073  18.052  0.00  0.00    +0.000 C 
BRANCH  23  24
ATOM     24  C   UNL     1       9.238  10.386  19.509  0.00  0.00    +0.000 C 
BRANCH  24  25
ATOM     25  N   UNL     1       9.502  11.825  19.740  0.00  0.00    +0.000 NA
BRANCH  25  27
ATOM     26  C   UNL     1      12.009  12.013  19.901  0.00  0.00    +0.000 C 
ATOM     27  C   UNL     1      10.671  11.963  20.643  0.00  0.00    +0.000 C 
ENDBRANCH  25  27
BRANCH  25  28
ATOM     28  C   UNL     1       9.579  12.634  18.496  0.00  0.00    +0.000 C 
ATOM     29  C   UNL     1       8.503  13.720  18.380  0.00  0.00    +0.000 C 
ENDBRANCH  25  28
ENDBRANCH  24  25
ENDBRANCH  23  24
ENDBRANCH  22  23
ENDBRANCH  20  22
ENDBRANCH  18  20
ENDBRANCH  17  18
ENDBRANCH   1  17
TORSDOF 9
ENDMDL
MODEL 7
REMARK VINA RESULT:      -7.1      1.309      3.874
REMARK  Name = 
REMARK  12 active torsions:
REMARK  status: ('A' for Active; 'I' for Inactive)
REMARK    1  A    between atoms: C_1  and  C_2
REMARK    2  A    between atoms: C_2  and  N_3
REMARK    3  A    between atoms: N_3  and  C_4
REMARK    4  A    between atoms: N_3  and  C_6
REMARK    5  A    between atoms: C_4  and  C_5
REMARK    6  A    between atoms: C_6  and  C_7
REMARK    7  A    between atoms: C_7  and  C_8
REMARK    8  A    between atoms: C_8  and  C_9
REMARK    9  A    between atoms: C_9  and  C_10
REMARK   10  A    between atoms: C_9  and  N_11
REMARK   11  A    between atoms: N_11  and  C_12
REMARK   12  A    between atoms: C_12  and  C_13
REMARK                            x       y       z     vdW  Elec       q    Type
REMARK                         _______ _______ _______ _____ _____    ______ ____
ROOT
ATOM      1  C   UNL     1       2.454   7.216  18.853  0.00  0.00    +0.000 A 
ATOM      2  C   UNL     1       2.211   6.361  19.944  0.00  0.00    +0.000 A 
ATOM      3  C   UNL     1       1.490   6.796  21.048  0.00  0.00    +0.000 A 
ATOM      4  C   UNL     1       0.999   8.101  21.095  0.00  0.00    +0.000 A 
ATOM      5  C   UNL     1       0.281   8.546  22.213  0.00  0.00    +0.000 A 
ATOM      6  C   UNL     1      -0.204   9.853  22.267  0.00  0.00    +0.000 A 
ATOM      7  C   UNL     1       0.021  10.740  21.203  0.00  0.00    +0.000 A 
ATOM      8  C   UNL     1      -0.459  12.054  21.250  0.00  0.00    +0.000 A 
ATOM      9  C   UNL     1      -0.227  12.927  20.183  0.00  0.00    +0.000 A 
ATOM     10  C   UNL     1       0.481  12.498  19.059  0.00  0.00    +0.000 A 
ATOM     11  C   UNL     1       0.971  11.188  18.992  0.00  0.00    +0.000 A 
ATOM     12  C   UNL     1       1.686  10.750  17.872  0.00  0.00    +0.000 A 
ATOM     13  C   UNL     1       2.178   9.445  17.815  0.00  0.00    +0.000 A 
ATOM     14  C   UNL     1       1.960   8.543  18.878  0.00  0.00    +0.000 A 
ATOM     15  C   UNL     1       1.234   8.980  20.011  0.00  0.00    +0.000 A 
ATOM     16  C   UNL     1       0.741  10.300  20.067  0.00  0.00    +0.000 A 
ENDROOT
BRANCH   1  17
ATOM     17  C   UNL     1       3.250   6.681  17.697  0.00  0.00    +0.000 C 
BRANCH  17  18
ATOM     18  N   UNL     1       4.691   6.833  17.948  0.00  0.00    +0.000 NA
ATOM     19  H   UNL     1       5.092   7.560  17.309  0.00  0.00    +0.000 HD
BRANCH  18  20
ATOM     20  C   UNL     1       5.425   5.564  17.799  0.00  0.00    +0.000 C 
ATOM     21  C   UNL     1       4.901   4.833  16.556  0.00  0.00    +0.000 C 
BRANCH  20  22
ATOM     22  C   UNL     1       5.282   4.688  19.076  0.00  0.00    +0.000 C 
BRANCH  22  23
ATOM     23  C   UNL     1       4.781   3.261  18.852  0.00  0.00    +0.000 C 
BRANCH  23  24
ATOM     24  C   UNL     1       3.812   2.808  19.960  0.00  0.00    +0.000 C 
BRANCH  24  25
ATOM     25  N   UNL     1       2.551   2.241  19.428  0.00  0.00    +0.000 NA
BRANCH  25  27
ATOM     26  C   UNL     1       1.898   3.078  21.713  0.00  0.00    +0.000 C 
ATOM     27  C   UNL     1       1.434   2.619  20.328  0.00  0.00    +0.000 C 
ENDBRANCH  25  27
BRANCH  25  28
ATOM     28  C   UNL     1       2.315   2.532  17.990  0.00  0.00    +0.000 C 
ATOM     29  C   UNL     1       1.366   3.708  17.731  0.00  0.00    +0.000 C 
ENDBRANCH  25  28
ENDBRANCH  24  25
ENDBRANCH  23  24
ENDBRANCH  22  23
ENDBRANCH  20  22
ENDBRANCH  18  20
ENDBRANCH  17  18
ENDBRANCH   1  17
TORSDOF 9
ENDMDL
MODEL 8
REMARK VINA RESULT:      -7.1      1.152      3.812
REMARK  Name = 
REMARK  12 active torsions:
REMARK  status: ('A' for Active; 'I' for Inactive)
REMARK    1  A    between atoms: C_1  and  C_2
REMARK    2  A    between atoms: C_2  and  N_3
REMARK    3  A    between atoms: N_3  and  C_4
REMARK    4  A    between atoms: N_3  and  C_6
REMARK    5  A    between atoms: C_4  and  C_5
REMARK    6  A    between atoms: C_6  and  C_7
REMARK    7  A    between atoms: C_7  and  C_8
REMARK    8  A    between atoms: C_8  and  C_9
REMARK    9  A    between atoms: C_9  and  C_10
REMARK   10  A    between atoms: C_9  and  N_11
REMARK   11  A    between atoms: N_11  and  C_12
REMARK   12  A    between atoms: C_12  and  C_13
REMARK                            x       y       z     vdW  Elec       q    Type
REMARK                         _______ _______ _______ _____ _____    ______ ____
ROOT
ATOM      1  C   UNL     1       2.126   8.255  18.985  0.00  0.00    +0.000 A 
ATOM      2  C   UNL     1       2.055   7.217  19.932  0.00  0.00    +0.000 A 
ATOM      3  C   UNL     1       1.356   7.379  21.122  0.00  0.00    +0.000 A 
ATOM      4  C   UNL     1       0.717   8.587  21.400  0.00  0.00    +0.000 A 
ATOM      5  C   UNL     1       0.021   8.757  22.604  0.00  0.00    +0.000 A 
ATOM      6  C   UNL     1      -0.613   9.967  22.889  0.00  0.00    +0.000 A 
ATOM      7  C   UNL     1      -0.562  11.030  21.974  0.00  0.00    +0.000 A 
ATOM      8  C   UNL     1      -1.192  12.248  22.253  0.00  0.00    +0.000 A 
ATOM      9  C   UNL     1      -1.134  13.298  21.332  0.00  0.00    +0.000 A 
ATOM     10  C   UNL     1      -0.450  13.144  20.124  0.00  0.00    +0.000 A 
ATOM     11  C   UNL     1       0.189  11.933  19.826  0.00  0.00    +0.000 A 
ATOM     12  C   UNL     1       0.880  11.770  18.622  0.00  0.00    +0.000 A 
ATOM     13  C   UNL     1       1.520  10.564  18.333  0.00  0.00    +0.000 A 
ATOM     14  C   UNL     1       1.479   9.487  19.245  0.00  0.00    +0.000 A 
ATOM     15  C   UNL     1       0.777   9.646  20.463  0.00  0.00    +0.000 A 
ATOM     16  C   UNL     1       0.134  10.868  20.752  0.00  0.00    +0.000 A 
ENDROOT
BRANCH   1  17
ATOM     17  C   UNL     1       2.907   8.012  17.725  0.00  0.00    +0.000 C 
BRANCH  17  18
ATOM     18  N   UNL     1       3.631   6.734  17.804  0.00  0.00    +0.000 NA
ATOM     19  H   UNL     1       3.632   6.383  18.791  0.00  0.00    +0.000 HD
BRANCH  18  20
ATOM     20  C   UNL     1       5.012   6.838  17.300  0.00  0.00    +0.000 C 
ATOM     21  C   UNL     1       5.017   6.506  15.801  0.00  0.00    +0.000 C 
BRANCH  20  22
ATOM     22  C   UNL     1       5.963   5.898  18.094  0.00  0.00    +0.000 C 
BRANCH  22  23
ATOM     23  C   UNL     1       5.356   5.214  19.318  0.00  0.00    +0.000 C 
BRANCH  23  24
ATOM     24  C   UNL     1       4.806   3.814  18.986  0.00  0.00    +0.000 C 
BRANCH  24  25
ATOM     25  N   UNL     1       3.369   3.665  19.315  0.00  0.00    +0.000 NA
BRANCH  25  27
ATOM     26  C   UNL     1       1.431   4.085  17.762  0.00  0.00    +0.000 C 
ATOM     27  C   UNL     1       2.641   3.212  18.104  0.00  0.00    +0.000 C 
ENDBRANCH  25  27
BRANCH  25  28
ATOM     28  C   UNL     1       3.108   2.859  20.535  0.00  0.00    +0.000 C 
ATOM     29  C   UNL     1       2.069   3.468  21.484  0.00  0.00    +0.000 C 
ENDBRANCH  25  28
ENDBRANCH  24  25
ENDBRANCH  23  24
ENDBRANCH  22  23
ENDBRANCH  20  22
ENDBRANCH  18  20
ENDBRANCH  17  18
ENDBRANCH   1  17
TORSDOF 9
ENDMDL
MODEL 9
REMARK VINA RESULT:      -7.1      1.143      1.979
REMARK  Name = 
REMARK  12 active torsions:
REMARK  status: ('A' for Active; 'I' for Inactive)
REMARK    1  A    between atoms: C_1  and  C_2
REMARK    2  A    between atoms: C_2  and  N_3
REMARK    3  A    between atoms: N_3  and  C_4
REMARK    4  A    between atoms: N_3  and  C_6
REMARK    5  A    between atoms: C_4  and  C_5
REMARK    6  A    between atoms: C_6  and  C_7
REMARK    7  A    between atoms: C_7  and  C_8
REMARK    8  A    between atoms: C_8  and  C_9
REMARK    9  A    between atoms: C_9  and  C_10
REMARK   10  A    between atoms: C_9  and  N_11
REMARK   11  A    between atoms: N_11  and  C_12
REMARK   12  A    between atoms: C_12  and  C_13
REMARK                            x       y       z     vdW  Elec       q    Type
REMARK                         _______ _______ _______ _____ _____    ______ ____
ROOT
ATOM      1  C   UNL     1       1.924   6.751  20.042  0.00  0.00    +0.000 A 
ATOM      2  C   UNL     1       2.556   6.838  18.787  0.00  0.00    +0.000 A 
ATOM      3  C   UNL     1       2.583   8.034  18.081  0.00  0.00    +0.000 A 
ATOM      4  C   UNL     1       1.970   9.172  18.606  0.00  0.00    +0.000 A 
ATOM      5  C   UNL     1       1.985  10.376  17.890  0.00  0.00    +0.000 A 
ATOM      6  C   UNL     1       1.366  11.514  18.408  0.00  0.00    +0.000 A 
ATOM      7  C   UNL     1       0.720  11.469  19.652  0.00  0.00    +0.000 A 
ATOM      8  C   UNL     1       0.094  12.604  20.179  0.00  0.00    +0.000 A 
ATOM      9  C   UNL     1      -0.546  12.544  21.420  0.00  0.00    +0.000 A 
ATOM     10  C   UNL     1      -0.566  11.354  22.150  0.00  0.00    +0.000 A 
ATOM     11  C   UNL     1       0.054  10.205  21.641  0.00  0.00    +0.000 A 
ATOM     12  C   UNL     1       0.036   9.007  22.362  0.00  0.00    +0.000 A 
ATOM     13  C   UNL     1       0.649   7.864  21.846  0.00  0.00    +0.000 A 
ATOM     14  C   UNL     1       1.301   7.895  20.595  0.00  0.00    +0.000 A 
ATOM     15  C   UNL     1       1.326   9.106  19.864  0.00  0.00    +0.000 A 
ATOM     16  C   UNL     1       0.702  10.259  20.387  0.00  0.00    +0.000 A 
ENDROOT
BRANCH   1  17
ATOM     17  C   UNL     1       1.926   5.423  20.745  0.00  0.00    +0.000 C 
BRANCH  17  18
ATOM     18  N   UNL     1       1.203   4.418  19.951  0.00  0.00    +0.000 NA
ATOM     19  H   UNL     1       0.175   4.485  20.138  0.00  0.00    +0.000 HD
BRANCH  18  20
ATOM     20  C   UNL     1       1.679   3.047  20.211  0.00  0.00    +0.000 C 
ATOM     21  C   UNL     1       2.401   3.023  21.565  0.00  0.00    +0.000 C 
BRANCH  20  22
ATOM     22  C   UNL     1       2.607   2.557  19.063  0.00  0.00    +0.000 C 
BRANCH  22  23
ATOM     23  C   UNL     1       4.092   2.883  19.222  0.00  0.00    +0.000 C 
BRANCH  23  24
ATOM     24  C   UNL     1       4.555   3.968  18.231  0.00  0.00    +0.000 C 
BRANCH  24  25
ATOM     25  N   UNL     1       6.005   4.253  18.323  0.00  0.00    +0.000 NA
BRANCH  25  27
ATOM     26  C   UNL     1       5.492   4.915  15.947  0.00  0.00    +0.000 C 
ATOM     27  C   UNL     1       6.546   4.450  16.955  0.00  0.00    +0.000 C 
ENDBRANCH  25  27
BRANCH  25  28
ATOM     28  C   UNL     1       6.352   5.327  19.289  0.00  0.00    +0.000 C 
ATOM     29  C   UNL     1       7.801   5.820  19.192  0.00  0.00    +0.000 C 
ENDBRANCH  25  28
ENDBRANCH  24  25
ENDBRANCH  23  24
ENDBRANCH  22  23
ENDBRANCH  20  22
ENDBRANCH  18  20
ENDBRANCH  17  18
ENDBRANCH   1  17
TORSDOF 9
ENDMDL
