MODEL 1
REMARK VINA RESULT:      -7.9      0.000      0.000
REMARK  Name = 
REMARK  6 active torsions:
REMARK  status: ('A' for Active; 'I' for Inactive)
REMARK    1  A    between atoms: C_1  and  C_2
REMARK    2  A    between atoms: C_2  and  C_3
REMARK    3  A    between atoms: C_9  and  S_10
REMARK    4  A    between atoms: S_10  and  C_11
REMARK    5  A    between atoms: C_11  and  C_12
REMARK    6  A    between atoms: N_14  and  C_15
REMARK                            x       y       z     vdW  Elec       q    Type
REMARK                         _______ _______ _______ _____ _____    ______ ____
ROOT
ATOM      1  C   UNL     1       3.405   4.065  17.647  0.00  0.00    +0.000 C 
ATOM      2  O   UNL     1       2.221   3.776  17.489  0.00  0.00    +0.000 OA
ATOM      3  N   UNL     1       3.889   5.271  18.143  0.00  0.00    +0.000 N 
ATOM      4  H   UNL     1       4.881   5.451  18.037  0.00  0.00    +0.000 HD
ENDROOT
BRANCH   3   5
ATOM      5  C   UNL     1       3.108   6.334  18.654  0.00  0.00    +0.000 A 
ATOM      6  C   UNL     1       2.525   6.304  19.925  0.00  0.00    +0.000 A 
ATOM      7  C   UNL     1       1.767   7.376  20.397  0.00  0.00    +0.000 A 
ATOM      8  C   UNL     1       1.579   8.498  19.600  0.00  0.00    +0.000 A 
ATOM      9  C   UNL     1       2.172   8.558  18.337  0.00  0.00    +0.000 A 
ATOM     10  C   UNL     1       2.931   7.479  17.862  0.00  0.00    +0.000 A 
ATOM     11  O   UNL     1       2.038   9.643  17.505  0.00  0.00    +0.000 OA
ATOM     12  C   UNL     1       1.563  10.794  18.217  0.00  0.00    +0.000 C 
ATOM     13  C   UNL     1       0.405  10.438  19.135  0.00  0.00    +0.000 C 
ATOM     14  O   UNL     1       0.815   9.502  20.134  0.00  0.00    +0.000 OA
ENDBRANCH   3   5
BRANCH   1  15
ATOM     15  C   UNL     1       4.485   3.072  17.256  0.00  0.00    +0.000 C 
BRANCH  15  16
ATOM     16  S   UNL     1       5.638   3.886  16.128  0.00  0.00    +0.000 S 
BRANCH  16  23
ATOM     17  C   UNL     1       8.347   8.864  18.333  0.00  0.00    +0.000 C 
ATOM     18  O   UNL     1       7.634   9.181  17.387  0.00  0.00    +0.000 OA
ATOM     19  N   UNL     1       8.460   7.600  18.882  0.00  0.00    +0.000 N 
ATOM     20  C   UNL     1       7.820   6.478  18.412  0.00  0.00    +0.000 A 
ATOM     21  N   UNL     1       7.734   5.356  19.097  0.00  0.00    +0.000 NA
ATOM     22  N   UNL     1       6.998   4.393  18.420  0.00  0.00    +0.000 NA
ATOM     23  C   UNL     1       6.613   4.817  17.236  0.00  0.00    +0.000 A 
ATOM     24  S   UNL     1       7.130   6.399  16.856  0.00  0.00    +0.000 S 
ATOM     25  H   UNL     1       8.917   7.483  19.778  0.00  0.00    +0.000 HD
BRANCH  17  27
ATOM     26  C   UNL     1       9.606  11.025  18.109  0.00  0.00    +0.000 C 
ATOM     27  C   UNL     1       9.216   9.890  19.043  0.00  0.00    +0.000 C 
ENDBRANCH  17  27
ENDBRANCH  16  23
ENDBRANCH  15  16
ENDBRANCH   1  15
TORSDOF 5
ENDMDL
MODEL 2
REMARK VINA RESULT:      -7.8      3.309      7.958
REMARK  Name = 
REMARK  6 active torsions:
REMARK  status: ('A' for Active; 'I' for Inactive)
REMARK    1  A    between atoms: C_1  and  C_2
REMARK    2  A    between atoms: C_2  and  C_3
REMARK    3  A    between atoms: C_9  and  S_10
REMARK    4  A    between atoms: S_10  and  C_11
REMARK    5  A    between atoms: C_11  and  C_12
REMARK    6  A    between atoms: N_14  and  C_15
REMARK                            x       y       z     vdW  Elec       q    Type
REMARK                         _______ _______ _______ _____ _____    ______ ____
ROOT
ATOM      1  C   UNL     1       8.294   8.711  18.324  0.00  0.00    +0.000 C 
ATOM      2  O   UNL     1       7.706   9.373  17.473  0.00  0.00    +0.000 OA
ATOM      3  N   UNL     1       9.185   9.208  19.269  0.00  0.00    +0.000 N 
ATOM      4  H   UNL     1       9.745   8.533  19.778  0.00  0.00    +0.000 HD
ENDROOT
BRANCH   3   5
ATOM      5  C   UNL     1       9.490  10.572  19.490  0.00  0.00    +0.000 A 
ATOM      6  C   UNL     1       9.391  11.176  20.748  0.00  0.00    +0.000 A 
ATOM      7  C   UNL     1       9.707  12.524  20.927  0.00  0.00    +0.000 A 
ATOM      8  C   UNL     1      10.126  13.289  19.847  0.00  0.00    +0.000 A 
ATOM      9  C   UNL     1      10.253  12.699  18.587  0.00  0.00    +0.000 A 
ATOM     10  C   UNL     1       9.932  11.346  18.406  0.00  0.00    +0.000 A 
ATOM     11  O   UNL     1      10.676  13.394  17.481  0.00  0.00    +0.000 OA
ATOM     12  C   UNL     1      11.303  14.631  17.847  0.00  0.00    +0.000 C 
ATOM     13  C   UNL     1      10.496  15.370  18.903  0.00  0.00    +0.000 C 
ATOM     14  O   UNL     1      10.408  14.604  20.106  0.00  0.00    +0.000 OA
ENDBRANCH   3   5
BRANCH   1  15
ATOM     15  C   UNL     1       8.097   7.206  18.383  0.00  0.00    +0.000 C 
BRANCH  15  16
ATOM     16  S   UNL     1       6.761   6.752  17.254  0.00  0.00    +0.000 S 
BRANCH  16  23
ATOM     17  C   UNL     1       1.915   3.718  19.324  0.00  0.00    +0.000 C 
ATOM     18  O   UNL     1       1.555   4.497  18.450  0.00  0.00    +0.000 OA
ATOM     19  N   UNL     1       3.217   3.486  19.727  0.00  0.00    +0.000 N 
ATOM     20  C   UNL     1       4.321   4.141  19.235  0.00  0.00    +0.000 A 
ATOM     21  N   UNL     1       5.555   3.727  19.436  0.00  0.00    +0.000 NA
ATOM     22  N   UNL     1       6.482   4.537  18.796  0.00  0.00    +0.000 NA
ATOM     23  C   UNL     1       5.906   5.553  18.190  0.00  0.00    +0.000 A 
ATOM     24  S   UNL     1       4.210   5.605  18.370  0.00  0.00    +0.000 S 
ATOM     25  H   UNL     1       3.425   2.686  20.311  0.00  0.00    +0.000 HD
BRANCH  17  27
ATOM     26  C   UNL     1       1.315   2.709  21.545  0.00  0.00    +0.000 C 
ATOM     27  C   UNL     1       0.908   2.873  20.088  0.00  0.00    +0.000 C 
ENDBRANCH  17  27
ENDBRANCH  16  23
ENDBRANCH  15  16
ENDBRANCH   1  15
TORSDOF 5
ENDMDL
MODEL 3
REMARK VINA RESULT:      -7.7      2.001      2.955
REMARK  Name = 
REMARK  6 active torsions:
REMARK  status: ('A' for Active; 'I' for Inactive)
REMARK    1  A    between atoms: C_1  and  C_2
REMARK    2  A    between atoms: C_2  and  C_3
REMARK    3  A    between atoms: C_9  and  S_10
REMARK    4  A    between atoms: S_10  and  C_11
REMARK    5  A    between atoms: C_11  and  C_12
REMARK    6  A    between atoms: N_14  and  C_15
REMARK                            x       y       z     vdW  Elec       q    Type
REMARK                         _______ _______ _______ _____ _____    ______ ____
ROOT
ATOM      1  C   UNL     1       1.964   4.741  20.395  0.00  0.00    +0.000 C 
ATOM      2  O   UNL     1       0.852   4.532  19.916  0.00  0.00    +0.000 OA
ATOM      3  N   UNL     1       2.623   5.966  20.419  0.00  0.00    +0.000 N 
ATOM      4  H   UNL     1       3.608   5.957  20.662  0.00  0.00    +0.000 HD
ENDROOT
BRANCH   3   5
ATOM      5  C   UNL     1       2.090   7.207  19.998  0.00  0.00    +0.000 A 
ATOM      6  C   UNL     1       2.272   7.711  18.707  0.00  0.00    +0.000 A 
ATOM      7  C   UNL     1       1.724   8.938  18.328  0.00  0.00    +0.000 A 
ATOM      8  C   UNL     1       0.985   9.680  19.238  0.00  0.00    +0.000 A 
ATOM      9  C   UNL     1       0.771   9.184  20.527  0.00  0.00    +0.000 A 
ATOM     10  C   UNL     1       1.324   7.953  20.909  0.00  0.00    +0.000 A 
ATOM     11  O   UNL     1       0.037   9.859  21.470  0.00  0.00    +0.000 OA
ATOM     12  C   UNL     1      -0.757  10.895  20.875  0.00  0.00    +0.000 C 
ATOM     13  C   UNL     1       0.049  11.702  19.869  0.00  0.00    +0.000 C 
ATOM     14  O   UNL     1       0.490  10.875  18.789  0.00  0.00    +0.000 OA
ENDBRANCH   3   5
BRANCH   1  15
ATOM     15  C   UNL     1       2.755   3.595  21.000  0.00  0.00    +0.000 C 
BRANCH  15  16
ATOM     16  S   UNL     1       3.632   2.733  19.675  0.00  0.00    +0.000 S 
BRANCH  16  23
ATOM     17  C   UNL     1       7.484   7.122  17.980  0.00  0.00    +0.000 C 
ATOM     18  O   UNL     1       8.003   6.453  18.865  0.00  0.00    +0.000 OA
ATOM     19  N   UNL     1       6.259   6.880  17.385  0.00  0.00    +0.000 N 
ATOM     20  C   UNL     1       5.401   5.865  17.738  0.00  0.00    +0.000 A 
ATOM     21  N   UNL     1       4.377   5.496  16.996  0.00  0.00    +0.000 NA
ATOM     22  N   UNL     1       3.698   4.421  17.552  0.00  0.00    +0.000 NA
ATOM     23  C   UNL     1       4.208   4.068  18.712  0.00  0.00    +0.000 A 
ATOM     24  S   UNL     1       5.530   5.024  19.214  0.00  0.00    +0.000 S 
ATOM     25  H   UNL     1       6.011   7.367  16.534  0.00  0.00    +0.000 HD
BRANCH  17  27
ATOM     26  C   UNL     1       8.579   9.320  18.504  0.00  0.00    +0.000 C 
ATOM     27  C   UNL     1       8.179   8.346  17.406  0.00  0.00    +0.000 C 
ENDBRANCH  17  27
ENDBRANCH  16  23
ENDBRANCH  15  16
ENDBRANCH   1  15
TORSDOF 5
ENDMDL
MODEL 4
REMARK VINA RESULT:      -7.6      2.960      7.643
REMARK  Name = 
REMARK  6 active torsions:
REMARK  status: ('A' for Active; 'I' for Inactive)
REMARK    1  A    between atoms: C_1  and  C_2
REMARK    2  A    between atoms: C_2  and  C_3
REMARK    3  A    between atoms: C_9  and  S_10
REMARK    4  A    between atoms: S_10  and  C_11
REMARK    5  A    between atoms: C_11  and  C_12
REMARK    6  A    between atoms: N_14  and  C_15
REMARK                            x       y       z     vdW  Elec       q    Type
REMARK                         _______ _______ _______ _____ _____    ______ ____
ROOT
ATOM      1  C   UNL     1       8.009   8.269  18.162  0.00  0.00    +0.000 C 
ATOM      2  O   UNL     1       7.398   8.918  17.316  0.00  0.00    +0.000 OA
ATOM      3  N   UNL     1       8.950   8.775  19.053  0.00  0.00    +0.000 N 
ATOM      4  H   UNL     1       9.518   8.104  19.558  0.00  0.00    +0.000 HD
ENDROOT
BRANCH   3   5
ATOM      5  C   UNL     1       9.291  10.138  19.219  0.00  0.00    +0.000 A 
ATOM      6  C   UNL     1       9.247  10.785  20.458  0.00  0.00    +0.000 A 
ATOM      7  C   UNL     1       9.598  12.130  20.583  0.00  0.00    +0.000 A 
ATOM      8  C   UNL     1       9.997  12.850  19.465  0.00  0.00    +0.000 A 
ATOM      9  C   UNL     1      10.069  12.218  18.222  0.00  0.00    +0.000 A 
ATOM     10  C   UNL     1       9.714  10.867  18.096  0.00  0.00    +0.000 A 
ATOM     11  O   UNL     1      10.470  12.868  17.080  0.00  0.00    +0.000 OA
ATOM     12  C   UNL     1      11.135  14.101  17.385  0.00  0.00    +0.000 C 
ATOM     13  C   UNL     1      10.379  14.892  18.441  0.00  0.00    +0.000 C 
ATOM     14  O   UNL     1      10.315  14.166  19.671  0.00  0.00    +0.000 OA
ENDBRANCH   3   5
BRANCH   1  15
ATOM     15  C   UNL     1       7.786   6.771  18.275  0.00  0.00    +0.000 C 
BRANCH  15  16
ATOM     16  S   UNL     1       7.126   6.165  16.706  0.00  0.00    +0.000 S 
BRANCH  16  23
ATOM     17  C   UNL     1       2.122   4.694  19.833  0.00  0.00    +0.000 C 
ATOM     18  O   UNL     1       2.356   5.887  19.990  0.00  0.00    +0.000 OA
ATOM     19  N   UNL     1       2.817   3.826  19.011  0.00  0.00    +0.000 N 
ATOM     20  C   UNL     1       3.926   4.162  18.271  0.00  0.00    +0.000 A 
ATOM     21  N   UNL     1       4.407   3.405  17.307  0.00  0.00    +0.000 NA
ATOM     22  N   UNL     1       5.501   3.992  16.686  0.00  0.00    +0.000 NA
ATOM     23  C   UNL     1       5.825   5.135  17.249  0.00  0.00    +0.000 A 
ATOM     24  S   UNL     1       4.841   5.567  18.575  0.00  0.00    +0.000 S 
ATOM     25  H   UNL     1       2.427   2.917  18.799  0.00  0.00    +0.000 HD
BRANCH  17  27
ATOM     26  C   UNL     1       1.443   2.778  21.308  0.00  0.00    +0.000 C 
ATOM     27  C   UNL     1       0.971   4.015  20.559  0.00  0.00    +0.000 C 
ENDBRANCH  17  27
ENDBRANCH  16  23
ENDBRANCH  15  16
ENDBRANCH   1  15
TORSDOF 5
ENDMDL
MODEL 5
REMARK VINA RESULT:      -7.6      1.827      2.479
REMARK  Name = 
REMARK  6 active torsions:
REMARK  status: ('A' for Active; 'I' for Inactive)
REMARK    1  A    between atoms: C_1  and  C_2
REMARK    2  A    between atoms: C_2  and  C_3
REMARK    3  A    between atoms: C_9  and  S_10
REMARK    4  A    between atoms: S_10  and  C_11
REMARK    5  A    between atoms: C_11  and  C_12
REMARK    6  A    between atoms: N_14  and  C_15
REMARK                            x       y       z     vdW  Elec       q    Type
REMARK                         _______ _______ _______ _____ _____    ______ ____
ROOT
ATOM      1  C   UNL     1       2.553   4.984  18.946  0.00  0.00    +0.000 C 
ATOM      2  O   UNL     1       1.737   4.911  18.030  0.00  0.00    +0.000 OA
ATOM      3  N   UNL     1       2.874   6.132  19.662  0.00  0.00    +0.000 N 
ATOM      4  H   UNL     1       3.699   6.096  20.251  0.00  0.00    +0.000 HD
ENDROOT
BRANCH   3   5
ATOM      5  C   UNL     1       2.243   7.393  19.540  0.00  0.00    +0.000 A 
ATOM      6  C   UNL     1       2.200   8.105  18.337  0.00  0.00    +0.000 A 
ATOM      7  C   UNL     1       1.562   9.343  18.254  0.00  0.00    +0.000 A 
ATOM      8  C   UNL     1       0.958   9.890  19.378  0.00  0.00    +0.000 A 
ATOM      9  C   UNL     1       0.970   9.185  20.584  0.00  0.00    +0.000 A 
ATOM     10  C   UNL     1       1.614   7.942  20.668  0.00  0.00    +0.000 A 
ATOM     11  O   UNL     1       0.379   9.661  21.729  0.00  0.00    +0.000 OA
ATOM     12  C   UNL     1      -0.531  10.732  21.442  0.00  0.00    +0.000 C 
ATOM     13  C   UNL     1       0.077  11.731  20.471  0.00  0.00    +0.000 C 
ATOM     14  O   UNL     1       0.362  11.112  19.215  0.00  0.00    +0.000 OA
ENDBRANCH   3   5
BRANCH   1  15
ATOM     15  C   UNL     1       3.338   3.751  19.360  0.00  0.00    +0.000 C 
BRANCH  15  16
ATOM     16  S   UNL     1       4.376   3.233  17.974  0.00  0.00    +0.000 S 
BRANCH  16  23
ATOM     17  C   UNL     1       8.024   8.098  18.044  0.00  0.00    +0.000 C 
ATOM     18  O   UNL     1       8.396   7.306  18.902  0.00  0.00    +0.000 OA
ATOM     19  N   UNL     1       6.999   7.898  17.138  0.00  0.00    +0.000 N 
ATOM     20  C   UNL     1       6.196   6.783  17.091  0.00  0.00    +0.000 A 
ATOM     21  N   UNL     1       5.413   6.500  16.071  0.00  0.00    +0.000 NA
ATOM     22  N   UNL     1       4.744   5.298  16.252  0.00  0.00    +0.000 NA
ATOM     23  C   UNL     1       5.012   4.762  17.423  0.00  0.00    +0.000 A 
ATOM     24  S   UNL     1       6.075   5.685  18.388  0.00  0.00    +0.000 S 
ATOM     25  H   UNL     1       6.901   8.523  16.348  0.00  0.00    +0.000 HD
BRANCH  17  27
ATOM     26  C   UNL     1       9.196   9.990  19.208  0.00  0.00    +0.000 C 
ATOM     27  C   UNL     1       8.698   9.450  17.876  0.00  0.00    +0.000 C 
ENDBRANCH  17  27
ENDBRANCH  16  23
ENDBRANCH  15  16
ENDBRANCH   1  15
TORSDOF 5
ENDMDL
MODEL 6
REMARK VINA RESULT:      -7.5      1.661      2.475
REMARK  Name = 
REMARK  6 active torsions:
REMARK  status: ('A' for Active; 'I' for Inactive)
REMARK    1  A    between atoms: C_1  and  C_2
REMARK    2  A    between atoms: C_2  and  C_3
REMARK    3  A    between atoms: C_9  and  S_10
REMARK    4  A    between atoms: S_10  and  C_11
REMARK    5  A    between atoms: C_11  and  C_12
REMARK    6  A    between atoms: N_14  and  C_15
REMARK                            x       y       z     vdW  Elec       q    Type
REMARK                         _______ _______ _______ _____ _____    ______ ____
ROOT
ATOM      1  C   UNL     1       1.752   4.023  18.510  0.00  0.00    +0.000 C 
ATOM      2  O   UNL     1       1.088   4.244  17.500  0.00  0.00    +0.000 OA
ATOM      3  N   UNL     1       2.283   4.986  19.361  0.00  0.00    +0.000 N 
ATOM      4  H   UNL     1       2.971   4.676  20.039  0.00  0.00    +0.000 HD
ENDROOT
BRANCH   3   5
ATOM      5  C   UNL     1       2.066   6.382  19.280  0.00  0.00    +0.000 A 
ATOM      6  C   UNL     1       2.355   7.128  18.133  0.00  0.00    +0.000 A 
ATOM      7  C   UNL     1       2.119   8.503  18.088  0.00  0.00    +0.000 A 
ATOM      8  C   UNL     1       1.592   9.153  19.195  0.00  0.00    +0.000 A 
ATOM      9  C   UNL     1       1.274   8.423  20.343  0.00  0.00    +0.000 A 
ATOM     10  C   UNL     1       1.514   7.042  20.389  0.00  0.00    +0.000 A 
ATOM     11  O   UNL     1       0.736   9.002  21.466  0.00  0.00    +0.000 OA
ATOM     12  C   UNL     1       0.213  10.307  21.184  0.00  0.00    +0.000 C 
ATOM     13  C   UNL     1       1.183  11.122  20.344  0.00  0.00    +0.000 C 
ATOM     14  O   UNL     1       1.400  10.504  19.073  0.00  0.00    +0.000 OA
ENDBRANCH   3   5
BRANCH   1  15
ATOM     15  C   UNL     1       2.082   2.594  18.901  0.00  0.00    +0.000 C 
BRANCH  15  16
ATOM     16  S   UNL     1       3.542   2.063  17.976  0.00  0.00    +0.000 S 
BRANCH  16  23
ATOM     17  C   UNL     1       6.821   7.136  17.272  0.00  0.00    +0.000 C 
ATOM     18  O   UNL     1       6.027   7.040  16.344  0.00  0.00    +0.000 OA
ATOM     19  N   UNL     1       6.912   6.287  18.361  0.00  0.00    +0.000 N 
ATOM     20  C   UNL     1       6.146   5.161  18.545  0.00  0.00    +0.000 A 
ATOM     21  N   UNL     1       6.064   4.523  19.695  0.00  0.00    +0.000 NA
ATOM     22  N   UNL     1       5.190   3.447  19.628  0.00  0.00    +0.000 NA
ATOM     23  C   UNL     1       4.700   3.292  18.417  0.00  0.00    +0.000 A 
ATOM     24  S   UNL     1       5.276   4.425  17.278  0.00  0.00    +0.000 S 
ATOM     25  H   UNL     1       7.460   6.562  19.165  0.00  0.00    +0.000 HD
BRANCH  17  27
ATOM     26  C   UNL     1       8.563   8.292  18.665  0.00  0.00    +0.000 C 
ATOM     27  C   UNL     1       7.835   8.268  17.329  0.00  0.00    +0.000 C 
ENDBRANCH  17  27
ENDBRANCH  16  23
ENDBRANCH  15  16
ENDBRANCH   1  15
TORSDOF 5
ENDMDL
MODEL 7
REMARK VINA RESULT:      -7.5      3.256      4.066
REMARK  Name = 
REMARK  6 active torsions:
REMARK  status: ('A' for Active; 'I' for Inactive)
REMARK    1  A    between atoms: C_1  and  C_2
REMARK    2  A    between atoms: C_2  and  C_3
REMARK    3  A    between atoms: C_9  and  S_10
REMARK    4  A    between atoms: S_10  and  C_11
REMARK    5  A    between atoms: C_11  and  C_12
REMARK    6  A    between atoms: N_14  and  C_15
REMARK                            x       y       z     vdW  Elec       q    Type
REMARK                         _______ _______ _______ _____ _____    ______ ____
ROOT
ATOM      1  C   UNL     1       1.848   4.847  20.545  0.00  0.00    +0.000 C 
ATOM      2  O   UNL     1       0.675   4.701  20.208  0.00  0.00    +0.000 OA
ATOM      3  N   UNL     1       2.606   6.000  20.374  0.00  0.00    +0.000 N 
ATOM      4  H   UNL     1       3.608   5.921  20.513  0.00  0.00    +0.000 HD
ENDROOT
BRANCH   3   5
ATOM      5  C   UNL     1       2.136   7.241  19.883  0.00  0.00    +0.000 A 
ATOM      6  C   UNL     1       2.343   7.663  18.566  0.00  0.00    +0.000 A 
ATOM      7  C   UNL     1       1.857   8.892  18.118  0.00  0.00    +0.000 A 
ATOM      8  C   UNL     1       1.157   9.720  18.984  0.00  0.00    +0.000 A 
ATOM      9  C   UNL     1       0.920   9.308  20.298  0.00  0.00    +0.000 A 
ATOM     10  C   UNL     1       1.410   8.075  20.749  0.00  0.00    +0.000 A 
ATOM     11  O   UNL     1       0.222  10.071  21.201  0.00  0.00    +0.000 OA
ATOM     12  C   UNL     1      -0.520  11.111  20.547  0.00  0.00    +0.000 C 
ATOM     13  C   UNL     1       0.325  11.819  19.500  0.00  0.00    +0.000 C 
ATOM     14  O   UNL     1       0.723  10.912  18.468  0.00  0.00    +0.000 OA
ENDBRANCH   3   5
BRANCH   1  15
ATOM     15  C   UNL     1       2.602   3.692  21.181  0.00  0.00    +0.000 C 
BRANCH  15  16
ATOM     16  S   UNL     1       2.980   2.472  19.903  0.00  0.00    +0.000 S 
BRANCH  16  23
ATOM     17  C   UNL     1       6.097   4.506  15.094  0.00  0.00    +0.000 C 
ATOM     18  O   UNL     1       5.005   4.095  14.719  0.00  0.00    +0.000 OA
ATOM     19  N   UNL     1       6.534   4.586  16.404  0.00  0.00    +0.000 N 
ATOM     20  C   UNL     1       5.817   4.164  17.499  0.00  0.00    +0.000 A 
ATOM     21  N   UNL     1       6.134   4.486  18.736  0.00  0.00    +0.000 NA
ATOM     22  N   UNL     1       5.226   3.972  19.652  0.00  0.00    +0.000 NA
ATOM     23  C   UNL     1       4.303   3.242  19.066  0.00  0.00    +0.000 A 
ATOM     24  S   UNL     1       4.481   3.114  17.373  0.00  0.00    +0.000 S 
ATOM     25  H   UNL     1       7.365   5.120  16.622  0.00  0.00    +0.000 HD
BRANCH  17  27
ATOM     26  C   UNL     1       6.969   4.338  12.745  0.00  0.00    +0.000 C 
ATOM     27  C   UNL     1       7.134   5.007  14.101  0.00  0.00    +0.000 C 
ENDBRANCH  17  27
ENDBRANCH  16  23
ENDBRANCH  15  16
ENDBRANCH   1  15
TORSDOF 5
ENDMDL
MODEL 8
REMARK VINA RESULT:      -7.5      2.794      4.119
REMARK  Name = 
REMARK  6 active torsions:
REMARK  status: ('A' for Active; 'I' for Inactive)
REMARK    1  A    between atoms: C_1  and  C_2
REMARK    2  A    between atoms: C_2  and  C_3
REMARK    3  A    between atoms: C_9  and  S_10
REMARK    4  A    between atoms: S_10  and  C_11
REMARK    5  A    between atoms: C_11  and  C_12
REMARK    6  A    between atoms: N_14  and  C_15
REMARK                            x       y       z     vdW  Elec       q    Type
REMARK                         _______ _______ _______ _____ _____    ______ ____
ROOT
ATOM      1  C   UNL     1       2.690   5.418  18.836  0.00  0.00    +0.000 C 
ATOM      2  O   UNL     1       1.708   5.263  18.114  0.00  0.00    +0.000 OA
ATOM      3  N   UNL     1       2.908   6.491  19.693  0.00  0.00    +0.000 N 
ATOM      4  H   UNL     1       3.841   6.594  20.078  0.00  0.00    +0.000 HD
ENDROOT
BRANCH   3   5
ATOM      5  C   UNL     1       1.995   7.536  19.969  0.00  0.00    +0.000 A 
ATOM      6  C   UNL     1       1.236   7.589  21.143  0.00  0.00    +0.000 A 
ATOM      7  C   UNL     1       0.350   8.641  21.382  0.00  0.00    +0.000 A 
ATOM      8  C   UNL     1       0.209   9.656  20.446  0.00  0.00    +0.000 A 
ATOM      9  C   UNL     1       0.973   9.634  19.277  0.00  0.00    +0.000 A 
ATOM     10  C   UNL     1       1.861   8.576  19.036  0.00  0.00    +0.000 A 
ATOM     11  O   UNL     1       0.893  10.614  18.319  0.00  0.00    +0.000 OA
ATOM     12  C   UNL     1       0.247  11.791  18.825  0.00  0.00    +0.000 C 
ATOM     13  C   UNL     1      -1.008  11.440  19.608  0.00  0.00    +0.000 C 
ATOM     14  O   UNL     1      -0.688  10.645  20.753  0.00  0.00    +0.000 OA
ENDBRANCH   3   5
BRANCH   1  15
ATOM     15  C   UNL     1       3.815   4.399  18.813  0.00  0.00    +0.000 C 
BRANCH  15  16
ATOM     16  S   UNL     1       5.335   5.202  19.370  0.00  0.00    +0.000 S 
BRANCH  16  23
ATOM     17  C   UNL     1       6.560   4.268  13.488  0.00  0.00    +0.000 C 
ATOM     18  O   UNL     1       5.517   3.692  13.776  0.00  0.00    +0.000 OA
ATOM     19  N   UNL     1       7.305   5.078  14.325  0.00  0.00    +0.000 N 
ATOM     20  C   UNL     1       7.011   5.324  15.646  0.00  0.00    +0.000 A 
ATOM     21  N   UNL     1       7.573   6.291  16.342  0.00  0.00    +0.000 NA
ATOM     22  N   UNL     1       7.071   6.357  17.633  0.00  0.00    +0.000 NA
ATOM     23  C   UNL     1       6.196   5.402  17.866  0.00  0.00    +0.000 A 
ATOM     24  S   UNL     1       5.938   4.352  16.544  0.00  0.00    +0.000 S 
ATOM     25  H   UNL     1       8.034   5.662  13.938  0.00  0.00    +0.000 HD
BRANCH  17  27
ATOM     26  C   UNL     1       6.899   2.782  11.491  0.00  0.00    +0.000 C 
ATOM     27  C   UNL     1       7.166   4.152  12.098  0.00  0.00    +0.000 C 
ENDBRANCH  17  27
ENDBRANCH  16  23
ENDBRANCH  15  16
ENDBRANCH   1  15
TORSDOF 5
ENDMDL
MODEL 9
REMARK VINA RESULT:      -7.4      3.281      5.229
REMARK  Name = 
REMARK  6 active torsions:
REMARK  status: ('A' for Active; 'I' for Inactive)
REMARK    1  A    between atoms: C_1  and  C_2
REMARK    2  A    between atoms: C_2  and  C_3
REMARK    3  A    between atoms: C_9  and  S_10
REMARK    4  A    between atoms: S_10  and  C_11
REMARK    5  A    between atoms: C_11  and  C_12
REMARK    6  A    between atoms: N_14  and  C_15
REMARK                            x       y       z     vdW  Elec       q    Type
REMARK                         _______ _______ _______ _____ _____    ______ ____
ROOT
ATOM      1  C   UNL     1       2.818   5.895  18.360  0.00  0.00    +0.000 C 
ATOM      2  O   UNL     1       2.059   5.265  19.092  0.00  0.00    +0.000 OA
ATOM      3  N   UNL     1       2.790   7.269  18.149  0.00  0.00    +0.000 N 
ATOM      4  H   UNL     1       3.339   7.630  17.376  0.00  0.00    +0.000 HD
ENDROOT
BRANCH   3   5
ATOM      5  C   UNL     1       1.958   8.198  18.816  0.00  0.00    +0.000 A 
ATOM      6  C   UNL     1       1.276   9.221  18.149  0.00  0.00    +0.000 A 
ATOM      7  C   UNL     1       0.458  10.114  18.843  0.00  0.00    +0.000 A 
ATOM      8  C   UNL     1       0.312   9.998  20.218  0.00  0.00    +0.000 A 
ATOM      9  C   UNL     1       0.966   8.969  20.901  0.00  0.00    +0.000 A 
ATOM     10  C   UNL     1       1.790   8.074  20.205  0.00  0.00    +0.000 A 
ATOM     11  O   UNL     1       0.851   8.788  22.258  0.00  0.00    +0.000 OA
ATOM     12  C   UNL     1      -0.266   9.512  22.791  0.00  0.00    +0.000 C 
ATOM     13  C   UNL     1      -0.321  10.929  22.242  0.00  0.00    +0.000 C 
ATOM     14  O   UNL     1      -0.501  10.919  20.824  0.00  0.00    +0.000 OA
ENDBRANCH   3   5
BRANCH   1  15
ATOM     15  C   UNL     1       3.884   5.163  17.565  0.00  0.00    +0.000 C 
BRANCH  15  16
ATOM     16  S   UNL     1       5.400   6.148  17.583  0.00  0.00    +0.000 S 
BRANCH  16  23
ATOM     17  C   UNL     1       5.945   3.230  12.276  0.00  0.00    +0.000 C 
ATOM     18  O   UNL     1       4.763   3.255  12.600  0.00  0.00    +0.000 OA
ATOM     19  N   UNL     1       6.989   3.839  12.948  0.00  0.00    +0.000 N 
ATOM     20  C   UNL     1       6.866   4.534  14.127  0.00  0.00    +0.000 A 
ATOM     21  N   UNL     1       7.810   5.318  14.605  0.00  0.00    +0.000 NA
ATOM     22  N   UNL     1       7.420   5.938  15.784  0.00  0.00    +0.000 NA
ATOM     23  C   UNL     1       6.223   5.547  16.167  0.00  0.00    +0.000 A 
ATOM     24  S   UNL     1       5.500   4.394  15.137  0.00  0.00    +0.000 S 
ATOM     25  H   UNL     1       7.890   3.929  12.496  0.00  0.00    +0.000 HD
BRANCH  17  27
ATOM     26  C   UNL     1       6.271   0.990  11.189  0.00  0.00    +0.000 C 
ATOM     27  C   UNL     1       6.404   2.497  11.026  0.00  0.00    +0.000 C 
ENDBRANCH  17  27
ENDBRANCH  16  23
ENDBRANCH  15  16
ENDBRANCH   1  15
TORSDOF 5
ENDMDL
