MODEL 1
REMARK VINA RESULT:      -7.5      0.000      0.000
REMARK  Name = 
REMARK  7 active torsions:
REMARK  status: ('A' for Active; 'I' for Inactive)
REMARK    1  A    between atoms: C_1  and  C_2
REMARK    2  A    between atoms: C_2  and  C_3
REMARK    3  A    between atoms: C_2  and  C_4
REMARK    4  A    between atoms: C_2  and  C_5
REMARK    5  A    between atoms: C_8  and  C_9
REMARK    6  A    between atoms: C_12  and  N_13
REMARK    7  A    between atoms: N_16  and  C_17
REMARK                            x       y       z     vdW  Elec       q    Type
REMARK                         _______ _______ _______ _____ _____    ______ ____
ROOT
ATOM      1  C   UNL     1       3.640   4.090  18.548  0.00  0.00    +0.000 A 
ATOM      2  C   UNL     1       4.546   3.657  17.535  0.00  0.00    +0.000 A 
ATOM      3  C   UNL     1       5.586   4.444  17.046  0.00  0.00    +0.000 A 
ATOM      4  C   UNL     1       5.796   5.691  17.588  0.00  0.00    +0.000 A 
ATOM      5  C   UNL     1       4.966   6.138  18.618  0.00  0.00    +0.000 A 
ATOM      6  C   UNL     1       3.858   5.395  19.092  0.00  0.00    +0.000 A 
ENDROOT
BRANCH   6   7
ATOM      7  N   UNL     1       3.044   5.991  20.117  0.00  0.00    +0.000 N 
ATOM      8  C   UNL     1       2.226   7.118  19.935  0.00  0.00    +0.000 C 
ATOM      9  O   UNL     1       1.957   7.591  18.837  0.00  0.00    +0.000 OA
ATOM     10  N   UNL     1       1.760   7.652  21.131  0.00  0.00    +0.000 N 
ATOM     11  H   UNL     1       2.878   5.453  20.949  0.00  0.00    +0.000 HD
ATOM     12  H   UNL     1       2.098   7.236  21.985  0.00  0.00    +0.000 HD
BRANCH  10  13
ATOM     13  C   UNL     1       0.977   8.841  21.273  0.00  0.00    +0.000 A 
ATOM     14  C   UNL     1       0.854   9.821  20.285  0.00  0.00    +0.000 A 
ATOM     15  C   UNL     1       0.118  10.972  20.551  0.00  0.00    +0.000 A 
ATOM     16  N   UNL     1      -0.517  11.202  21.717  0.00  0.00    +0.000 NA
ATOM     17  C   UNL     1      -0.413  10.237  22.651  0.00  0.00    +0.000 A 
ATOM     18  C   UNL     1       0.308   9.058  22.481  0.00  0.00    +0.000 A 
ENDBRANCH  10  13
ENDBRANCH   6   7
BRANCH   1  20
ATOM     19  C   UNL     1       2.352   2.866  20.459  0.00  0.00    +0.000 C 
ATOM     20  C   UNL     1       2.491   3.107  18.918  0.00  0.00    +0.000 C 
ATOM     21  C   UNL     1       2.736   1.705  18.325  0.00  0.00    +0.000 C 
ATOM     22  C   UNL     1       1.127   3.650  18.453  0.00  0.00    +0.000 C 
ENDBRANCH   1  20
BRANCH   4  23
ATOM     23  C   UNL     1       6.849   6.522  17.095  0.00  0.00    +0.000 C 
ATOM     24  N   UNL     1       7.724   7.187  16.713  0.00  0.00    +0.000 NA
ENDBRANCH   4  23
TORSDOF 4
ENDMDL
MODEL 2
REMARK VINA RESULT:      -7.4      0.826      1.151
REMARK  Name = 
REMARK  7 active torsions:
REMARK  status: ('A' for Active; 'I' for Inactive)
REMARK    1  A    between atoms: C_1  and  C_2
REMARK    2  A    between atoms: C_2  and  C_3
REMARK    3  A    between atoms: C_2  and  C_4
REMARK    4  A    between atoms: C_2  and  C_5
REMARK    5  A    between atoms: C_8  and  C_9
REMARK    6  A    between atoms: C_12  and  N_13
REMARK    7  A    between atoms: N_16  and  C_17
REMARK                            x       y       z     vdW  Elec       q    Type
REMARK                         _______ _______ _______ _____ _____    ______ ____
ROOT
ATOM      1  C   UNL     1       3.123   4.077  19.238  0.00  0.00    +0.000 A 
ATOM      2  C   UNL     1       3.955   3.555  18.203  0.00  0.00    +0.000 A 
ATOM      3  C   UNL     1       4.890   4.319  17.510  0.00  0.00    +0.000 A 
ATOM      4  C   UNL     1       5.070   5.639  17.857  0.00  0.00    +0.000 A 
ATOM      5  C   UNL     1       4.314   6.181  18.898  0.00  0.00    +0.000 A 
ATOM      6  C   UNL     1       3.307   5.454  19.578  0.00  0.00    +0.000 A 
ENDROOT
BRANCH   6   7
ATOM      7  N   UNL     1       2.557   6.144  20.594  0.00  0.00    +0.000 N 
ATOM      8  C   UNL     1       1.888   7.364  20.405  0.00  0.00    +0.000 C 
ATOM      9  O   UNL     1       1.697   7.870  19.305  0.00  0.00    +0.000 OA
ATOM     10  N   UNL     1       1.473   7.949  21.596  0.00  0.00    +0.000 N 
ATOM     11  H   UNL     1       2.312   5.628  21.421  0.00  0.00    +0.000 HD
ATOM     12  H   UNL     1       1.743   7.492  22.453  0.00  0.00    +0.000 HD
BRANCH  10  13
ATOM     13  C   UNL     1       0.841   9.225  21.731  0.00  0.00    +0.000 A 
ATOM     14  C   UNL     1       1.111  10.325  20.912  0.00  0.00    +0.000 A 
ATOM     15  C   UNL     1       0.487  11.541  21.172  0.00  0.00    +0.000 A 
ATOM     16  N   UNL     1      -0.397  11.730  22.170  0.00  0.00    +0.000 NA
ATOM     17  C   UNL     1      -0.669  10.656  22.935  0.00  0.00    +0.000 A 
ATOM     18  C   UNL     1      -0.088   9.403  22.759  0.00  0.00    +0.000 A 
ENDBRANCH  10  13
ENDBRANCH   6   7
BRANCH   1  20
ATOM     19  C   UNL     1       0.649   3.715  19.983  0.00  0.00    +0.000 C 
ATOM     20  C   UNL     1       2.081   3.097  19.852  0.00  0.00    +0.000 C 
ATOM     21  C   UNL     1       2.466   2.693  21.288  0.00  0.00    +0.000 C 
ATOM     22  C   UNL     1       1.917   1.842  18.973  0.00  0.00    +0.000 C 
ENDBRANCH   1  20
BRANCH   4  23
ATOM     23  C   UNL     1       6.014   6.446  17.152  0.00  0.00    +0.000 C 
ATOM     24  N   UNL     1       6.779   7.125  16.597  0.00  0.00    +0.000 NA
ENDBRANCH   4  23
TORSDOF 4
ENDMDL
MODEL 3
REMARK VINA RESULT:      -7.3      0.162      1.342
REMARK  Name = 
REMARK  7 active torsions:
REMARK  status: ('A' for Active; 'I' for Inactive)
REMARK    1  A    between atoms: C_1  and  C_2
REMARK    2  A    between atoms: C_2  and  C_3
REMARK    3  A    between atoms: C_2  and  C_4
REMARK    4  A    between atoms: C_2  and  C_5
REMARK    5  A    between atoms: C_8  and  C_9
REMARK    6  A    between atoms: C_12  and  N_13
REMARK    7  A    between atoms: N_16  and  C_17
REMARK                            x       y       z     vdW  Elec       q    Type
REMARK                         _______ _______ _______ _____ _____    ______ ____
ROOT
ATOM      1  C   UNL     1       3.661   4.104  18.448  0.00  0.00    +0.000 A 
ATOM      2  C   UNL     1       4.567   3.688  17.428  0.00  0.00    +0.000 A 
ATOM      3  C   UNL     1       5.623   4.472  16.970  0.00  0.00    +0.000 A 
ATOM      4  C   UNL     1       5.849   5.699  17.553  0.00  0.00    +0.000 A 
ATOM      5  C   UNL     1       5.019   6.127  18.590  0.00  0.00    +0.000 A 
ATOM      6  C   UNL     1       3.896   5.388  19.033  0.00  0.00    +0.000 A 
ENDROOT
BRANCH   6   7
ATOM      7  N   UNL     1       3.084   5.965  20.071  0.00  0.00    +0.000 N 
ATOM      8  C   UNL     1       2.258   7.089  19.910  0.00  0.00    +0.000 C 
ATOM      9  O   UNL     1       1.979   7.574  18.820  0.00  0.00    +0.000 OA
ATOM     10  N   UNL     1       1.796   7.604  21.116  0.00  0.00    +0.000 N 
ATOM     11  H   UNL     1       2.927   5.414  20.897  0.00  0.00    +0.000 HD
ATOM     12  H   UNL     1       2.141   7.178  21.962  0.00  0.00    +0.000 HD
BRANCH  10  13
ATOM     13  C   UNL     1       1.006   8.785  21.278  0.00  0.00    +0.000 A 
ATOM     14  C   UNL     1       0.378   9.152  22.471  0.00  0.00    +0.000 A 
ATOM     15  C   UNL     1      -0.421  10.290  22.501  0.00  0.00    +0.000 A 
ATOM     16  N   UNL     1      -0.620  11.094  21.439  0.00  0.00    +0.000 NA
ATOM     17  C   UNL     1       0.012  10.745  20.302  0.00  0.00    +0.000 A 
ATOM     18  C   UNL     1       0.823   9.621  20.172  0.00  0.00    +0.000 A 
ENDBRANCH  10  13
ENDBRANCH   6   7
BRANCH   1  20
ATOM     19  C   UNL     1       1.083   3.700  18.418  0.00  0.00    +0.000 C 
ATOM     20  C   UNL     1       2.495   3.128  18.781  0.00  0.00    +0.000 C 
ATOM     21  C   UNL     1       2.420   2.832  20.291  0.00  0.00    +0.000 C 
ATOM     22  C   UNL     1       2.630   1.813  17.988  0.00  0.00    +0.000 C 
ENDBRANCH   1  20
BRANCH   4  23
ATOM     23  C   UNL     1       6.918   6.528  17.092  0.00  0.00    +0.000 C 
ATOM     24  N   UNL     1       7.772   7.226  16.722  0.00  0.00    +0.000 NA
ENDBRANCH   4  23
TORSDOF 4
ENDMDL
MODEL 4
REMARK VINA RESULT:      -7.3      2.410      4.190
REMARK  Name = 
REMARK  7 active torsions:
REMARK  status: ('A' for Active; 'I' for Inactive)
REMARK    1  A    between atoms: C_1  and  C_2
REMARK    2  A    between atoms: C_2  and  C_3
REMARK    3  A    between atoms: C_2  and  C_4
REMARK    4  A    between atoms: C_2  and  C_5
REMARK    5  A    between atoms: C_8  and  C_9
REMARK    6  A    between atoms: C_12  and  N_13
REMARK    7  A    between atoms: N_16  and  C_17
REMARK                            x       y       z     vdW  Elec       q    Type
REMARK                         _______ _______ _______ _____ _____    ______ ____
ROOT
ATOM      1  C   UNL     1       4.853   5.113  17.980  0.00  0.00    +0.000 A 
ATOM      2  C   UNL     1       5.162   3.869  18.607  0.00  0.00    +0.000 A 
ATOM      3  C   UNL     1       4.372   3.290  19.597  0.00  0.00    +0.000 A 
ATOM      4  C   UNL     1       3.202   3.911  19.972  0.00  0.00    +0.000 A 
ATOM      5  C   UNL     1       2.832   5.105  19.349  0.00  0.00    +0.000 A 
ATOM      6  C   UNL     1       3.643   5.757  18.390  0.00  0.00    +0.000 A 
ENDROOT
BRANCH   6   7
ATOM      7  N   UNL     1       3.178   7.013  17.865  0.00  0.00    +0.000 N 
ATOM      8  C   UNL     1       2.372   7.924  18.566  0.00  0.00    +0.000 C 
ATOM      9  O   UNL     1       2.150   7.847  19.769  0.00  0.00    +0.000 OA
ATOM     10  N   UNL     1       1.841   8.920  17.754  0.00  0.00    +0.000 N 
ATOM     11  H   UNL     1       3.624   7.363  17.035  0.00  0.00    +0.000 HD
ATOM     12  H   UNL     1       2.023   8.854  16.765  0.00  0.00    +0.000 HD
BRANCH  10  13
ATOM     13  C   UNL     1       0.923   9.938  18.163  0.00  0.00    +0.000 A 
ATOM     14  C   UNL     1       1.299  11.123  18.802  0.00  0.00    +0.000 A 
ATOM     15  C   UNL     1       0.318  12.018  19.216  0.00  0.00    +0.000 A 
ATOM     16  N   UNL     1      -1.001  11.826  19.021  0.00  0.00    +0.000 NA
ATOM     17  C   UNL     1      -1.348  10.693  18.380  0.00  0.00    +0.000 A 
ATOM     18  C   UNL     1      -0.441   9.735  17.938  0.00  0.00    +0.000 A 
ENDBRANCH  10  13
ENDBRANCH   6   7
BRANCH   1  20
ATOM     19  C   UNL     1       7.098   4.676  16.725  0.00  0.00    +0.000 C 
ATOM     20  C   UNL     1       5.889   5.646  16.948  0.00  0.00    +0.000 C 
ATOM     21  C   UNL     1       6.529   6.965  17.422  0.00  0.00    +0.000 C 
ATOM     22  C   UNL     1       5.243   5.836  15.563  0.00  0.00    +0.000 C 
ENDBRANCH   1  20
BRANCH   4  23
ATOM     23  C   UNL     1       2.380   3.343  20.993  0.00  0.00    +0.000 C 
ATOM     24  N   UNL     1       1.732   2.861  21.830  0.00  0.00    +0.000 NA
ENDBRANCH   4  23
TORSDOF 4
ENDMDL
MODEL 5
REMARK VINA RESULT:      -7.2      2.438      4.206
REMARK  Name = 
REMARK  7 active torsions:
REMARK  status: ('A' for Active; 'I' for Inactive)
REMARK    1  A    between atoms: C_1  and  C_2
REMARK    2  A    between atoms: C_2  and  C_3
REMARK    3  A    between atoms: C_2  and  C_4
REMARK    4  A    between atoms: C_2  and  C_5
REMARK    5  A    between atoms: C_8  and  C_9
REMARK    6  A    between atoms: C_12  and  N_13
REMARK    7  A    between atoms: N_16  and  C_17
REMARK                            x       y       z     vdW  Elec       q    Type
REMARK                         _______ _______ _______ _____ _____    ______ ____
ROOT
ATOM      1  C   UNL     1       4.865   5.081  17.993  0.00  0.00    +0.000 A 
ATOM      2  C   UNL     1       5.174   3.839  18.624  0.00  0.00    +0.000 A 
ATOM      3  C   UNL     1       4.381   3.259  19.610  0.00  0.00    +0.000 A 
ATOM      4  C   UNL     1       3.208   3.877  19.978  0.00  0.00    +0.000 A 
ATOM      5  C   UNL     1       2.837   5.068  19.353  0.00  0.00    +0.000 A 
ATOM      6  C   UNL     1       3.651   5.722  18.397  0.00  0.00    +0.000 A 
ENDROOT
BRANCH   6   7
ATOM      7  N   UNL     1       3.184   6.976  17.868  0.00  0.00    +0.000 N 
ATOM      8  C   UNL     1       2.368   7.884  18.562  0.00  0.00    +0.000 C 
ATOM      9  O   UNL     1       2.136   7.805  19.764  0.00  0.00    +0.000 OA
ATOM     10  N   UNL     1       1.840   8.877  17.746  0.00  0.00    +0.000 N 
ATOM     11  H   UNL     1       3.636   7.329  17.042  0.00  0.00    +0.000 HD
ATOM     12  H   UNL     1       2.030   8.812  16.758  0.00  0.00    +0.000 HD
BRANCH  10  13
ATOM     13  C   UNL     1       0.914   9.891  18.148  0.00  0.00    +0.000 A 
ATOM     14  C   UNL     1      -0.469   9.809  17.963  0.00  0.00    +0.000 A 
ATOM     15  C   UNL     1      -1.273  10.882  18.333  0.00  0.00    +0.000 A 
ATOM     16  N   UNL     1      -0.802  12.014  18.889  0.00  0.00    +0.000 NA
ATOM     17  C   UNL     1       0.529  12.070  19.086  0.00  0.00    +0.000 A 
ATOM     18  C   UNL     1       1.415  11.053  18.741  0.00  0.00    +0.000 A 
ENDBRANCH  10  13
ENDBRANCH   6   7
BRANCH   1  20
ATOM     19  C   UNL     1       7.117   4.649  16.748  0.00  0.00    +0.000 C 
ATOM     20  C   UNL     1       5.904   5.616  16.966  0.00  0.00    +0.000 C 
ATOM     21  C   UNL     1       6.538   6.937  17.441  0.00  0.00    +0.000 C 
ATOM     22  C   UNL     1       5.263   5.803  15.577  0.00  0.00    +0.000 C 
ENDBRANCH   1  20
BRANCH   4  23
ATOM     23  C   UNL     1       2.383   3.308  20.997  0.00  0.00    +0.000 C 
ATOM     24  N   UNL     1       1.703   2.871  21.834  0.00  0.00    +0.000 NA
ENDBRANCH   4  23
TORSDOF 4
ENDMDL
MODEL 6
REMARK VINA RESULT:      -7.1      1.201      1.565
REMARK  Name = 
REMARK  7 active torsions:
REMARK  status: ('A' for Active; 'I' for Inactive)
REMARK    1  A    between atoms: C_1  and  C_2
REMARK    2  A    between atoms: C_2  and  C_3
REMARK    3  A    between atoms: C_2  and  C_4
REMARK    4  A    between atoms: C_2  and  C_5
REMARK    5  A    between atoms: C_8  and  C_9
REMARK    6  A    between atoms: C_12  and  N_13
REMARK    7  A    between atoms: N_16  and  C_17
REMARK                            x       y       z     vdW  Elec       q    Type
REMARK                         _______ _______ _______ _____ _____    ______ ____
ROOT
ATOM      1  C   UNL     1       3.288   4.076  19.193  0.00  0.00    +0.000 A 
ATOM      2  C   UNL     1       4.166   3.272  18.407  0.00  0.00    +0.000 A 
ATOM      3  C   UNL     1       5.192   3.794  17.622  0.00  0.00    +0.000 A 
ATOM      4  C   UNL     1       5.416   5.152  17.627  0.00  0.00    +0.000 A 
ATOM      5  C   UNL     1       4.615   5.975  18.420  0.00  0.00    +0.000 A 
ATOM      6  C   UNL     1       3.521   5.488  19.176  0.00  0.00    +0.000 A 
ENDROOT
BRANCH   6   7
ATOM      7  N   UNL     1       2.736   6.446  19.907  0.00  0.00    +0.000 N 
ATOM      8  C   UNL     1       2.028   7.511  19.326  0.00  0.00    +0.000 C 
ATOM      9  O   UNL     1       1.833   7.618  18.120  0.00  0.00    +0.000 OA
ATOM     10  N   UNL     1       1.578   8.440  20.257  0.00  0.00    +0.000 N 
ATOM     11  H   UNL     1       2.499   6.223  20.858  0.00  0.00    +0.000 HD
ATOM     12  H   UNL     1       1.853   8.301  21.217  0.00  0.00    +0.000 HD
BRANCH  10  13
ATOM     13  C   UNL     1       0.902   9.665  19.963  0.00  0.00    +0.000 A 
ATOM     14  C   UNL     1       1.347  10.603  19.028  0.00  0.00    +0.000 A 
ATOM     15  C   UNL     1       0.647  11.794  18.866  0.00  0.00    +0.000 A 
ATOM     16  N   UNL     1      -0.470  12.104  19.551  0.00  0.00    +0.000 NA
ATOM     17  C   UNL     1      -0.905  11.181  20.429  0.00  0.00    +0.000 A 
ATOM     18  C   UNL     1      -0.267   9.966  20.667  0.00  0.00    +0.000 A 
ENDBRANCH  10  13
ENDBRANCH   6   7
BRANCH   1  20
ATOM     19  C   UNL     1       0.812   4.137  20.013  0.00  0.00    +0.000 C 
ATOM     20  C   UNL     1       2.151   3.329  19.948  0.00  0.00    +0.000 C 
ATOM     21  C   UNL     1       2.526   3.075  21.421  0.00  0.00    +0.000 C 
ATOM     22  C   UNL     1       1.805   1.999  19.251  0.00  0.00    +0.000 C 
ENDBRANCH   1  20
BRANCH   4  23
ATOM     23  C   UNL     1       6.454   5.713  16.821  0.00  0.00    +0.000 C 
ATOM     24  N   UNL     1       7.307   6.186  16.186  0.00  0.00    +0.000 NA
ENDBRANCH   4  23
TORSDOF 4
ENDMDL
MODEL 7
REMARK VINA RESULT:      -6.9      2.932      7.271
REMARK  Name = 
REMARK  7 active torsions:
REMARK  status: ('A' for Active; 'I' for Inactive)
REMARK    1  A    between atoms: C_1  and  C_2
REMARK    2  A    between atoms: C_2  and  C_3
REMARK    3  A    between atoms: C_2  and  C_4
REMARK    4  A    between atoms: C_2  and  C_5
REMARK    5  A    between atoms: C_8  and  C_9
REMARK    6  A    between atoms: C_12  and  N_13
REMARK    7  A    between atoms: N_16  and  C_17
REMARK                            x       y       z     vdW  Elec       q    Type
REMARK                         _______ _______ _______ _____ _____    ______ ____
ROOT
ATOM      1  C   UNL     1       2.579   4.569  19.603  0.00  0.00    +0.000 A 
ATOM      2  C   UNL     1       1.888   5.503  20.432  0.00  0.00    +0.000 A 
ATOM      3  C   UNL     1       1.732   6.849  20.109  0.00  0.00    +0.000 A 
ATOM      4  C   UNL     1       2.222   7.313  18.909  0.00  0.00    +0.000 A 
ATOM      5  C   UNL     1       2.861   6.425  18.042  0.00  0.00    +0.000 A 
ATOM      6  C   UNL     1       3.099   5.067  18.367  0.00  0.00    +0.000 A 
ENDROOT
BRANCH   6   7
ATOM      7  N   UNL     1       3.820   4.269  17.412  0.00  0.00    +0.000 N 
ATOM      8  C   UNL     1       4.758   4.771  16.495  0.00  0.00    +0.000 C 
ATOM      9  O   UNL     1       5.216   5.906  16.547  0.00  0.00    +0.000 OA
ATOM     10  N   UNL     1       5.107   3.850  15.513  0.00  0.00    +0.000 N 
ATOM     11  H   UNL     1       3.820   3.273  17.546  0.00  0.00    +0.000 HD
ATOM     12  H   UNL     1       4.619   2.968  15.514  0.00  0.00    +0.000 HD
BRANCH  10  13
ATOM     13  C   UNL     1       5.973   4.095  14.401  0.00  0.00    +0.000 A 
ATOM     14  C   UNL     1       7.086   4.939  14.444  0.00  0.00    +0.000 A 
ATOM     15  C   UNL     1       7.824   5.157  13.286  0.00  0.00    +0.000 A 
ATOM     16  N   UNL     1       7.545   4.580  12.101  0.00  0.00    +0.000 NA
ATOM     17  C   UNL     1       6.486   3.748  12.079  0.00  0.00    +0.000 A 
ATOM     18  C   UNL     1       5.683   3.475  13.183  0.00  0.00    +0.000 A 
ENDBRANCH  10  13
ENDBRANCH   6   7
BRANCH   1  20
ATOM     19  C   UNL     1       4.191   2.582  20.112  0.00  0.00    +0.000 C 
ATOM     20  C   UNL     1       2.722   3.122  20.158  0.00  0.00    +0.000 C 
ATOM     21  C   UNL     1       1.909   2.115  19.323  0.00  0.00    +0.000 C 
ATOM     22  C   UNL     1       2.296   3.052  21.637  0.00  0.00    +0.000 C 
ENDBRANCH   1  20
BRANCH   4  23
ATOM     23  C   UNL     1       2.085   8.691  18.561  0.00  0.00    +0.000 C 
ATOM     24  N   UNL     1       1.950   9.816  18.294  0.00  0.00    +0.000 NA
ENDBRANCH   4  23
TORSDOF 4
ENDMDL
MODEL 8
REMARK VINA RESULT:      -6.9      2.983      7.297
REMARK  Name = 
REMARK  7 active torsions:
REMARK  status: ('A' for Active; 'I' for Inactive)
REMARK    1  A    between atoms: C_1  and  C_2
REMARK    2  A    between atoms: C_2  and  C_3
REMARK    3  A    between atoms: C_2  and  C_4
REMARK    4  A    between atoms: C_2  and  C_5
REMARK    5  A    between atoms: C_8  and  C_9
REMARK    6  A    between atoms: C_12  and  N_13
REMARK    7  A    between atoms: N_16  and  C_17
REMARK                            x       y       z     vdW  Elec       q    Type
REMARK                         _______ _______ _______ _____ _____    ______ ____
ROOT
ATOM      1  C   UNL     1       2.750   4.447  19.537  0.00  0.00    +0.000 A 
ATOM      2  C   UNL     1       1.917   5.324  20.292  0.00  0.00    +0.000 A 
ATOM      3  C   UNL     1       1.731   6.668  19.978  0.00  0.00    +0.000 A 
ATOM      4  C   UNL     1       2.338   7.187  18.857  0.00  0.00    +0.000 A 
ATOM      5  C   UNL     1       3.123   6.354  18.058  0.00  0.00    +0.000 A 
ATOM      6  C   UNL     1       3.390   5.002  18.383  0.00  0.00    +0.000 A 
ENDROOT
BRANCH   6   7
ATOM      7  N   UNL     1       4.262   4.264  17.509  0.00  0.00    +0.000 N 
ATOM      8  C   UNL     1       4.894   4.797  16.374  0.00  0.00    +0.000 C 
ATOM      9  O   UNL     1       4.938   5.996  16.121  0.00  0.00    +0.000 OA
ATOM     10  N   UNL     1       5.458   3.824  15.556  0.00  0.00    +0.000 N 
ATOM     11  H   UNL     1       4.615   3.384  17.840  0.00  0.00    +0.000 HD
ATOM     12  H   UNL     1       5.305   2.861  15.812  0.00  0.00    +0.000 HD
BRANCH  10  13
ATOM     13  C   UNL     1       6.096   4.050  14.296  0.00  0.00    +0.000 A 
ATOM     14  C   UNL     1       5.733   3.412  13.107  0.00  0.00    +0.000 A 
ATOM     15  C   UNL     1       6.462   3.658  11.948  0.00  0.00    +0.000 A 
ATOM     16  N   UNL     1       7.507   4.505  11.887  0.00  0.00    +0.000 NA
ATOM     17  C   UNL     1       7.830   5.135  13.033  0.00  0.00    +0.000 A 
ATOM     18  C   UNL     1       7.167   4.947  14.243  0.00  0.00    +0.000 A 
ENDBRANCH  10  13
ENDBRANCH   6   7
BRANCH   1  20
ATOM     19  C   UNL     1       2.376   2.821  21.542  0.00  0.00    +0.000 C 
ATOM     20  C   UNL     1       2.900   2.995  20.077  0.00  0.00    +0.000 C 
ATOM     21  C   UNL     1       4.379   2.566  20.137  0.00  0.00    +0.000 C 
ATOM     22  C   UNL     1       2.092   2.001  19.222  0.00  0.00    +0.000 C 
ENDBRANCH   1  20
BRANCH   4  23
ATOM     23  C   UNL     1       2.173   8.565  18.521  0.00  0.00    +0.000 C 
ATOM     24  N   UNL     1       2.027   9.680  18.222  0.00  0.00    +0.000 NA
ENDBRANCH   4  23
TORSDOF 4
ENDMDL
MODEL 9
REMARK VINA RESULT:      -6.8      1.636      2.021
REMARK  Name = 
REMARK  7 active torsions:
REMARK  status: ('A' for Active; 'I' for Inactive)
REMARK    1  A    between atoms: C_1  and  C_2
REMARK    2  A    between atoms: C_2  and  C_3
REMARK    3  A    between atoms: C_2  and  C_4
REMARK    4  A    between atoms: C_2  and  C_5
REMARK    5  A    between atoms: C_8  and  C_9
REMARK    6  A    between atoms: C_12  and  N_13
REMARK    7  A    between atoms: N_16  and  C_17
REMARK                            x       y       z     vdW  Elec       q    Type
REMARK                         _______ _______ _______ _____ _____    ______ ____
ROOT
ATOM      1  C   UNL     1       3.257   4.472  19.144  0.00  0.00    +0.000 A 
ATOM      2  C   UNL     1       4.205   3.647  18.470  0.00  0.00    +0.000 A 
ATOM      3  C   UNL     1       5.280   4.148  17.741  0.00  0.00    +0.000 A 
ATOM      4  C   UNL     1       5.482   5.510  17.693  0.00  0.00    +0.000 A 
ATOM      5  C   UNL     1       4.609   6.355  18.379  0.00  0.00    +0.000 A 
ATOM      6  C   UNL     1       3.468   5.885  19.073  0.00  0.00    +0.000 A 
ENDROOT
BRANCH   6   7
ATOM      7  N   UNL     1       2.613   6.863  19.691  0.00  0.00    +0.000 N 
ATOM      8  C   UNL     1       1.946   7.891  19.005  0.00  0.00    +0.000 C 
ATOM      9  O   UNL     1       1.853   7.942  17.784  0.00  0.00    +0.000 OA
ATOM     10  N   UNL     1       1.409   8.854  19.853  0.00  0.00    +0.000 N 
ATOM     11  H   UNL     1       2.299   6.679  20.627  0.00  0.00    +0.000 HD
ATOM     12  H   UNL     1       1.603   8.761  20.838  0.00  0.00    +0.000 HD
BRANCH  10  13
ATOM     13  C   UNL     1       0.747  10.055  19.448  0.00  0.00    +0.000 A 
ATOM     14  C   UNL     1      -0.635  10.172  19.281  0.00  0.00    +0.000 A 
ATOM     15  C   UNL     1      -1.170  11.370  18.820  0.00  0.00    +0.000 A 
ATOM     16  N   UNL     1      -0.431  12.460  18.537  0.00  0.00    +0.000 NA
ATOM     17  C   UNL     1       0.897  12.344  18.729  0.00  0.00    +0.000 A 
ATOM     18  C   UNL     1       1.524  11.184  19.176  0.00  0.00    +0.000 A 
ENDBRANCH  10  13
ENDBRANCH   6   7
BRANCH   1  20
ATOM     19  C   UNL     1       1.069   4.715  20.545  0.00  0.00    +0.000 C 
ATOM     20  C   UNL     1       2.077   3.741  19.848  0.00  0.00    +0.000 C 
ATOM     21  C   UNL     1       2.577   2.821  20.979  0.00  0.00    +0.000 C 
ATOM     22  C   UNL     1       1.244   2.932  18.835  0.00  0.00    +0.000 C 
ENDBRANCH   1  20
BRANCH   4  23
ATOM     23  C   UNL     1       6.570   6.049  16.941  0.00  0.00    +0.000 C 
ATOM     24  N   UNL     1       7.450   6.515  16.338  0.00  0.00    +0.000 NA
ENDBRANCH   4  23
TORSDOF 4
ENDMDL
