MODEL 1
REMARK VINA RESULT:      -7.4      0.000      0.000
REMARK  Name = 
REMARK  10 active torsions:
REMARK  status: ('A' for Active; 'I' for Inactive)
REMARK    1  A    between atoms: C_1  and  C_2
REMARK    2  A    between atoms: C_4  and  C_5
REMARK    3  A    between atoms: C_5  and  S_6
REMARK    4  A    between atoms: S_6  and  C_7
REMARK    5  A    between atoms: C_7  and  C_8
REMARK    6  A    between atoms: C_10  and  C_11
REMARK    7  A    between atoms: C_11  and  O_13
REMARK    8  A    between atoms: C_14  and  C_15
REMARK    9  A    between atoms: C_18  and  C_19
REMARK   10  A    between atoms: C_19  and  O_21
REMARK                            x       y       z     vdW  Elec       q    Type
REMARK                         _______ _______ _______ _____ _____    ______ ____
ROOT
ATOM      1  S   UNL     1       6.191   6.338  17.661  0.00  0.00    +0.000 S 
ENDROOT
BRANCH   1   2
ATOM      2  C   UNL     1       4.545   6.174  16.900  0.00  0.00    +0.000 C 
BRANCH   2   6
ATOM      3  C   UNL     1       1.935   4.987  20.765  0.00  0.00    +0.000 C 
ATOM      4  C   UNL     1       2.459   4.685  19.413  0.00  0.00    +0.000 A 
ATOM      5  O   UNL     1       3.287   5.647  18.908  0.00  0.00    +0.000 OA
ATOM      6  C   UNL     1       3.668   5.254  17.664  0.00  0.00    +0.000 A 
ATOM      7  C   UNL     1       3.115   4.029  17.378  0.00  0.00    +0.000 A 
ATOM      8  C   UNL     1       2.310   3.646  18.501  0.00  0.00    +0.000 A 
BRANCH   8   9
ATOM      9  C   UNL     1       1.532   2.417  18.561  0.00  0.00    +0.000 C 
ATOM     10  O   UNL     1       0.307   2.418  18.523  0.00  0.00    +0.000 OA
BRANCH   9  11
ATOM     11  O   UNL     1       2.216   1.253  18.671  0.00  0.00    +0.000 OA
ATOM     12  H   UNL     1       3.120   1.278  18.326  0.00  0.00    +0.000 HD
ENDBRANCH   9  11
ENDBRANCH   8   9
ENDBRANCH   2   6
ENDBRANCH   1   2
BRANCH   1  13
ATOM     13  C   UNL     1       6.938   4.733  17.202  0.00  0.00    +0.000 C 
BRANCH  13  14
ATOM     14  C   UNL     1       6.816   4.540  15.728  0.00  0.00    +0.000 A 
ATOM     15  C   UNL     1       6.074   3.675  14.948  0.00  0.00    +0.000 A 
ATOM     16  C   UNL     1       6.424   3.926  13.584  0.00  0.00    +0.000 A 
ATOM     17  C   UNL     1       7.357   4.953  13.637  0.00  0.00    +0.000 A 
ATOM     18  C   UNL     1       8.144   5.694  12.624  0.00  0.00    +0.000 C 
ATOM     19  O   UNL     1       7.581   5.332  14.930  0.00  0.00    +0.000 OA
BRANCH  16  20
ATOM     20  C   UNL     1       5.958   3.284  12.359  0.00  0.00    +0.000 C 
ATOM     21  O   UNL     1       6.656   2.576  11.646  0.00  0.00    +0.000 OA
BRANCH  20  22
ATOM     22  O   UNL     1       4.663   3.525  12.034  0.00  0.00    +0.000 OA
ATOM     23  H   UNL     1       4.032   3.263  12.725  0.00  0.00    +0.000 HD
ENDBRANCH  20  22
ENDBRANCH  16  20
ENDBRANCH  13  14
ENDBRANCH   1  13
TORSDOF 8
ENDMDL
MODEL 2
REMARK VINA RESULT:      -7.2      1.516      6.611
REMARK  Name = 
REMARK  10 active torsions:
REMARK  status: ('A' for Active; 'I' for Inactive)
REMARK    1  A    between atoms: C_1  and  C_2
REMARK    2  A    between atoms: C_4  and  C_5
REMARK    3  A    between atoms: C_5  and  S_6
REMARK    4  A    between atoms: S_6  and  C_7
REMARK    5  A    between atoms: C_7  and  C_8
REMARK    6  A    between atoms: C_10  and  C_11
REMARK    7  A    between atoms: C_11  and  O_13
REMARK    8  A    between atoms: C_14  and  C_15
REMARK    9  A    between atoms: C_18  and  C_19
REMARK   10  A    between atoms: C_19  and  O_21
REMARK                            x       y       z     vdW  Elec       q    Type
REMARK                         _______ _______ _______ _____ _____    ______ ____
ROOT
ATOM      1  S   UNL     1       6.624   6.810  17.285  0.00  0.00    +0.000 S 
ENDROOT
BRANCH   1   2
ATOM      2  C   UNL     1       6.988   5.062  16.927  0.00  0.00    +0.000 C 
BRANCH   2   6
ATOM      3  C   UNL     1       8.167   5.623  12.295  0.00  0.00    +0.000 C 
ATOM      4  C   UNL     1       7.366   4.976  13.358  0.00  0.00    +0.000 A 
ATOM      5  O   UNL     1       7.623   5.444  14.614  0.00  0.00    +0.000 OA
ATOM      6  C   UNL     1       6.844   4.749  15.485  0.00  0.00    +0.000 A 
ATOM      7  C   UNL     1       6.063   3.856  14.791  0.00  0.00    +0.000 A 
ATOM      8  C   UNL     1       6.398   3.977  13.402  0.00  0.00    +0.000 A 
BRANCH   8   9
ATOM      9  C   UNL     1       5.803   3.168  12.349  0.00  0.00    +0.000 C 
ATOM     10  O   UNL     1       4.683   3.394  11.906  0.00  0.00    +0.000 OA
BRANCH   9  11
ATOM     11  O   UNL     1       6.536   2.134  11.870  0.00  0.00    +0.000 OA
ATOM     12  H   UNL     1       6.815   2.225  10.948  0.00  0.00    +0.000 HD
ENDBRANCH   9  11
ENDBRANCH   8   9
ENDBRANCH   2   6
ENDBRANCH   1   2
BRANCH   1  13
ATOM     13  C   UNL     1       4.808   6.741  17.496  0.00  0.00    +0.000 C 
BRANCH  13  14
ATOM     14  C   UNL     1       4.436   5.438  18.116  0.00  0.00    +0.000 A 
ATOM     15  C   UNL     1       4.788   4.821  19.299  0.00  0.00    +0.000 A 
ATOM     16  C   UNL     1       4.151   3.540  19.318  0.00  0.00    +0.000 A 
ATOM     17  C   UNL     1       3.435   3.480  18.130  0.00  0.00    +0.000 A 
ATOM     18  C   UNL     1       2.569   2.461  17.491  0.00  0.00    +0.000 C 
ATOM     19  O   UNL     1       3.595   4.631  17.413  0.00  0.00    +0.000 OA
BRANCH  16  20
ATOM     20  C   UNL     1       4.202   2.477  20.317  0.00  0.00    +0.000 C 
ATOM     21  O   UNL     1       5.097   1.647  20.392  0.00  0.00    +0.000 OA
BRANCH  20  22
ATOM     22  O   UNL     1       3.164   2.453  21.191  0.00  0.00    +0.000 OA
ATOM     23  H   UNL     1       2.300   2.606  20.776  0.00  0.00    +0.000 HD
ENDBRANCH  20  22
ENDBRANCH  16  20
ENDBRANCH  13  14
ENDBRANCH   1  13
TORSDOF 8
ENDMDL
MODEL 3
REMARK VINA RESULT:      -7.2      0.608      1.070
REMARK  Name = 
REMARK  10 active torsions:
REMARK  status: ('A' for Active; 'I' for Inactive)
REMARK    1  A    between atoms: C_1  and  C_2
REMARK    2  A    between atoms: C_4  and  C_5
REMARK    3  A    between atoms: C_5  and  S_6
REMARK    4  A    between atoms: S_6  and  C_7
REMARK    5  A    between atoms: C_7  and  C_8
REMARK    6  A    between atoms: C_10  and  C_11
REMARK    7  A    between atoms: C_11  and  O_13
REMARK    8  A    between atoms: C_14  and  C_15
REMARK    9  A    between atoms: C_18  and  C_19
REMARK   10  A    between atoms: C_19  and  O_21
REMARK                            x       y       z     vdW  Elec       q    Type
REMARK                         _______ _______ _______ _____ _____    ______ ____
ROOT
ATOM      1  S   UNL     1       6.467   6.654  17.416  0.00  0.00    +0.000 S 
ENDROOT
BRANCH   1   2
ATOM      2  C   UNL     1       4.749   6.733  16.818  0.00  0.00    +0.000 C 
BRANCH   2   6
ATOM      3  C   UNL     1       1.878   5.894  20.588  0.00  0.00    +0.000 C 
ATOM      4  C   UNL     1       2.517   5.460  19.325  0.00  0.00    +0.000 A 
ATOM      5  O   UNL     1       3.352   6.389  18.774  0.00  0.00    +0.000 OA
ATOM      6  C   UNL     1       3.843   5.873  17.616  0.00  0.00    +0.000 A 
ATOM      7  C   UNL     1       3.352   4.603  17.435  0.00  0.00    +0.000 A 
ATOM      8  C   UNL     1       2.472   4.319  18.531  0.00  0.00    +0.000 A 
BRANCH   8   9
ATOM      9  C   UNL     1       1.729   3.075  18.676  0.00  0.00    +0.000 C 
ATOM     10  O   UNL     1       1.958   2.093  17.980  0.00  0.00    +0.000 OA
BRANCH   9  11
ATOM     11  O   UNL     1       0.755   3.039  19.617  0.00  0.00    +0.000 OA
ATOM     12  H   UNL     1       0.935   2.456  20.368  0.00  0.00    +0.000 HD
ENDBRANCH   9  11
ENDBRANCH   8   9
ENDBRANCH   2   6
ENDBRANCH   1   2
BRANCH   1  13
ATOM     13  C   UNL     1       6.859   4.897  17.090  0.00  0.00    +0.000 C 
BRANCH  13  14
ATOM     14  C   UNL     1       6.743   4.632  15.628  0.00  0.00    +0.000 A 
ATOM     15  C   UNL     1       5.997   3.738  14.887  0.00  0.00    +0.000 A 
ATOM     16  C   UNL     1       6.357   3.917  13.514  0.00  0.00    +0.000 A 
ATOM     17  C   UNL     1       7.301   4.936  13.523  0.00  0.00    +0.000 A 
ATOM     18  C   UNL     1       8.102   5.617  12.478  0.00  0.00    +0.000 C 
ATOM     19  O   UNL     1       7.521   5.376  14.796  0.00  0.00    +0.000 OA
BRANCH  16  20
ATOM     20  C   UNL     1       5.892   3.220  12.319  0.00  0.00    +0.000 C 
ATOM     21  O   UNL     1       4.782   3.368  11.826  0.00  0.00    +0.000 OA
BRANCH  20  22
ATOM     22  O   UNL     1       6.785   2.363  11.762  0.00  0.00    +0.000 OA
ATOM     23  H   UNL     1       6.925   2.507  10.812  0.00  0.00    +0.000 HD
ENDBRANCH  20  22
ENDBRANCH  16  20
ENDBRANCH  13  14
ENDBRANCH   1  13
TORSDOF 8
ENDMDL
MODEL 4
REMARK VINA RESULT:      -7.1      1.410      1.724
REMARK  Name = 
REMARK  10 active torsions:
REMARK  status: ('A' for Active; 'I' for Inactive)
REMARK    1  A    between atoms: C_1  and  C_2
REMARK    2  A    between atoms: C_4  and  C_5
REMARK    3  A    between atoms: C_5  and  S_6
REMARK    4  A    between atoms: S_6  and  C_7
REMARK    5  A    between atoms: C_7  and  C_8
REMARK    6  A    between atoms: C_10  and  C_11
REMARK    7  A    between atoms: C_11  and  O_13
REMARK    8  A    between atoms: C_14  and  C_15
REMARK    9  A    between atoms: C_18  and  C_19
REMARK   10  A    between atoms: C_19  and  O_21
REMARK                            x       y       z     vdW  Elec       q    Type
REMARK                         _______ _______ _______ _____ _____    ______ ____
ROOT
ATOM      1  S   UNL     1       7.115   6.442  17.303  0.00  0.00    +0.000 S 
ENDROOT
BRANCH   1   2
ATOM      2  C   UNL     1       6.152   6.207  18.830  0.00  0.00    +0.000 C 
BRANCH   2   6
ATOM      3  C   UNL     1       4.352   1.910  20.038  0.00  0.00    +0.000 C 
ATOM      4  C   UNL     1       4.308   3.153  19.235  0.00  0.00    +0.000 A 
ATOM      5  O   UNL     1       5.342   4.012  19.479  0.00  0.00    +0.000 OA
ATOM      6  C   UNL     1       5.162   5.111  18.700  0.00  0.00    +0.000 A 
ATOM      7  C   UNL     1       4.034   4.951  17.933  0.00  0.00    +0.000 A 
ATOM      8  C   UNL     1       3.452   3.686  18.277  0.00  0.00    +0.000 A 
BRANCH   8   9
ATOM      9  C   UNL     1       2.220   3.173  17.697  0.00  0.00    +0.000 C 
ATOM     10  O   UNL     1       1.254   3.893  17.474  0.00  0.00    +0.000 OA
BRANCH   9  11
ATOM     11  O   UNL     1       2.170   1.849  17.414  0.00  0.00    +0.000 OA
ATOM     12  H   UNL     1       2.089   1.636  16.473  0.00  0.00    +0.000 HD
ENDBRANCH   9  11
ENDBRANCH   8   9
ENDBRANCH   2   6
ENDBRANCH   1   2
BRANCH   1  13
ATOM     13  C   UNL     1       7.451   4.703  16.843  0.00  0.00    +0.000 C 
BRANCH  13  14
ATOM     14  C   UNL     1       7.056   4.488  15.422  0.00  0.00    +0.000 A 
ATOM     15  C   UNL     1       6.165   3.629  14.809  0.00  0.00    +0.000 A 
ATOM     16  C   UNL     1       6.265   3.848  13.399  0.00  0.00    +0.000 A 
ATOM     17  C   UNL     1       7.215   4.851  13.259  0.00  0.00    +0.000 A 
ATOM     18  C   UNL     1       7.820   5.553  12.102  0.00  0.00    +0.000 C 
ATOM     19  O   UNL     1       7.680   5.246  14.480  0.00  0.00    +0.000 OA
BRANCH  16  20
ATOM     20  C   UNL     1       5.569   3.197  12.293  0.00  0.00    +0.000 C 
ATOM     21  O   UNL     1       4.501   3.579  11.835  0.00  0.00    +0.000 OA
BRANCH  20  22
ATOM     22  O   UNL     1       6.187   2.103  11.782  0.00  0.00    +0.000 OA
ATOM     23  H   UNL     1       6.188   1.339  12.380  0.00  0.00    +0.000 HD
ENDBRANCH  20  22
ENDBRANCH  16  20
ENDBRANCH  13  14
ENDBRANCH   1  13
TORSDOF 8
ENDMDL
MODEL 5
REMARK VINA RESULT:      -7.1      0.753      6.688
REMARK  Name = 
REMARK  10 active torsions:
REMARK  status: ('A' for Active; 'I' for Inactive)
REMARK    1  A    between atoms: C_1  and  C_2
REMARK    2  A    between atoms: C_4  and  C_5
REMARK    3  A    between atoms: C_5  and  S_6
REMARK    4  A    between atoms: S_6  and  C_7
REMARK    5  A    between atoms: C_7  and  C_8
REMARK    6  A    between atoms: C_10  and  C_11
REMARK    7  A    between atoms: C_11  and  O_13
REMARK    8  A    between atoms: C_14  and  C_15
REMARK    9  A    between atoms: C_18  and  C_19
REMARK   10  A    between atoms: C_19  and  O_21
REMARK                            x       y       z     vdW  Elec       q    Type
REMARK                         _______ _______ _______ _____ _____    ______ ____
ROOT
ATOM      1  S   UNL     1       6.644   6.538  17.585  0.00  0.00    +0.000 S 
ENDROOT
BRANCH   1   2
ATOM      2  C   UNL     1       7.037   4.827  17.103  0.00  0.00    +0.000 C 
BRANCH   2   6
ATOM      3  C   UNL     1       8.102   5.701  12.492  0.00  0.00    +0.000 C 
ATOM      4  C   UNL     1       7.332   4.977  13.528  0.00  0.00    +0.000 A 
ATOM      5  O   UNL     1       7.614   5.365  14.806  0.00  0.00    +0.000 OA
ATOM      6  C   UNL     1       6.862   4.606  15.647  0.00  0.00    +0.000 A 
ATOM      7  C   UNL     1       6.074   3.753  14.914  0.00  0.00    +0.000 A 
ATOM      8  C   UNL     1       6.375   3.967  13.529  0.00  0.00    +0.000 A 
BRANCH   8   9
ATOM      9  C   UNL     1       5.763   3.221  12.439  0.00  0.00    +0.000 C 
ATOM     10  O   UNL     1       4.680   3.535  11.961  0.00  0.00    +0.000 OA
BRANCH   9  11
ATOM     11  O   UNL     1       6.438   2.146  11.966  0.00  0.00    +0.000 OA
ATOM     12  H   UNL     1       5.898   1.507  11.480  0.00  0.00    +0.000 HD
ENDBRANCH   9  11
ENDBRANCH   8   9
ENDBRANCH   2   6
ENDBRANCH   1   2
BRANCH   1  13
ATOM     13  C   UNL     1       4.970   6.716  16.869  0.00  0.00    +0.000 C 
BRANCH  13  14
ATOM     14  C   UNL     1       4.006   5.910  17.670  0.00  0.00    +0.000 A 
ATOM     15  C   UNL     1       3.478   4.643  17.516  0.00  0.00    +0.000 A 
ATOM     16  C   UNL     1       2.548   4.437  18.584  0.00  0.00    +0.000 A 
ATOM     17  C   UNL     1       2.594   5.608  19.329  0.00  0.00    +0.000 A 
ATOM     18  C   UNL     1       1.896   6.093  20.543  0.00  0.00    +0.000 C 
ATOM     19  O   UNL     1       3.484   6.489  18.785  0.00  0.00    +0.000 OA
BRANCH  16  20
ATOM     20  C   UNL     1       1.700   3.288  18.885  0.00  0.00    +0.000 C 
ATOM     21  O   UNL     1       0.932   2.773  18.085  0.00  0.00    +0.000 OA
BRANCH  20  22
ATOM     22  O   UNL     1       1.807   2.803  20.148  0.00  0.00    +0.000 OA
ATOM     23  H   UNL     1       1.355   3.346  20.815  0.00  0.00    +0.000 HD
ENDBRANCH  20  22
ENDBRANCH  16  20
ENDBRANCH  13  14
ENDBRANCH   1  13
TORSDOF 8
ENDMDL
MODEL 6
REMARK VINA RESULT:      -7.1      1.406      1.841
REMARK  Name = 
REMARK  10 active torsions:
REMARK  status: ('A' for Active; 'I' for Inactive)
REMARK    1  A    between atoms: C_1  and  C_2
REMARK    2  A    between atoms: C_4  and  C_5
REMARK    3  A    between atoms: C_5  and  S_6
REMARK    4  A    between atoms: S_6  and  C_7
REMARK    5  A    between atoms: C_7  and  C_8
REMARK    6  A    between atoms: C_10  and  C_11
REMARK    7  A    between atoms: C_11  and  O_13
REMARK    8  A    between atoms: C_14  and  C_15
REMARK    9  A    between atoms: C_18  and  C_19
REMARK   10  A    between atoms: C_19  and  O_21
REMARK                            x       y       z     vdW  Elec       q    Type
REMARK                         _______ _______ _______ _____ _____    ______ ____
ROOT
ATOM      1  S   UNL     1       6.246   6.303  17.720  0.00  0.00    +0.000 S 
ENDROOT
BRANCH   1   2
ATOM      2  C   UNL     1       4.525   5.930  17.255  0.00  0.00    +0.000 C 
BRANCH   2   6
ATOM      3  C   UNL     1       1.020   2.890  18.534  0.00  0.00    +0.000 C 
ATOM      4  C   UNL     1       2.310   3.566  18.802  0.00  0.00    +0.000 A 
ATOM      5  O   UNL     1       2.690   4.448  17.831  0.00  0.00    +0.000 OA
ATOM      6  C   UNL     1       3.893   4.970  18.191  0.00  0.00    +0.000 A 
ATOM      7  C   UNL     1       4.273   4.452  19.406  0.00  0.00    +0.000 A 
ATOM      8  C   UNL     1       3.261   3.522  19.816  0.00  0.00    +0.000 A 
BRANCH   8   9
ATOM      9  C   UNL     1       3.324   2.741  21.042  0.00  0.00    +0.000 C 
ATOM     10  O   UNL     1       2.432   2.770  21.881  0.00  0.00    +0.000 OA
BRANCH   9  11
ATOM     11  O   UNL     1       4.423   1.972  21.234  0.00  0.00    +0.000 OA
ATOM     12  H   UNL     1       5.223   2.459  21.477  0.00  0.00    +0.000 HD
ENDBRANCH   9  11
ENDBRANCH   8   9
ENDBRANCH   2   6
ENDBRANCH   1   2
BRANCH   1  13
ATOM     13  C   UNL     1       7.078   4.758  17.204  0.00  0.00    +0.000 C 
BRANCH  13  14
ATOM     14  C   UNL     1       6.867   4.553  15.742  0.00  0.00    +0.000 A 
ATOM     15  C   UNL     1       6.052   3.707  15.016  0.00  0.00    +0.000 A 
ATOM     16  C   UNL     1       6.334   3.929  13.631  0.00  0.00    +0.000 A 
ATOM     17  C   UNL     1       7.306   4.921  13.619  0.00  0.00    +0.000 A 
ATOM     18  C   UNL     1       8.062   5.620  12.554  0.00  0.00    +0.000 C 
ATOM     19  O   UNL     1       7.615   5.307  14.892  0.00  0.00    +0.000 OA
BRANCH  16  20
ATOM     20  C   UNL     1       5.778   3.291  12.443  0.00  0.00    +0.000 C 
ATOM     21  O   UNL     1       4.680   3.554  11.973  0.00  0.00    +0.000 OA
BRANCH  20  22
ATOM     22  O   UNL     1       6.568   2.352  11.864  0.00  0.00    +0.000 OA
ATOM     23  H   UNL     1       6.661   1.541  12.391  0.00  0.00    +0.000 HD
ENDBRANCH  20  22
ENDBRANCH  16  20
ENDBRANCH  13  14
ENDBRANCH   1  13
TORSDOF 8
ENDMDL
MODEL 7
REMARK VINA RESULT:      -7.1      1.161      1.692
REMARK  Name = 
REMARK  10 active torsions:
REMARK  status: ('A' for Active; 'I' for Inactive)
REMARK    1  A    between atoms: C_1  and  C_2
REMARK    2  A    between atoms: C_4  and  C_5
REMARK    3  A    between atoms: C_5  and  S_6
REMARK    4  A    between atoms: S_6  and  C_7
REMARK    5  A    between atoms: C_7  and  C_8
REMARK    6  A    between atoms: C_10  and  C_11
REMARK    7  A    between atoms: C_11  and  O_13
REMARK    8  A    between atoms: C_14  and  C_15
REMARK    9  A    between atoms: C_18  and  C_19
REMARK   10  A    between atoms: C_19  and  O_21
REMARK                            x       y       z     vdW  Elec       q    Type
REMARK                         _______ _______ _______ _____ _____    ______ ____
ROOT
ATOM      1  S   UNL     1       6.859   6.307  17.589  0.00  0.00    +0.000 S 
ENDROOT
BRANCH   1   2
ATOM      2  C   UNL     1       6.013   5.866  19.139  0.00  0.00    +0.000 C 
BRANCH   2   6
ATOM      3  C   UNL     1       1.599   4.638  17.667  0.00  0.00    +0.000 C 
ATOM      4  C   UNL     1       2.915   4.287  18.247  0.00  0.00    +0.000 A 
ATOM      5  O   UNL     1       3.756   5.351  18.408  0.00  0.00    +0.000 OA
ATOM      6  C   UNL     1       4.925   4.883  18.919  0.00  0.00    +0.000 A 
ATOM      7  C   UNL     1       4.830   3.527  19.118  0.00  0.00    +0.000 A 
ATOM      8  C   UNL     1       3.531   3.115  18.672  0.00  0.00    +0.000 A 
BRANCH   8   9
ATOM      9  C   UNL     1       3.065   1.736  18.690  0.00  0.00    +0.000 C 
ATOM     10  O   UNL     1       3.824   0.788  18.525  0.00  0.00    +0.000 OA
BRANCH   9  11
ATOM     11  O   UNL     1       1.741   1.530  18.891  0.00  0.00    +0.000 OA
ATOM     12  H   UNL     1       1.490   0.607  19.036  0.00  0.00    +0.000 HD
ENDBRANCH   9  11
ENDBRANCH   8   9
ENDBRANCH   2   6
ENDBRANCH   1   2
BRANCH   1  13
ATOM     13  C   UNL     1       7.425   4.659  17.031  0.00  0.00    +0.000 C 
BRANCH  13  14
ATOM     14  C   UNL     1       7.063   4.476  15.596  0.00  0.00    +0.000 A 
ATOM     15  C   UNL     1       6.185   3.634  14.944  0.00  0.00    +0.000 A 
ATOM     16  C   UNL     1       6.318   3.884  13.541  0.00  0.00    +0.000 A 
ATOM     17  C   UNL     1       7.273   4.888  13.446  0.00  0.00    +0.000 A 
ATOM     18  C   UNL     1       7.905   5.615  12.321  0.00  0.00    +0.000 C 
ATOM     19  O   UNL     1       7.710   5.255  14.687  0.00  0.00    +0.000 OA
BRANCH  16  20
ATOM     20  C   UNL     1       5.647   3.261  12.405  0.00  0.00    +0.000 C 
ATOM     21  O   UNL     1       4.559   3.614  11.972  0.00  0.00    +0.000 OA
BRANCH  20  22
ATOM     22  O   UNL     1       6.313   2.225  11.834  0.00  0.00    +0.000 OA
ATOM     23  H   UNL     1       6.914   1.765  12.442  0.00  0.00    +0.000 HD
ENDBRANCH  20  22
ENDBRANCH  16  20
ENDBRANCH  13  14
ENDBRANCH   1  13
TORSDOF 8
ENDMDL
MODEL 8
REMARK VINA RESULT:      -7.0      1.458      7.186
REMARK  Name = 
REMARK  10 active torsions:
REMARK  status: ('A' for Active; 'I' for Inactive)
REMARK    1  A    between atoms: C_1  and  C_2
REMARK    2  A    between atoms: C_4  and  C_5
REMARK    3  A    between atoms: C_5  and  S_6
REMARK    4  A    between atoms: S_6  and  C_7
REMARK    5  A    between atoms: C_7  and  C_8
REMARK    6  A    between atoms: C_10  and  C_11
REMARK    7  A    between atoms: C_11  and  O_13
REMARK    8  A    between atoms: C_14  and  C_15
REMARK    9  A    between atoms: C_18  and  C_19
REMARK   10  A    between atoms: C_19  and  O_21
REMARK                            x       y       z     vdW  Elec       q    Type
REMARK                         _______ _______ _______ _____ _____    ______ ____
ROOT
ATOM      1  S   UNL     1       5.203   6.185  17.289  0.00  0.00    +0.000 S 
ENDROOT
BRANCH   1   2
ATOM      2  C   UNL     1       6.595   5.100  16.843  0.00  0.00    +0.000 C 
BRANCH   2   6
ATOM      3  C   UNL     1       8.218   5.638  12.344  0.00  0.00    +0.000 C 
ATOM      4  C   UNL     1       7.327   4.985  13.330  0.00  0.00    +0.000 A 
ATOM      5  O   UNL     1       7.450   5.471  14.601  0.00  0.00    +0.000 OA
ATOM      6  C   UNL     1       6.601   4.769  15.398  0.00  0.00    +0.000 A 
ATOM      7  C   UNL     1       5.910   3.855  14.640  0.00  0.00    +0.000 A 
ATOM      8  C   UNL     1       6.379   3.968  13.290  0.00  0.00    +0.000 A 
BRANCH   8   9
ATOM      9  C   UNL     1       5.906   3.137  12.193  0.00  0.00    +0.000 C 
ATOM     10  O   UNL     1       4.789   3.269  11.708  0.00  0.00    +0.000 OA
BRANCH   9  11
ATOM     11  O   UNL     1       6.754   2.191  11.720  0.00  0.00    +0.000 OA
ATOM     12  H   UNL     1       7.570   2.086  12.227  0.00  0.00    +0.000 HD
ENDBRANCH   9  11
ENDBRANCH   8   9
ENDBRANCH   2   6
ENDBRANCH   1   2
BRANCH   1  13
ATOM     13  C   UNL     1       5.136   5.923  19.099  0.00  0.00    +0.000 C 
BRANCH  13  14
ATOM     14  C   UNL     1       4.125   4.871  19.404  0.00  0.00    +0.000 A 
ATOM     15  C   UNL     1       3.028   4.832  20.241  0.00  0.00    +0.000 A 
ATOM     16  C   UNL     1       2.472   3.516  20.153  0.00  0.00    +0.000 A 
ATOM     17  C   UNL     1       3.279   2.848  19.242  0.00  0.00    +0.000 A 
ATOM     18  C   UNL     1       3.303   1.473  18.690  0.00  0.00    +0.000 C 
ATOM     19  O   UNL     1       4.266   3.670  18.780  0.00  0.00    +0.000 OA
BRANCH  16  20
ATOM     20  C   UNL     1       1.326   2.929  20.841  0.00  0.00    +0.000 C 
ATOM     21  O   UNL     1       1.360   2.494  21.983  0.00  0.00    +0.000 OA
BRANCH  20  22
ATOM     22  O   UNL     1       0.177   2.886  20.120  0.00  0.00    +0.000 OA
ATOM     23  H   UNL     1      -0.613   3.130  20.629  0.00  0.00    +0.000 HD
ENDBRANCH  20  22
ENDBRANCH  16  20
ENDBRANCH  13  14
ENDBRANCH   1  13
TORSDOF 8
ENDMDL
MODEL 9
REMARK VINA RESULT:      -7.0      1.212      1.562
REMARK  Name = 
REMARK  10 active torsions:
REMARK  status: ('A' for Active; 'I' for Inactive)
REMARK    1  A    between atoms: C_1  and  C_2
REMARK    2  A    between atoms: C_4  and  C_5
REMARK    3  A    between atoms: C_5  and  S_6
REMARK    4  A    between atoms: S_6  and  C_7
REMARK    5  A    between atoms: C_7  and  C_8
REMARK    6  A    between atoms: C_10  and  C_11
REMARK    7  A    between atoms: C_11  and  O_13
REMARK    8  A    between atoms: C_14  and  C_15
REMARK    9  A    between atoms: C_18  and  C_19
REMARK   10  A    between atoms: C_19  and  O_21
REMARK                            x       y       z     vdW  Elec       q    Type
REMARK                         _______ _______ _______ _____ _____    ______ ____
ROOT
ATOM      1  S   UNL     1       6.114   6.425  17.535  0.00  0.00    +0.000 S 
ENDROOT
BRANCH   1   2
ATOM      2  C   UNL     1       4.404   6.000  17.078  0.00  0.00    +0.000 C 
BRANCH   2   6
ATOM      3  C   UNL     1       1.504   7.028  20.778  0.00  0.00    +0.000 C 
ATOM      4  C   UNL     1       2.256   6.055  19.954  0.00  0.00    +0.000 A 
ATOM      5  O   UNL     1       2.978   6.621  18.942  0.00  0.00    +0.000 OA
ATOM      6  C   UNL     1       3.591   5.619  18.257  0.00  0.00    +0.000 A 
ATOM      7  C   UNL     1       3.293   4.413  18.844  0.00  0.00    +0.000 A 
ATOM      8  C   UNL     1       2.411   4.673  19.944  0.00  0.00    +0.000 A 
BRANCH   8   9
ATOM      9  C   UNL     1       1.844   3.636  20.794  0.00  0.00    +0.000 C 
ATOM     10  O   UNL     1       0.948   2.894  20.411  0.00  0.00    +0.000 OA
BRANCH   9  11
ATOM     11  O   UNL     1       2.344   3.519  22.048  0.00  0.00    +0.000 OA
ATOM     12  H   UNL     1       1.765   3.846  22.750  0.00  0.00    +0.000 HD
ENDBRANCH   9  11
ENDBRANCH   8   9
ENDBRANCH   2   6
ENDBRANCH   1   2
BRANCH   1  13
ATOM     13  C   UNL     1       6.977   4.872  17.098  0.00  0.00    +0.000 C 
BRANCH  13  14
ATOM     14  C   UNL     1       6.813   4.615  15.638  0.00  0.00    +0.000 A 
ATOM     15  C   UNL     1       6.029   3.737  14.917  0.00  0.00    +0.000 A 
ATOM     16  C   UNL     1       6.352   3.915  13.534  0.00  0.00    +0.000 A 
ATOM     17  C   UNL     1       7.315   4.916  13.518  0.00  0.00    +0.000 A 
ATOM     18  C   UNL     1       8.097   5.586  12.453  0.00  0.00    +0.000 C 
ATOM     19  O   UNL     1       7.580   5.347  14.786  0.00  0.00    +0.000 OA
BRANCH  16  20
ATOM     20  C   UNL     1       5.839   3.232  12.351  0.00  0.00    +0.000 C 
ATOM     21  O   UNL     1       4.732   3.431  11.869  0.00  0.00    +0.000 OA
BRANCH  20  22
ATOM     22  O   UNL     1       6.681   2.326  11.793  0.00  0.00    +0.000 OA
ATOM     23  H   UNL     1       7.608   2.439  12.059  0.00  0.00    +0.000 HD
ENDBRANCH  20  22
ENDBRANCH  16  20
ENDBRANCH  13  14
ENDBRANCH   1  13
TORSDOF 8
ENDMDL
