MODEL 1
REMARK VINA RESULT:      -9.0      0.000      0.000
REMARK  Name = 
REMARK  13 active torsions:
REMARK  status: ('A' for Active; 'I' for Inactive)
REMARK    1  A    between atoms: C_1  and  C_2
REMARK    2  A    between atoms: C_2  and  C_3
REMARK    3  A    between atoms: C_2  and  C_4
REMARK    4  A    between atoms: C_4  and  C_5
REMARK    5  A    between atoms: C_5  and  N_6
REMARK    6  A    between atoms: C_5  and  C_24
REMARK    7  A    between atoms: C_7  and  C_9
REMARK    8  A    between atoms: C_9  and  O_10
REMARK    9  A    between atoms: C_9  and  C_11
REMARK   10  A    between atoms: C_13  and  C_14
REMARK   11  A    between atoms: C_13  and  O_15
REMARK   12  A    between atoms: C_16  and  C_17
REMARK   13  A    between atoms: C_30  and  O_31
REMARK                            x       y       z     vdW  Elec       q    Type
REMARK                         _______ _______ _______ _____ _____    ______ ____
ROOT
ATOM      1  N   UNL     1       3.272   7.322  18.012  0.00  0.00    +0.000 N 
ATOM      2  C   UNL     1       2.283   7.885  18.813  0.00  0.00    +0.000 C 
ATOM      3  O   UNL     1       2.001   7.429  19.922  0.00  0.00    +0.000 OA
ATOM      4  H   UNL     1       3.443   7.734  17.099  0.00  0.00    +0.000 HD
ENDROOT
BRANCH   1   5
ATOM      5  C   UNL     1       3.945   6.061  18.381  0.00  0.00    +0.000 C 
BRANCH   5   6
ATOM      6  C   UNL     1       3.465   4.850  17.501  0.00  0.00    +0.000 C 
ATOM      7  C   UNL     1       2.043   4.353  17.728  0.00  0.00    +0.000 C 
ATOM      8  C   UNL     1       1.949   3.692  19.074  0.00  0.00    +0.000 A 
ATOM      9  C   UNL     1       0.709   3.621  19.722  0.00  0.00    +0.000 A 
ATOM     10  C   UNL     1       0.615   3.047  20.988  0.00  0.00    +0.000 A 
ATOM     11  C   UNL     1       1.764   2.535  21.610  0.00  0.00    +0.000 A 
ATOM     12  C   UNL     1       2.980   2.568  20.952  0.00  0.00    +0.000 A 
ATOM     13  C   UNL     1       3.102   3.132  19.667  0.00  0.00    +0.000 A 
ATOM     14  C   UNL     1       4.390   3.128  18.918  0.00  0.00    +0.000 C 
ATOM     15  O   UNL     1       5.431   2.637  19.324  0.00  0.00    +0.000 OA
ATOM     16  O   UNL     1       4.345   3.717  17.686  0.00  0.00    +0.000 OA
BRANCH  12  17
ATOM     17  O   UNL     1       4.078   2.066  21.589  0.00  0.00    +0.000 OA
ATOM     18  H   UNL     1       4.274   1.172  21.268  0.00  0.00    +0.000 HD
ENDBRANCH  12  17
ENDBRANCH   5   6
BRANCH   5  19
ATOM     19  C   UNL     1       5.495   6.153  18.313  0.00  0.00    +0.000 C 
BRANCH  19  21
ATOM     20  C   UNL     1       7.326   7.735  17.432  0.00  0.00    +0.000 C 
ATOM     21  C   UNL     1       6.113   6.866  17.093  0.00  0.00    +0.000 C 
ATOM     22  C   UNL     1       6.557   5.817  16.059  0.00  0.00    +0.000 C 
ENDBRANCH  19  21
ENDBRANCH   5  19
ENDBRANCH   1   5
BRANCH   2  23
ATOM     23  C   UNL     1       1.496   9.064  18.185  0.00  0.00    +0.000 C 
BRANCH  23  24
ATOM     24  C   UNL     1       0.909  10.112  19.217  0.00  0.00    +0.000 C 
ATOM     25  O   UNL     1       1.472  11.368  18.808  0.00  0.00    +0.000 OA
ATOM     26  C   UNL     1       0.908  12.575  19.322  0.00  0.00    +0.000 C 
ATOM     27  C   UNL     1       1.548  13.647  18.441  0.00  0.00    +0.000 C 
ATOM     28  C   UNL     1      -0.692  12.585  19.281  0.00  0.00    +0.000 C 
ATOM     29  C   UNL     1      -1.257  13.871  19.924  0.00  0.00    +0.000 C 
ATOM     30  N   UNL     1      -1.295  12.498  17.965  0.00  0.00    +0.000 N 
ATOM     31  C   UNL     1      -1.738  11.370  17.360  0.00  0.00    +0.000 C 
ATOM     32  O   UNL     1      -2.413  11.442  16.334  0.00  0.00    +0.000 OA
ATOM     33  C   UNL     1      -1.392  10.051  17.982  0.00  0.00    +0.000 C 
ATOM     34  C   UNL     1      -0.663  10.185  19.319  0.00  0.00    +0.000 C 
ATOM     35  N   UNL     1      -1.190  11.401  20.004  0.00  0.00    +0.000 NA
ATOM     36  H   UNL     1      -1.631  13.344  17.523  0.00  0.00    +0.000 HD
ATOM     37  H   UNL     1      -0.876  11.409  20.970  0.00  0.00    +0.000 HD
BRANCH  26  38
ATOM     38  O   UNL     1       1.400  12.820  20.648  0.00  0.00    +0.000 OA
ATOM     39  H   UNL     1       1.715  11.987  21.026  0.00  0.00    +0.000 HD
ENDBRANCH  26  38
ENDBRANCH  23  24
BRANCH  23  40
ATOM     40  O   UNL     1       2.241   9.678  17.120  0.00  0.00    +0.000 OA
ATOM     41  H   UNL     1       2.761   8.997  16.666  0.00  0.00    +0.000 HD
ENDBRANCH  23  40
ENDBRANCH   2  23
TORSDOF 9
ENDMDL
MODEL 2
REMARK VINA RESULT:      -8.8      0.909      1.033
REMARK  Name = 
REMARK  13 active torsions:
REMARK  status: ('A' for Active; 'I' for Inactive)
REMARK    1  A    between atoms: C_1  and  C_2
REMARK    2  A    between atoms: C_2  and  C_3
REMARK    3  A    between atoms: C_2  and  C_4
REMARK    4  A    between atoms: C_4  and  C_5
REMARK    5  A    between atoms: C_5  and  N_6
REMARK    6  A    between atoms: C_5  and  C_24
REMARK    7  A    between atoms: C_7  and  C_9
REMARK    8  A    between atoms: C_9  and  O_10
REMARK    9  A    between atoms: C_9  and  C_11
REMARK   10  A    between atoms: C_13  and  C_14
REMARK   11  A    between atoms: C_13  and  O_15
REMARK   12  A    between atoms: C_16  and  C_17
REMARK   13  A    between atoms: C_30  and  O_31
REMARK                            x       y       z     vdW  Elec       q    Type
REMARK                         _______ _______ _______ _____ _____    ______ ____
ROOT
ATOM      1  N   UNL     1       2.899   7.349  17.571  0.00  0.00    +0.000 N 
ATOM      2  C   UNL     1       2.244   7.985  18.621  0.00  0.00    +0.000 C 
ATOM      3  O   UNL     1       2.223   7.514  19.759  0.00  0.00    +0.000 OA
ATOM      4  H   UNL     1       2.863   7.779  16.651  0.00  0.00    +0.000 HD
ENDROOT
BRANCH   1   5
ATOM      5  C   UNL     1       3.488   6.004  17.724  0.00  0.00    +0.000 C 
BRANCH   5   6
ATOM      6  C   UNL     1       2.540   4.873  17.184  0.00  0.00    +0.000 C 
ATOM      7  C   UNL     1       1.355   4.488  18.061  0.00  0.00    +0.000 C 
ATOM      8  C   UNL     1       1.847   3.785  19.293  0.00  0.00    +0.000 A 
ATOM      9  C   UNL     1       1.061   3.792  20.453  0.00  0.00    +0.000 A 
ATOM     10  C   UNL     1       1.524   3.179  21.614  0.00  0.00    +0.000 A 
ATOM     11  C   UNL     1       2.777   2.548  21.619  0.00  0.00    +0.000 A 
ATOM     12  C   UNL     1       3.536   2.505  20.463  0.00  0.00    +0.000 A 
ATOM     13  C   UNL     1       3.086   3.107  19.272  0.00  0.00    +0.000 A 
ATOM     14  C   UNL     1       3.860   3.025  18.000  0.00  0.00    +0.000 C 
ATOM     15  O   UNL     1       4.920   2.433  17.866  0.00  0.00    +0.000 OA
ATOM     16  O   UNL     1       3.293   3.663  16.934  0.00  0.00    +0.000 OA
BRANCH  12  17
ATOM     17  O   UNL     1       4.752   1.888  20.505  0.00  0.00    +0.000 OA
ATOM     18  H   UNL     1       5.464   2.548  20.489  0.00  0.00    +0.000 HD
ENDBRANCH  12  17
ENDBRANCH   5   6
BRANCH   5  19
ATOM     19  C   UNL     1       4.879   5.865  17.045  0.00  0.00    +0.000 C 
BRANCH  19  21
ATOM     20  C   UNL     1       5.875   5.467  19.387  0.00  0.00    +0.000 C 
ATOM     21  C   UNL     1       6.124   5.938  17.953  0.00  0.00    +0.000 C 
ATOM     22  C   UNL     1       7.242   5.064  17.357  0.00  0.00    +0.000 C 
ENDBRANCH  19  21
ENDBRANCH   5  19
ENDBRANCH   1   5
BRANCH   2  23
ATOM     23  C   UNL     1       1.466   9.273  18.249  0.00  0.00    +0.000 C 
BRANCH  23  24
ATOM     24  C   UNL     1       0.973  10.144  19.476  0.00  0.00    +0.000 C 
ATOM     25  O   UNL     1       1.457  11.465  19.192  0.00  0.00    +0.000 OA
ATOM     26  C   UNL     1       0.925  12.566  19.930  0.00  0.00    +0.000 C 
ATOM     27  C   UNL     1       1.438  13.775  19.147  0.00  0.00    +0.000 C 
ATOM     28  C   UNL     1      -0.669  12.520  20.062  0.00  0.00    +0.000 C 
ATOM     29  C   UNL     1      -1.189  13.681  20.938  0.00  0.00    +0.000 C 
ATOM     30  N   UNL     1      -1.413  12.593  18.819  0.00  0.00    +0.000 N 
ATOM     31  C   UNL     1      -1.893  11.543  18.110  0.00  0.00    +0.000 C 
ATOM     32  O   UNL     1      -2.679  11.731  17.183  0.00  0.00    +0.000 OA
ATOM     33  C   UNL     1      -1.449  10.165  18.498  0.00  0.00    +0.000 C 
ATOM     34  C   UNL     1      -0.580  10.140  19.755  0.00  0.00    +0.000 C 
ATOM     35  N   UNL     1      -1.056  11.229  20.658  0.00  0.00    +0.000 NA
ATOM     36  H   UNL     1      -1.816  13.478  18.541  0.00  0.00    +0.000 HD
ATOM     37  H   UNL     1      -0.636  11.115  21.576  0.00  0.00    +0.000 HD
BRANCH  26  38
ATOM     38  O   UNL     1       1.556  12.644  21.217  0.00  0.00    +0.000 OA
ATOM     39  H   UNL     1       2.512  12.546  21.106  0.00  0.00    +0.000 HD
ENDBRANCH  26  38
ENDBRANCH  23  24
BRANCH  23  40
ATOM     40  O   UNL     1       2.173  10.041  17.261  0.00  0.00    +0.000 OA
ATOM     41  H   UNL     1       2.576  10.811  17.689  0.00  0.00    +0.000 HD
ENDBRANCH  23  40
ENDBRANCH   2  23
TORSDOF 9
ENDMDL
MODEL 3
REMARK VINA RESULT:      -8.0      1.093      3.730
REMARK  Name = 
REMARK  13 active torsions:
REMARK  status: ('A' for Active; 'I' for Inactive)
REMARK    1  A    between atoms: C_1  and  C_2
REMARK    2  A    between atoms: C_2  and  C_3
REMARK    3  A    between atoms: C_2  and  C_4
REMARK    4  A    between atoms: C_4  and  C_5
REMARK    5  A    between atoms: C_5  and  N_6
REMARK    6  A    between atoms: C_5  and  C_24
REMARK    7  A    between atoms: C_7  and  C_9
REMARK    8  A    between atoms: C_9  and  O_10
REMARK    9  A    between atoms: C_9  and  C_11
REMARK   10  A    between atoms: C_13  and  C_14
REMARK   11  A    between atoms: C_13  and  O_15
REMARK   12  A    between atoms: C_16  and  C_17
REMARK   13  A    between atoms: C_30  and  O_31
REMARK                            x       y       z     vdW  Elec       q    Type
REMARK                         _______ _______ _______ _____ _____    ______ ____
ROOT
ATOM      1  N   UNL     1       2.230   6.712  18.480  0.00  0.00    +0.000 N 
ATOM      2  C   UNL     1       1.899   7.827  19.245  0.00  0.00    +0.000 C 
ATOM      3  O   UNL     1       1.969   7.819  20.474  0.00  0.00    +0.000 OA
ATOM      4  H   UNL     1       2.132   6.776  17.470  0.00  0.00    +0.000 HD
ENDROOT
BRANCH   1   5
ATOM      5  C   UNL     1       2.550   5.412  19.100  0.00  0.00    +0.000 C 
BRANCH   5   6
ATOM      6  C   UNL     1       3.995   5.384  19.717  0.00  0.00    +0.000 C 
ATOM      7  C   UNL     1       5.075   6.167  18.980  0.00  0.00    +0.000 C 
ATOM      8  C   UNL     1       5.385   5.492  17.675  0.00  0.00    +0.000 A 
ATOM      9  C   UNL     1       5.926   6.241  16.622  0.00  0.00    +0.000 A 
ATOM     10  C   UNL     1       6.181   5.636  15.394  0.00  0.00    +0.000 A 
ATOM     11  C   UNL     1       5.901   4.273  15.215  0.00  0.00    +0.000 A 
ATOM     12  C   UNL     1       5.406   3.524  16.267  0.00  0.00    +0.000 A 
ATOM     13  C   UNL     1       5.149   4.108  17.523  0.00  0.00    +0.000 A 
ATOM     14  C   UNL     1       4.670   3.308  18.686  0.00  0.00    +0.000 C 
ATOM     15  O   UNL     1       4.472   2.104  18.670  0.00  0.00    +0.000 OA
ATOM     16  O   UNL     1       4.465   4.021  19.833  0.00  0.00    +0.000 OA
BRANCH  12  17
ATOM     17  O   UNL     1       5.139   2.202  16.056  0.00  0.00    +0.000 OA
ATOM     18  H   UNL     1       4.187   2.033  16.142  0.00  0.00    +0.000 HD
ENDBRANCH  12  17
ENDBRANCH   5   6
BRANCH   5  19
ATOM     19  C   UNL     1       1.526   4.986  20.189  0.00  0.00    +0.000 C 
BRANCH  19  21
ATOM     20  C   UNL     1       1.084   2.938  18.691  0.00  0.00    +0.000 C 
ATOM     21  C   UNL     1       0.899   3.583  20.067  0.00  0.00    +0.000 C 
ATOM     22  C   UNL     1       1.528   2.648  21.115  0.00  0.00    +0.000 C 
ENDBRANCH  19  21
ENDBRANCH   5  19
ENDBRANCH   1   5
BRANCH   2  23
ATOM     23  C   UNL     1       1.348   9.045  18.460  0.00  0.00    +0.000 C 
BRANCH  23  24
ATOM     24  C   UNL     1       0.943  10.293  19.346  0.00  0.00    +0.000 C 
ATOM     25  O   UNL     1       1.594  11.405  18.713  0.00  0.00    +0.000 OA
ATOM     26  C   UNL     1       1.190  12.730  19.062  0.00  0.00    +0.000 C 
ATOM     27  C   UNL     1       1.867  13.582  17.988  0.00  0.00    +0.000 C 
ATOM     28  C   UNL     1      -0.400  12.906  19.110  0.00  0.00    +0.000 C 
ATOM     29  C   UNL     1      -0.788  14.327  19.573  0.00  0.00    +0.000 C 
ATOM     30  N   UNL     1      -1.103  12.687  17.861  0.00  0.00    +0.000 N 
ATOM     31  C   UNL     1      -1.696  11.535  17.466  0.00  0.00    +0.000 C 
ATOM     32  O   UNL     1      -2.433  11.524  16.481  0.00  0.00    +0.000 OA
ATOM     33  C   UNL     1      -1.436  10.295  18.267  0.00  0.00    +0.000 C 
ATOM     34  C   UNL     1      -0.603  10.550  19.524  0.00  0.00    +0.000 C 
ATOM     35  N   UNL     1      -0.958  11.905  20.037  0.00  0.00    +0.000 NA
ATOM     36  H   UNL     1      -1.385  13.488  17.310  0.00  0.00    +0.000 HD
ATOM     37  H   UNL     1      -0.575  12.025  20.970  0.00  0.00    +0.000 HD
BRANCH  26  38
ATOM     38  O   UNL     1       1.799  13.117  20.302  0.00  0.00    +0.000 OA
ATOM     39  H   UNL     1       2.202  13.990  20.196  0.00  0.00    +0.000 HD
ENDBRANCH  26  38
ENDBRANCH  23  24
BRANCH  23  40
ATOM     40  O   UNL     1       2.210   9.388  17.362  0.00  0.00    +0.000 OA
ATOM     41  H   UNL     1       2.593  10.264  17.524  0.00  0.00    +0.000 HD
ENDBRANCH  23  40
ENDBRANCH   2  23
TORSDOF 9
ENDMDL
MODEL 4
REMARK VINA RESULT:      -7.6      1.428      2.688
REMARK  Name = 
REMARK  13 active torsions:
REMARK  status: ('A' for Active; 'I' for Inactive)
REMARK    1  A    between atoms: C_1  and  C_2
REMARK    2  A    between atoms: C_2  and  C_3
REMARK    3  A    between atoms: C_2  and  C_4
REMARK    4  A    between atoms: C_4  and  C_5
REMARK    5  A    between atoms: C_5  and  N_6
REMARK    6  A    between atoms: C_5  and  C_24
REMARK    7  A    between atoms: C_7  and  C_9
REMARK    8  A    between atoms: C_9  and  O_10
REMARK    9  A    between atoms: C_9  and  C_11
REMARK   10  A    between atoms: C_13  and  C_14
REMARK   11  A    between atoms: C_13  and  O_15
REMARK   12  A    between atoms: C_16  and  C_17
REMARK   13  A    between atoms: C_30  and  O_31
REMARK                            x       y       z     vdW  Elec       q    Type
REMARK                         _______ _______ _______ _____ _____    ______ ____
ROOT
ATOM      1  N   UNL     1       2.580   7.494  19.011  0.00  0.00    +0.000 N 
ATOM      2  C   UNL     1       2.120   8.624  18.340  0.00  0.00    +0.000 C 
ATOM      3  O   UNL     1       2.266   8.766  17.125  0.00  0.00    +0.000 OA
ATOM      4  H   UNL     1       2.446   7.446  20.018  0.00  0.00    +0.000 HD
ENDROOT
BRANCH   1   5
ATOM      5  C   UNL     1       3.394   6.466  18.334  0.00  0.00    +0.000 C 
BRANCH   5   6
ATOM      6  C   UNL     1       2.510   5.401  17.590  0.00  0.00    +0.000 C 
ATOM      7  C   UNL     1       1.331   4.821  18.362  0.00  0.00    +0.000 C 
ATOM      8  C   UNL     1       1.837   3.944  19.470  0.00  0.00    +0.000 A 
ATOM      9  C   UNL     1       1.033   3.720  20.596  0.00  0.00    +0.000 A 
ATOM     10  C   UNL     1       1.506   2.941  21.649  0.00  0.00    +0.000 A 
ATOM     11  C   UNL     1       2.788   2.375  21.578  0.00  0.00    +0.000 A 
ATOM     12  C   UNL     1       3.566   2.562  20.450  0.00  0.00    +0.000 A 
ATOM     13  C   UNL     1       3.107   3.335  19.365  0.00  0.00    +0.000 A 
ATOM     14  C   UNL     1       3.905   3.503  18.117  0.00  0.00    +0.000 C 
ATOM     15  O   UNL     1       4.993   2.990  17.911  0.00  0.00    +0.000 OA
ATOM     16  O   UNL     1       3.324   4.285  17.160  0.00  0.00    +0.000 OA
BRANCH  12  17
ATOM     17  O   UNL     1       4.810   2.002  20.417  0.00  0.00    +0.000 OA
ATOM     18  H   UNL     1       4.816   1.230  19.829  0.00  0.00    +0.000 HD
ENDBRANCH  12  17
ENDBRANCH   5   6
BRANCH   5  19
ATOM     19  C   UNL     1       4.421   7.062  17.331  0.00  0.00    +0.000 C 
BRANCH  19  21
ATOM     20  C   UNL     1       6.109   5.707  15.935  0.00  0.00    +0.000 C 
ATOM     21  C   UNL     1       5.814   6.405  17.265  0.00  0.00    +0.000 C 
ATOM     22  C   UNL     1       6.895   7.478  17.485  0.00  0.00    +0.000 C 
ENDBRANCH  19  21
ENDBRANCH   5  19
ENDBRANCH   1   5
BRANCH   2  23
ATOM     23  C   UNL     1       1.497   9.730  19.228  0.00  0.00    +0.000 C 
BRANCH  23  24
ATOM     24  C   UNL     1       0.997  11.018  18.455  0.00  0.00    +0.000 C 
ATOM     25  O   UNL     1      -0.319  11.258  18.977  0.00  0.00    +0.000 OA
ATOM     26  C   UNL     1      -0.937  12.522  18.731  0.00  0.00    +0.000 C 
ATOM     27  C   UNL     1      -2.137  12.499  19.677  0.00  0.00    +0.000 C 
ATOM     28  C   UNL     1       0.049  13.758  18.979  0.00  0.00    +0.000 C 
ATOM     29  C   UNL     1      -0.635  15.096  18.620  0.00  0.00    +0.000 C 
ATOM     30  N   UNL     1       0.546  13.914  20.332  0.00  0.00    +0.000 N 
ATOM     31  C   UNL     1       1.730  13.459  20.809  0.00  0.00    +0.000 C 
ATOM     32  O   UNL     1       2.134  13.823  21.912  0.00  0.00    +0.000 OA
ATOM     33  C   UNL     1       2.523  12.520  19.952  0.00  0.00    +0.000 C 
ATOM     34  C   UNL     1       1.910  12.299  18.569  0.00  0.00    +0.000 C 
ATOM     35  N   UNL     1       1.255  13.573  18.153  0.00  0.00    +0.000 NA
ATOM     36  H   UNL     1       0.109  14.597  20.939  0.00  0.00    +0.000 HD
ATOM     37  H   UNL     1       1.014  13.525  17.168  0.00  0.00    +0.000 HD
BRANCH  26  38
ATOM     38  O   UNL     1      -1.489  12.549  17.407  0.00  0.00    +0.000 OA
ATOM     39  H   UNL     1      -2.409  12.843  17.456  0.00  0.00    +0.000 HD
ENDBRANCH  26  38
ENDBRANCH  23  24
BRANCH  23  40
ATOM     40  O   UNL     1       0.507   9.187  20.118  0.00  0.00    +0.000 OA
ATOM     41  H   UNL     1      -0.304   9.011  19.617  0.00  0.00    +0.000 HD
ENDBRANCH  23  40
ENDBRANCH   2  23
TORSDOF 9
ENDMDL
MODEL 5
REMARK VINA RESULT:      -7.6      1.571      2.535
REMARK  Name = 
REMARK  13 active torsions:
REMARK  status: ('A' for Active; 'I' for Inactive)
REMARK    1  A    between atoms: C_1  and  C_2
REMARK    2  A    between atoms: C_2  and  C_3
REMARK    3  A    between atoms: C_2  and  C_4
REMARK    4  A    between atoms: C_4  and  C_5
REMARK    5  A    between atoms: C_5  and  N_6
REMARK    6  A    between atoms: C_5  and  C_24
REMARK    7  A    between atoms: C_7  and  C_9
REMARK    8  A    between atoms: C_9  and  O_10
REMARK    9  A    between atoms: C_9  and  C_11
REMARK   10  A    between atoms: C_13  and  C_14
REMARK   11  A    between atoms: C_13  and  O_15
REMARK   12  A    between atoms: C_16  and  C_17
REMARK   13  A    between atoms: C_30  and  O_31
REMARK                            x       y       z     vdW  Elec       q    Type
REMARK                         _______ _______ _______ _____ _____    ______ ____
ROOT
ATOM      1  N   UNL     1       2.594   7.227  19.268  0.00  0.00    +0.000 N 
ATOM      2  C   UNL     1       1.862   8.339  18.861  0.00  0.00    +0.000 C 
ATOM      3  O   UNL     1       1.618   8.561  17.674  0.00  0.00    +0.000 OA
ATOM      4  H   UNL     1       2.778   7.110  20.261  0.00  0.00    +0.000 HD
ENDROOT
BRANCH   1   5
ATOM      5  C   UNL     1       3.242   6.325  18.296  0.00  0.00    +0.000 C 
BRANCH   5   6
ATOM      6  C   UNL     1       2.237   5.280  17.690  0.00  0.00    +0.000 C 
ATOM      7  C   UNL     1       1.203   4.687  18.638  0.00  0.00    +0.000 C 
ATOM      8  C   UNL     1       1.884   3.782  19.624  0.00  0.00    +0.000 A 
ATOM      9  C   UNL     1       1.282   3.535  20.865  0.00  0.00    +0.000 A 
ATOM     10  C   UNL     1       1.923   2.731  21.804  0.00  0.00    +0.000 A 
ATOM     11  C   UNL     1       3.170   2.163  21.504  0.00  0.00    +0.000 A 
ATOM     12  C   UNL     1       3.745   2.373  20.264  0.00  0.00    +0.000 A 
ATOM     13  C   UNL     1       3.114   3.172  19.291  0.00  0.00    +0.000 A 
ATOM     14  C   UNL     1       3.688   3.366  17.929  0.00  0.00    +0.000 C 
ATOM     15  O   UNL     1       4.723   2.855  17.529  0.00  0.00    +0.000 OA
ATOM     16  O   UNL     1       2.959   4.173  17.102  0.00  0.00    +0.000 OA
BRANCH  12  17
ATOM     17  O   UNL     1       4.962   1.810  20.007  0.00  0.00    +0.000 OA
ATOM     18  H   UNL     1       4.855   0.879  19.753  0.00  0.00    +0.000 HD
ENDBRANCH  12  17
ENDBRANCH   5   6
BRANCH   5  19
ATOM     19  C   UNL     1       3.947   7.082  17.136  0.00  0.00    +0.000 C 
BRANCH  19  21
ATOM     20  C   UNL     1       6.130   6.044  18.026  0.00  0.00    +0.000 C 
ATOM     21  C   UNL     1       5.427   6.745  16.861  0.00  0.00    +0.000 C 
ATOM     22  C   UNL     1       5.521   5.825  15.631  0.00  0.00    +0.000 C 
ENDBRANCH  19  21
ENDBRANCH   5  19
ENDBRANCH   1   5
BRANCH   2  23
ATOM     23  C   UNL     1       1.453   9.326  19.984  0.00  0.00    +0.000 C 
BRANCH  23  24
ATOM     24  C   UNL     1       0.339  10.378  19.586  0.00  0.00    +0.000 C 
ATOM     25  O   UNL     1      -0.046  10.976  20.833  0.00  0.00    +0.000 OA
ATOM     26  C   UNL     1      -0.804  12.187  20.811  0.00  0.00    +0.000 C 
ATOM     27  C   UNL     1      -0.741  12.650  22.267  0.00  0.00    +0.000 C 
ATOM     28  C   UNL     1      -0.232  13.263  19.774  0.00  0.00    +0.000 C 
ATOM     29  C   UNL     1      -1.129  14.519  19.723  0.00  0.00    +0.000 C 
ATOM     30  N   UNL     1       1.112  13.743  20.030  0.00  0.00    +0.000 N 
ATOM     31  C   UNL     1       2.253  13.270  19.473  0.00  0.00    +0.000 C 
ATOM     32  O   UNL     1       3.310  13.883  19.610  0.00  0.00    +0.000 OA
ATOM     33  C   UNL     1       2.179  11.998  18.684  0.00  0.00    +0.000 C 
ATOM     34  C   UNL     1       0.754  11.467  18.523  0.00  0.00    +0.000 C 
ATOM     35  N   UNL     1      -0.162  12.641  18.439  0.00  0.00    +0.000 NA
ATOM     36  H   UNL     1       1.234  14.640  20.484  0.00  0.00    +0.000 HD
ATOM     37  H   UNL     1      -1.081  12.333  18.136  0.00  0.00    +0.000 HD
BRANCH  26  38
ATOM     38  O   UNL     1      -2.186  11.897  20.558  0.00  0.00    +0.000 OA
ATOM     39  H   UNL     1      -2.451  11.135  21.091  0.00  0.00    +0.000 HD
ENDBRANCH  26  38
ENDBRANCH  23  24
BRANCH  23  40
ATOM     40  O   UNL     1       1.161   8.630  21.207  0.00  0.00    +0.000 OA
ATOM     41  H   UNL     1       1.438   9.179  21.956  0.00  0.00    +0.000 HD
ENDBRANCH  23  40
ENDBRANCH   2  23
TORSDOF 9
ENDMDL
MODEL 6
REMARK VINA RESULT:      -7.5      2.253      9.013
REMARK  Name = 
REMARK  13 active torsions:
REMARK  status: ('A' for Active; 'I' for Inactive)
REMARK    1  A    between atoms: C_1  and  C_2
REMARK    2  A    between atoms: C_2  and  C_3
REMARK    3  A    between atoms: C_2  and  C_4
REMARK    4  A    between atoms: C_4  and  C_5
REMARK    5  A    between atoms: C_5  and  N_6
REMARK    6  A    between atoms: C_5  and  C_24
REMARK    7  A    between atoms: C_7  and  C_9
REMARK    8  A    between atoms: C_9  and  O_10
REMARK    9  A    between atoms: C_9  and  C_11
REMARK   10  A    between atoms: C_13  and  C_14
REMARK   11  A    between atoms: C_13  and  O_15
REMARK   12  A    between atoms: C_16  and  C_17
REMARK   13  A    between atoms: C_30  and  O_31
REMARK                            x       y       z     vdW  Elec       q    Type
REMARK                         _______ _______ _______ _____ _____    ______ ____
ROOT
ATOM      1  N   UNL     1       0.883   8.587  19.487  0.00  0.00    +0.000 N 
ATOM      2  C   UNL     1       1.994   8.270  18.711  0.00  0.00    +0.000 C 
ATOM      3  O   UNL     1       2.486   9.072  17.917  0.00  0.00    +0.000 OA
ATOM      4  H   UNL     1       0.513   7.874  20.110  0.00  0.00    +0.000 HD
ENDROOT
BRANCH   1   5
ATOM      5  C   UNL     1       0.141   9.850  19.302  0.00  0.00    +0.000 C 
BRANCH   5   6
ATOM      6  C   UNL     1       0.918  11.088  19.879  0.00  0.00    +0.000 C 
ATOM      7  C   UNL     1       0.771  11.360  21.371  0.00  0.00    +0.000 C 
ATOM      8  C   UNL     1      -0.626  11.828  21.663  0.00  0.00    +0.000 A 
ATOM      9  C   UNL     1      -1.158  11.653  22.947  0.00  0.00    +0.000 A 
ATOM     10  C   UNL     1      -2.466  12.046  23.220  0.00  0.00    +0.000 A 
ATOM     11  C   UNL     1      -3.249  12.623  22.208  0.00  0.00    +0.000 A 
ATOM     12  C   UNL     1      -2.710  12.833  20.951  0.00  0.00    +0.000 A 
ATOM     13  C   UNL     1      -1.386  12.456  20.651  0.00  0.00    +0.000 A 
ATOM     14  C   UNL     1      -0.767  12.725  19.322  0.00  0.00    +0.000 C 
ATOM     15  O   UNL     1      -1.323  13.293  18.396  0.00  0.00    +0.000 OA
ATOM     16  O   UNL     1       0.523  12.295  19.187  0.00  0.00    +0.000 OA
BRANCH  12  17
ATOM     17  O   UNL     1      -3.500  13.391  19.989  0.00  0.00    +0.000 OA
ATOM     18  H   UNL     1      -3.020  13.442  19.147  0.00  0.00    +0.000 HD
ENDBRANCH  12  17
ENDBRANCH   5   6
BRANCH   5  19
ATOM     19  C   UNL     1      -0.228  10.130  17.819  0.00  0.00    +0.000 C 
BRANCH  19  21
ATOM     20  C   UNL     1      -2.698   9.800  18.469  0.00  0.00    +0.000 C 
ATOM     21  C   UNL     1      -1.650   9.754  17.356  0.00  0.00    +0.000 C 
ATOM     22  C   UNL     1      -2.098  10.722  16.246  0.00  0.00    +0.000 C 
ENDBRANCH  19  21
ENDBRANCH   5  19
ENDBRANCH   1   5
BRANCH   2  23
ATOM     23  C   UNL     1       2.517   6.817  18.843  0.00  0.00    +0.000 C 
BRANCH  23  24
ATOM     24  C   UNL     1       3.357   6.286  17.611  0.00  0.00    +0.000 C 
ATOM     25  O   UNL     1       4.683   6.787  17.841  0.00  0.00    +0.000 OA
ATOM     26  C   UNL     1       5.767   6.236  17.092  0.00  0.00    +0.000 C 
ATOM     27  C   UNL     1       6.993   6.783  17.822  0.00  0.00    +0.000 C 
ATOM     28  C   UNL     1       5.727   4.638  17.017  0.00  0.00    +0.000 C 
ATOM     29  C   UNL     1       6.867   4.094  16.129  0.00  0.00    +0.000 C 
ATOM     30  N   UNL     1       5.839   3.939  18.283  0.00  0.00    +0.000 N 
ATOM     31  C   UNL     1       4.812   3.478  19.038  0.00  0.00    +0.000 C 
ATOM     32  O   UNL     1       5.030   2.726  19.986  0.00  0.00    +0.000 OA
ATOM     33  C   UNL     1       3.421   3.900  18.673  0.00  0.00    +0.000 C 
ATOM     34  C   UNL     1       3.356   4.724  17.387  0.00  0.00    +0.000 C 
ATOM     35  N   UNL     1       4.423   4.223  16.471  0.00  0.00    +0.000 NA
ATOM     36  H   UNL     1       6.735   3.551  18.551  0.00  0.00    +0.000 HD
ATOM     37  H   UNL     1       4.281   4.609  15.543  0.00  0.00    +0.000 HD
BRANCH  26  38
ATOM     38  O   UNL     1       5.805   6.821  15.782  0.00  0.00    +0.000 OA
ATOM     39  H   UNL     1       6.173   7.713  15.846  0.00  0.00    +0.000 HD
ENDBRANCH  26  38
ENDBRANCH  23  24
BRANCH  23  40
ATOM     40  O   UNL     1       3.176   6.614  20.104  0.00  0.00    +0.000 OA
ATOM     41  H   UNL     1       2.514   6.632  20.812  0.00  0.00    +0.000 HD
ENDBRANCH  23  40
ENDBRANCH   2  23
TORSDOF 9
ENDMDL
MODEL 7
REMARK VINA RESULT:      -7.5      1.749      2.653
REMARK  Name = 
REMARK  13 active torsions:
REMARK  status: ('A' for Active; 'I' for Inactive)
REMARK    1  A    between atoms: C_1  and  C_2
REMARK    2  A    between atoms: C_2  and  C_3
REMARK    3  A    between atoms: C_2  and  C_4
REMARK    4  A    between atoms: C_4  and  C_5
REMARK    5  A    between atoms: C_5  and  N_6
REMARK    6  A    between atoms: C_5  and  C_24
REMARK    7  A    between atoms: C_7  and  C_9
REMARK    8  A    between atoms: C_9  and  O_10
REMARK    9  A    between atoms: C_9  and  C_11
REMARK   10  A    between atoms: C_13  and  C_14
REMARK   11  A    between atoms: C_13  and  O_15
REMARK   12  A    between atoms: C_16  and  C_17
REMARK   13  A    between atoms: C_30  and  O_31
REMARK                            x       y       z     vdW  Elec       q    Type
REMARK                         _______ _______ _______ _____ _____    ______ ____
ROOT
ATOM      1  N   UNL     1       2.235   7.344  19.054  0.00  0.00    +0.000 N 
ATOM      2  C   UNL     1       2.002   7.233  20.422  0.00  0.00    +0.000 C 
ATOM      3  O   UNL     1       2.536   6.360  21.107  0.00  0.00    +0.000 OA
ATOM      4  H   UNL     1       1.748   8.075  18.542  0.00  0.00    +0.000 HD
ENDROOT
BRANCH   1   5
ATOM      5  C   UNL     1       3.023   6.338  18.316  0.00  0.00    +0.000 C 
BRANCH   5   6
ATOM      6  C   UNL     1       2.116   5.239  17.653  0.00  0.00    +0.000 C 
ATOM      7  C   UNL     1       1.079   4.569  18.545  0.00  0.00    +0.000 C 
ATOM      8  C   UNL     1       1.771   3.696  19.553  0.00  0.00    +0.000 A 
ATOM      9  C   UNL     1       1.129   3.395  20.762  0.00  0.00    +0.000 A 
ATOM     10  C   UNL     1       1.776   2.620  21.721  0.00  0.00    +0.000 A 
ATOM     11  C   UNL     1       3.070   2.137  21.474  0.00  0.00    +0.000 A 
ATOM     12  C   UNL     1       3.687   2.400  20.264  0.00  0.00    +0.000 A 
ATOM     13  C   UNL     1       3.052   3.170  19.271  0.00  0.00    +0.000 A 
ATOM     14  C   UNL     1       3.674   3.418  17.940  0.00  0.00    +0.000 C 
ATOM     15  O   UNL     1       4.756   2.979  17.584  0.00  0.00    +0.000 OA
ATOM     16  O   UNL     1       2.933   4.188  17.088  0.00  0.00    +0.000 OA
BRANCH  12  17
ATOM     17  O   UNL     1       4.948   1.919  20.059  0.00  0.00    +0.000 OA
ATOM     18  H   UNL     1       5.129   1.182  20.663  0.00  0.00    +0.000 HD
ENDBRANCH  12  17
ENDBRANCH   5   6
BRANCH   5  19
ATOM     19  C   UNL     1       3.943   6.960  17.229  0.00  0.00    +0.000 C 
BRANCH  19  21
ATOM     20  C   UNL     1       5.867   5.979  18.632  0.00  0.00    +0.000 C 
ATOM     21  C   UNL     1       5.459   6.708  17.350  0.00  0.00    +0.000 C 
ATOM     22  C   UNL     1       5.933   5.862  16.155  0.00  0.00    +0.000 C 
ENDBRANCH  19  21
ENDBRANCH   5  19
ENDBRANCH   1   5
BRANCH   2  23
ATOM     23  C   UNL     1       0.960   8.217  21.011  0.00  0.00    +0.000 C 
BRANCH  23  24
ATOM     24  C   UNL     1       0.983   9.676  20.396  0.00  0.00    +0.000 C 
ATOM     25  O   UNL     1      -0.148   9.707  19.512  0.00  0.00    +0.000 OA
ATOM     26  C   UNL     1      -0.612  10.970  19.031  0.00  0.00    +0.000 C 
ATOM     27  C   UNL     1      -1.961  10.617  18.407  0.00  0.00    +0.000 C 
ATOM     28  C   UNL     1      -0.710  12.078  20.182  0.00  0.00    +0.000 C 
ATOM     29  C   UNL     1      -1.133  13.446  19.601  0.00  0.00    +0.000 C 
ATOM     30  N   UNL     1      -1.639  11.797  21.259  0.00  0.00    +0.000 N 
ATOM     31  C   UNL     1      -1.335  11.236  22.454  0.00  0.00    +0.000 C 
ATOM     32  O   UNL     1      -2.162  11.231  23.364  0.00  0.00    +0.000 OA
ATOM     33  C   UNL     1       0.030  10.642  22.628  0.00  0.00    +0.000 C 
ATOM     34  C   UNL     1       0.948  10.869  21.428  0.00  0.00    +0.000 C 
ATOM     35  N   UNL     1       0.604  12.196  20.838  0.00  0.00    +0.000 NA
ATOM     36  H   UNL     1      -2.551  12.237  21.247  0.00  0.00    +0.000 HD
ATOM     37  H   UNL     1       1.319  12.465  20.168  0.00  0.00    +0.000 HD
BRANCH  26  38
ATOM     38  O   UNL     1       0.213  11.414  17.944  0.00  0.00    +0.000 OA
ATOM     39  H   UNL     1       0.317  10.689  17.312  0.00  0.00    +0.000 HD
ENDBRANCH  26  38
ENDBRANCH  23  24
BRANCH  23  40
ATOM     40  O   UNL     1      -0.354   7.634  21.031  0.00  0.00    +0.000 OA
ATOM     41  H   UNL     1      -0.985   8.290  21.365  0.00  0.00    +0.000 HD
ENDBRANCH  23  40
ENDBRANCH   2  23
TORSDOF 9
ENDMDL
MODEL 8
REMARK VINA RESULT:      -7.5      1.507      2.504
REMARK  Name = 
REMARK  13 active torsions:
REMARK  status: ('A' for Active; 'I' for Inactive)
REMARK    1  A    between atoms: C_1  and  C_2
REMARK    2  A    between atoms: C_2  and  C_3
REMARK    3  A    between atoms: C_2  and  C_4
REMARK    4  A    between atoms: C_4  and  C_5
REMARK    5  A    between atoms: C_5  and  N_6
REMARK    6  A    between atoms: C_5  and  C_24
REMARK    7  A    between atoms: C_7  and  C_9
REMARK    8  A    between atoms: C_9  and  O_10
REMARK    9  A    between atoms: C_9  and  C_11
REMARK   10  A    between atoms: C_13  and  C_14
REMARK   11  A    between atoms: C_13  and  O_15
REMARK   12  A    between atoms: C_16  and  C_17
REMARK   13  A    between atoms: C_30  and  O_31
REMARK                            x       y       z     vdW  Elec       q    Type
REMARK                         _______ _______ _______ _____ _____    ______ ____
ROOT
ATOM      1  N   UNL     1       2.626   7.060  19.058  0.00  0.00    +0.000 N 
ATOM      2  C   UNL     1       2.077   8.276  18.662  0.00  0.00    +0.000 C 
ATOM      3  O   UNL     1       2.143   8.673  17.498  0.00  0.00    +0.000 OA
ATOM      4  H   UNL     1       2.554   6.797  20.038  0.00  0.00    +0.000 HD
ENDROOT
BRANCH   1   5
ATOM      5  C   UNL     1       3.442   6.240  18.142  0.00  0.00    +0.000 C 
BRANCH   5   6
ATOM      6  C   UNL     1       2.599   5.120  17.432  0.00  0.00    +0.000 C 
ATOM      7  C   UNL     1       1.393   4.579  18.190  0.00  0.00    +0.000 C 
ATOM      8  C   UNL     1       1.859   3.781  19.373  0.00  0.00    +0.000 A 
ATOM      9  C   UNL     1       1.009   3.622  20.476  0.00  0.00    +0.000 A 
ATOM     10  C   UNL     1       1.444   2.918  21.597  0.00  0.00    +0.000 A 
ATOM     11  C   UNL     1       2.732   2.362  21.617  0.00  0.00    +0.000 A 
ATOM     12  C   UNL     1       3.555   2.484  20.512  0.00  0.00    +0.000 A 
ATOM     13  C   UNL     1       3.137   3.180  19.362  0.00  0.00    +0.000 A 
ATOM     14  C   UNL     1       3.985   3.275  18.139  0.00  0.00    +0.000 C 
ATOM     15  O   UNL     1       5.086   2.761  18.013  0.00  0.00    +0.000 OA
ATOM     16  O   UNL     1       3.440   3.988  17.110  0.00  0.00    +0.000 OA
BRANCH  12  17
ATOM     17  O   UNL     1       4.804   1.936  20.568  0.00  0.00    +0.000 OA
ATOM     18  H   UNL     1       5.054   1.580  19.701  0.00  0.00    +0.000 HD
ENDBRANCH  12  17
ENDBRANCH   5   6
BRANCH   5  19
ATOM     19  C   UNL     1       4.178   7.081  17.061  0.00  0.00    +0.000 C 
BRANCH  19  21
ATOM     20  C   UNL     1       6.380   6.091  17.958  0.00  0.00    +0.000 C 
ATOM     21  C   UNL     1       5.655   6.741  16.778  0.00  0.00    +0.000 C 
ATOM     22  C   UNL     1       5.735   5.774  15.583  0.00  0.00    +0.000 C 
ENDBRANCH  19  21
ENDBRANCH   5  19
ENDBRANCH   1   5
BRANCH   2  23
ATOM     23  C   UNL     1       1.459   9.138  19.792  0.00  0.00    +0.000 C 
BRANCH  23  24
ATOM     24  C   UNL     1       0.955  10.572  19.351  0.00  0.00    +0.000 C 
ATOM     25  O   UNL     1      -0.392  10.354  18.904  0.00  0.00    +0.000 OA
ATOM     26  C   UNL     1      -1.251  11.482  18.732  0.00  0.00    +0.000 C 
ATOM     27  C   UNL     1      -2.626  10.834  18.563  0.00  0.00    +0.000 C 
ATOM     28  C   UNL     1      -1.177  12.516  19.951  0.00  0.00    +0.000 C 
ATOM     29  C   UNL     1      -2.057  13.757  19.683  0.00  0.00    +0.000 C 
ATOM     30  N   UNL     1      -1.590  12.006  21.245  0.00  0.00    +0.000 N 
ATOM     31  C   UNL     1      -0.777  11.509  22.208  0.00  0.00    +0.000 C 
ATOM     32  O   UNL     1      -1.214  11.294  23.337  0.00  0.00    +0.000 OA
ATOM     33  C   UNL     1       0.656  11.248  21.856  0.00  0.00    +0.000 C 
ATOM     34  C   UNL     1       1.028  11.705  20.446  0.00  0.00    +0.000 C 
ATOM     35  N   UNL     1       0.226  12.925  20.138  0.00  0.00    +0.000 NA
ATOM     36  H   UNL     1      -2.520  12.220  21.582  0.00  0.00    +0.000 HD
ATOM     37  H   UNL     1       0.588  13.366  19.298  0.00  0.00    +0.000 HD
BRANCH  26  38
ATOM     38  O   UNL     1      -0.972  12.126  17.481  0.00  0.00    +0.000 OA
ATOM     39  H   UNL     1      -1.100  13.079  17.582  0.00  0.00    +0.000 HD
ENDBRANCH  26  38
ENDBRANCH  23  24
BRANCH  23  40
ATOM     40  O   UNL     1       0.475   8.397  20.533  0.00  0.00    +0.000 OA
ATOM     41  H   UNL     1      -0.222   8.104  19.925  0.00  0.00    +0.000 HD
ENDBRANCH  23  40
ENDBRANCH   2  23
TORSDOF 9
ENDMDL
MODEL 9
REMARK VINA RESULT:      -7.4      1.581      2.344
REMARK  Name = 
REMARK  13 active torsions:
REMARK  status: ('A' for Active; 'I' for Inactive)
REMARK    1  A    between atoms: C_1  and  C_2
REMARK    2  A    between atoms: C_2  and  C_3
REMARK    3  A    between atoms: C_2  and  C_4
REMARK    4  A    between atoms: C_4  and  C_5
REMARK    5  A    between atoms: C_5  and  N_6
REMARK    6  A    between atoms: C_5  and  C_24
REMARK    7  A    between atoms: C_7  and  C_9
REMARK    8  A    between atoms: C_9  and  O_10
REMARK    9  A    between atoms: C_9  and  C_11
REMARK   10  A    between atoms: C_13  and  C_14
REMARK   11  A    between atoms: C_13  and  O_15
REMARK   12  A    between atoms: C_16  and  C_17
REMARK   13  A    between atoms: C_30  and  O_31
REMARK                            x       y       z     vdW  Elec       q    Type
REMARK                         _______ _______ _______ _____ _____    ______ ____
ROOT
ATOM      1  N   UNL     1       3.796   6.828  17.995  0.00  0.00    +0.000 N 
ATOM      2  C   UNL     1       2.762   7.321  18.786  0.00  0.00    +0.000 C 
ATOM      3  O   UNL     1       2.541   6.887  19.917  0.00  0.00    +0.000 OA
ATOM      4  H   UNL     1       3.914   7.214  17.062  0.00  0.00    +0.000 HD
ENDROOT
BRANCH   1   5
ATOM      5  C   UNL     1       4.600   5.661  18.408  0.00  0.00    +0.000 C 
BRANCH   5   6
ATOM      6  C   UNL     1       4.264   4.377  17.566  0.00  0.00    +0.000 C 
ATOM      7  C   UNL     1       2.789   4.043  17.377  0.00  0.00    +0.000 C 
ATOM      8  C   UNL     1       2.201   3.602  18.686  0.00  0.00    +0.000 A 
ATOM      9  C   UNL     1       0.823   3.734  18.904  0.00  0.00    +0.000 A 
ATOM     10  C   UNL     1       0.271   3.366  20.128  0.00  0.00    +0.000 A 
ATOM     11  C   UNL     1       1.096   2.857  21.142  0.00  0.00    +0.000 A 
ATOM     12  C   UNL     1       2.450   2.688  20.914  0.00  0.00    +0.000 A 
ATOM     13  C   UNL     1       3.033   3.040  19.681  0.00  0.00    +0.000 A 
ATOM     14  C   UNL     1       4.478   2.814  19.393  0.00  0.00    +0.000 C 
ATOM     15  O   UNL     1       5.271   2.303  20.167  0.00  0.00    +0.000 OA
ATOM     16  O   UNL     1       4.891   3.213  18.154  0.00  0.00    +0.000 OA
BRANCH  12  17
ATOM     17  O   UNL     1       3.224   2.195  21.924  0.00  0.00    +0.000 OA
ATOM     18  H   UNL     1       2.688   2.055  22.721  0.00  0.00    +0.000 HD
ENDBRANCH  12  17
ENDBRANCH   5   6
BRANCH   5  19
ATOM     19  C   UNL     1       6.132   5.920  18.344  0.00  0.00    +0.000 C 
BRANCH  19  21
ATOM     20  C   UNL     1       7.746   7.755  17.530  0.00  0.00    +0.000 C 
ATOM     21  C   UNL     1       6.666   6.739  17.151  0.00  0.00    +0.000 C 
ATOM     22  C   UNL     1       7.264   5.783  16.104  0.00  0.00    +0.000 C 
ENDBRANCH  19  21
ENDBRANCH   5  19
ENDBRANCH   1   5
BRANCH   2  23
ATOM     23  C   UNL     1       1.851   8.383  18.119  0.00  0.00    +0.000 C 
BRANCH  23  24
ATOM     24  C   UNL     1       0.645   8.895  19.009  0.00  0.00    +0.000 C 
ATOM     25  O   UNL     1       1.117   8.761  20.358  0.00  0.00    +0.000 OA
ATOM     26  C   UNL     1       0.407   9.425  21.405  0.00  0.00    +0.000 C 
ATOM     27  C   UNL     1       1.364   9.304  22.590  0.00  0.00    +0.000 C 
ATOM     28  C   UNL     1       0.028  10.937  21.041  0.00  0.00    +0.000 C 
ATOM     29  C   UNL     1      -0.810  11.586  22.164  0.00  0.00    +0.000 C 
ATOM     30  N   UNL     1       1.144  11.834  20.806  0.00  0.00    +0.000 N 
ATOM     31  C   UNL     1       1.674  12.155  19.601  0.00  0.00    +0.000 C 
ATOM     32  O   UNL     1       2.482  13.077  19.507  0.00  0.00    +0.000 OA
ATOM     33  C   UNL     1       1.238  11.366  18.404  0.00  0.00    +0.000 C 
ATOM     34  C   UNL     1       0.132  10.357  18.714  0.00  0.00    +0.000 C 
ATOM     35  N   UNL     1      -0.733  10.943  19.779  0.00  0.00    +0.000 NA
ATOM     36  H   UNL     1       1.435  12.458  21.547  0.00  0.00    +0.000 HD
ATOM     37  H   UNL     1      -1.582  10.393  19.867  0.00  0.00    +0.000 HD
BRANCH  26  38
ATOM     38  O   UNL     1      -0.755   8.667  21.767  0.00  0.00    +0.000 OA
ATOM     39  H   UNL     1      -0.508   8.012  22.435  0.00  0.00    +0.000 HD
ENDBRANCH  26  38
ENDBRANCH  23  24
BRANCH  23  40
ATOM     40  O   UNL     1       2.627   9.452  17.552  0.00  0.00    +0.000 OA
ATOM     41  H   UNL     1       2.026  10.146  17.240  0.00  0.00    +0.000 HD
ENDBRANCH  23  40
ENDBRANCH   2  23
TORSDOF 9
ENDMDL
