MODEL 1
REMARK VINA RESULT:      -8.7      0.000      0.000
REMARK  Name = 
REMARK  11 active torsions:
REMARK  status: ('A' for Active; 'I' for Inactive)
REMARK    1  A    between atoms: C_1  and  O_2
REMARK    2  A    between atoms: O_2  and  C_3
REMARK    3  A    between atoms: C_7  and  C_8
REMARK    4  A    between atoms: C_8  and  N_9
REMARK    5  A    between atoms: C_10  and  C_12
REMARK    6  A    between atoms: C_17  and  C_18
REMARK    7  A    between atoms: N_25  and  C_26
REMARK    8  A    between atoms: C_26  and  C_27
REMARK    9  A    between atoms: C_27  and  N_28
REMARK   10  A    between atoms: N_28  and  C_29
REMARK   11  A    between atoms: N_28  and  C_30
REMARK                            x       y       z     vdW  Elec       q    Type
REMARK                         _______ _______ _______ _____ _____    ______ ____
ROOT
ATOM      1  C   UNL     1       3.684   6.187  17.670  0.00  0.00    +0.000 A 
ATOM      2  C   UNL     1       3.350   7.371  17.037  0.00  0.00    +0.000 A 
ATOM      3  C   UNL     1       2.574   8.153  17.919  0.00  0.00    +0.000 A 
ATOM      4  C   UNL     1       1.957   9.405  17.826  0.00  0.00    +0.000 A 
ATOM      5  C   UNL     1       1.277   9.870  18.946  0.00  0.00    +0.000 A 
ATOM      6  C   UNL     1       1.231   9.090  20.103  0.00  0.00    +0.000 A 
ATOM      7  N   UNL     1       1.801   7.857  20.220  0.00  0.00    +0.000 NA
ATOM      8  C   UNL     1       2.453   7.442  19.108  0.00  0.00    +0.000 A 
ATOM      9  N   UNL     1       3.116   6.238  18.940  0.00  0.00    +0.000 N 
ENDROOT
BRANCH   6  10
ATOM     10  C   UNL     1       0.573   9.629  21.289  0.00  0.00    +0.000 A 
ATOM     11  C   UNL     1       0.745   9.330  22.665  0.00  0.00    +0.000 A 
ATOM     12  N   UNL     1      -0.091  10.007  23.458  0.00  0.00    +0.000 NA
ATOM     13  N   UNL     1      -0.805  10.746  22.595  0.00  0.00    +0.000 N 
ATOM     14  C   UNL     1      -0.439  10.568  21.292  0.00  0.00    +0.000 A 
ATOM     15  H   UNL     1      -1.533  11.346  22.968  0.00  0.00    +0.000 HD
ENDBRANCH   6  10
BRANCH   1  17
ATOM     16  N   UNL     1       5.753   5.427  16.812  0.00  0.00    +0.000 N 
ATOM     17  C   UNL     1       4.449   5.093  17.107  0.00  0.00    +0.000 C 
ATOM     18  O   UNL     1       3.996   3.968  16.939  0.00  0.00    +0.000 OA
ATOM     19  H   UNL     1       6.108   6.312  17.149  0.00  0.00    +0.000 HD
BRANCH  16  20
ATOM     20  C   UNL     1       6.719   4.447  16.374  0.00  0.00    +0.000 C 
BRANCH  20  25
ATOM     21  C   UNL     1       6.151   3.558  12.699  0.00  0.00    +0.000 A 
ATOM     22  C   UNL     1       7.036   4.443  12.077  0.00  0.00    +0.000 A 
ATOM     23  C   UNL     1       7.818   5.314  12.833  0.00  0.00    +0.000 A 
ATOM     24  C   UNL     1       7.720   5.305  14.224  0.00  0.00    +0.000 A 
ATOM     25  C   UNL     1       6.837   4.427  14.869  0.00  0.00    +0.000 A 
ATOM     26  C   UNL     1       6.051   3.557  14.093  0.00  0.00    +0.000 A 
BRANCH  21  28
ATOM     27  C   UNL     1       4.209   3.246  11.359  0.00  0.00    +0.000 C 
ATOM     28  O   UNL     1       5.454   2.755  11.839  0.00  0.00    +0.000 OA
ENDBRANCH  21  28
ENDBRANCH  20  25
ENDBRANCH  16  20
ENDBRANCH   1  17
BRANCH   9  29
ATOM     29  C   UNL     1       3.157   5.171  19.941  0.00  0.00    +0.000 C 
BRANCH  29  30
ATOM     30  C   UNL     1       2.058   4.102  19.768  0.00  0.00    +0.000 C 
BRANCH  30  31
ATOM     31  N   UNL     1       2.394   2.745  20.262  0.00  0.00    +0.000 NA
ATOM     32  C   UNL     1       3.822   2.444  20.117  0.00  0.00    +0.000 C 
ATOM     33  C   UNL     1       2.025   2.642  21.681  0.00  0.00    +0.000 C 
ENDBRANCH  30  31
ENDBRANCH  29  30
ENDBRANCH   9  29
TORSDOF 8
ENDMDL
MODEL 2
REMARK VINA RESULT:      -8.4      0.759      1.038
REMARK  Name = 
REMARK  11 active torsions:
REMARK  status: ('A' for Active; 'I' for Inactive)
REMARK    1  A    between atoms: C_1  and  O_2
REMARK    2  A    between atoms: O_2  and  C_3
REMARK    3  A    between atoms: C_7  and  C_8
REMARK    4  A    between atoms: C_8  and  N_9
REMARK    5  A    between atoms: C_10  and  C_12
REMARK    6  A    between atoms: C_17  and  C_18
REMARK    7  A    between atoms: N_25  and  C_26
REMARK    8  A    between atoms: C_26  and  C_27
REMARK    9  A    between atoms: C_27  and  N_28
REMARK   10  A    between atoms: N_28  and  C_29
REMARK   11  A    between atoms: N_28  and  C_30
REMARK                            x       y       z     vdW  Elec       q    Type
REMARK                         _______ _______ _______ _____ _____    ______ ____
ROOT
ATOM      1  C   UNL     1       3.494   6.348  17.861  0.00  0.00    +0.000 A 
ATOM      2  C   UNL     1       3.242   7.551  17.228  0.00  0.00    +0.000 A 
ATOM      3  C   UNL     1       2.445   8.351  18.074  0.00  0.00    +0.000 A 
ATOM      4  C   UNL     1       1.882   9.626  17.964  0.00  0.00    +0.000 A 
ATOM      5  C   UNL     1       1.154  10.102  19.049  0.00  0.00    +0.000 A 
ATOM      6  C   UNL     1       1.011   9.310  20.190  0.00  0.00    +0.000 A 
ATOM      7  N   UNL     1       1.526   8.054  20.321  0.00  0.00    +0.000 NA
ATOM      8  C   UNL     1       2.227   7.630  19.243  0.00  0.00    +0.000 A 
ATOM      9  N   UNL     1       2.853   6.403  19.096  0.00  0.00    +0.000 N 
ENDROOT
BRANCH   6  10
ATOM     10  C   UNL     1       0.304   9.859  21.343  0.00  0.00    +0.000 A 
ATOM     11  C   UNL     1       0.063  11.201  21.732  0.00  0.00    +0.000 A 
ATOM     12  N   UNL     1      -0.586  11.301  22.896  0.00  0.00    +0.000 NA
ATOM     13  N   UNL     1      -0.767  10.022  23.260  0.00  0.00    +0.000 N 
ATOM     14  C   UNL     1      -0.266   9.124  22.363  0.00  0.00    +0.000 A 
ATOM     15  H   UNL     1      -1.235   9.837  24.142  0.00  0.00    +0.000 HD
ENDBRANCH   6  10
BRANCH   1  17
ATOM     16  N   UNL     1       5.560   5.543  17.039  0.00  0.00    +0.000 N 
ATOM     17  C   UNL     1       4.249   5.232  17.328  0.00  0.00    +0.000 C 
ATOM     18  O   UNL     1       3.783   4.110  17.177  0.00  0.00    +0.000 OA
ATOM     19  H   UNL     1       5.924   6.429  17.362  0.00  0.00    +0.000 HD
BRANCH  16  20
ATOM     20  C   UNL     1       6.517   4.542  16.631  0.00  0.00    +0.000 C 
BRANCH  20  25
ATOM     21  C   UNL     1       5.962   3.732  12.935  0.00  0.00    +0.000 A 
ATOM     22  C   UNL     1       6.955   4.518  12.344  0.00  0.00    +0.000 A 
ATOM     23  C   UNL     1       7.805   5.295  13.127  0.00  0.00    +0.000 A 
ATOM     24  C   UNL     1       7.667   5.293  14.515  0.00  0.00    +0.000 A 
ATOM     25  C   UNL     1       6.676   4.514  15.130  0.00  0.00    +0.000 A 
ATOM     26  C   UNL     1       5.822   3.737  14.326  0.00  0.00    +0.000 A 
BRANCH  21  28
ATOM     27  C   UNL     1       5.811   1.866  11.465  0.00  0.00    +0.000 C 
ATOM     28  O   UNL     1       5.206   3.012  12.051  0.00  0.00    +0.000 OA
ENDBRANCH  21  28
ENDBRANCH  20  25
ENDBRANCH  16  20
ENDBRANCH   1  17
BRANCH   9  29
ATOM     29  C   UNL     1       2.795   5.323  20.081  0.00  0.00    +0.000 C 
BRANCH  29  30
ATOM     30  C   UNL     1       1.574   4.392  19.925  0.00  0.00    +0.000 C 
BRANCH  30  31
ATOM     31  N   UNL     1       1.836   2.946  20.119  0.00  0.00    +0.000 NA
ATOM     32  C   UNL     1       1.556   2.515  21.492  0.00  0.00    +0.000 C 
ATOM     33  C   UNL     1       0.992   2.174  19.195  0.00  0.00    +0.000 C 
ENDBRANCH  30  31
ENDBRANCH  29  30
ENDBRANCH   9  29
TORSDOF 8
ENDMDL
MODEL 3
REMARK VINA RESULT:      -8.4      0.850      1.004
REMARK  Name = 
REMARK  11 active torsions:
REMARK  status: ('A' for Active; 'I' for Inactive)
REMARK    1  A    between atoms: C_1  and  O_2
REMARK    2  A    between atoms: O_2  and  C_3
REMARK    3  A    between atoms: C_7  and  C_8
REMARK    4  A    between atoms: C_8  and  N_9
REMARK    5  A    between atoms: C_10  and  C_12
REMARK    6  A    between atoms: C_17  and  C_18
REMARK    7  A    between atoms: N_25  and  C_26
REMARK    8  A    between atoms: C_26  and  C_27
REMARK    9  A    between atoms: C_27  and  N_28
REMARK   10  A    between atoms: N_28  and  C_29
REMARK   11  A    between atoms: N_28  and  C_30
REMARK                            x       y       z     vdW  Elec       q    Type
REMARK                         _______ _______ _______ _____ _____    ______ ____
ROOT
ATOM      1  C   UNL     1       3.912   5.947  17.611  0.00  0.00    +0.000 A 
ATOM      2  C   UNL     1       3.442   7.125  17.061  0.00  0.00    +0.000 A 
ATOM      3  C   UNL     1       2.647   7.788  18.021  0.00  0.00    +0.000 A 
ATOM      4  C   UNL     1       1.918   8.981  18.025  0.00  0.00    +0.000 A 
ATOM      5  C   UNL     1       1.258   9.325  19.201  0.00  0.00    +0.000 A 
ATOM      6  C   UNL     1       1.342   8.487  20.314  0.00  0.00    +0.000 A 
ATOM      7  N   UNL     1       2.024   7.307  20.336  0.00  0.00    +0.000 NA
ATOM      8  C   UNL     1       2.651   7.010  19.174  0.00  0.00    +0.000 A 
ATOM      9  N   UNL     1       3.408   5.881  18.908  0.00  0.00    +0.000 N 
ENDROOT
BRANCH   6  10
ATOM     10  C   UNL     1       0.702   8.904  21.558  0.00  0.00    +0.000 A 
ATOM     11  C   UNL     1       1.241   9.500  22.726  0.00  0.00    +0.000 A 
ATOM     12  N   UNL     1       0.332   9.689  23.687  0.00  0.00    +0.000 NA
ATOM     13  N   UNL     1      -0.799   9.216  23.139  0.00  0.00    +0.000 N 
ATOM     14  C   UNL     1      -0.634   8.749  21.867  0.00  0.00    +0.000 A 
ATOM     15  H   UNL     1      -1.646   9.237  23.697  0.00  0.00    +0.000 HD
ENDBRANCH   6  10
BRANCH   1  17
ATOM     16  N   UNL     1       6.021   5.394  16.694  0.00  0.00    +0.000 N 
ATOM     17  C   UNL     1       4.740   4.956  16.954  0.00  0.00    +0.000 C 
ATOM     18  O   UNL     1       4.356   3.825  16.683  0.00  0.00    +0.000 OA
ATOM     19  H   UNL     1       6.323   6.264  17.111  0.00  0.00    +0.000 HD
BRANCH  16  20
ATOM     20  C   UNL     1       7.043   4.518  16.172  0.00  0.00    +0.000 C 
BRANCH  20  25
ATOM     21  C   UNL     1       6.136   3.618  12.568  0.00  0.00    +0.000 A 
ATOM     22  C   UNL     1       6.968   4.492  11.864  0.00  0.00    +0.000 A 
ATOM     23  C   UNL     1       7.823   5.359  12.541  0.00  0.00    +0.000 A 
ATOM     24  C   UNL     1       7.852   5.358  13.936  0.00  0.00    +0.000 A 
ATOM     25  C   UNL     1       7.024   4.490  14.663  0.00  0.00    +0.000 A 
ATOM     26  C   UNL     1       6.163   3.623  13.966  0.00  0.00    +0.000 A 
BRANCH  21  28
ATOM     27  C   UNL     1       5.898   1.556  11.403  0.00  0.00    +0.000 C 
ATOM     28  O   UNL     1       5.357   2.816  11.780  0.00  0.00    +0.000 OA
ENDBRANCH  21  28
ENDBRANCH  20  25
ENDBRANCH  16  20
ENDBRANCH   1  17
BRANCH   9  29
ATOM     29  C   UNL     1       3.597   4.774  19.846  0.00  0.00    +0.000 C 
BRANCH  29  30
ATOM     30  C   UNL     1       2.808   3.498  19.481  0.00  0.00    +0.000 C 
BRANCH  30  31
ATOM     31  N   UNL     1       1.409   3.443  19.967  0.00  0.00    +0.000 NA
ATOM     32  C   UNL     1       0.589   2.514  19.183  0.00  0.00    +0.000 C 
ATOM     33  C   UNL     1       1.402   3.015  21.374  0.00  0.00    +0.000 C 
ENDBRANCH  30  31
ENDBRANCH  29  30
ENDBRANCH   9  29
TORSDOF 8
ENDMDL
MODEL 4
REMARK VINA RESULT:      -7.9      1.321      1.753
REMARK  Name = 
REMARK  11 active torsions:
REMARK  status: ('A' for Active; 'I' for Inactive)
REMARK    1  A    between atoms: C_1  and  O_2
REMARK    2  A    between atoms: O_2  and  C_3
REMARK    3  A    between atoms: C_7  and  C_8
REMARK    4  A    between atoms: C_8  and  N_9
REMARK    5  A    between atoms: C_10  and  C_12
REMARK    6  A    between atoms: C_17  and  C_18
REMARK    7  A    between atoms: N_25  and  C_26
REMARK    8  A    between atoms: C_26  and  C_27
REMARK    9  A    between atoms: C_27  and  N_28
REMARK   10  A    between atoms: N_28  and  C_29
REMARK   11  A    between atoms: N_28  and  C_30
REMARK                            x       y       z     vdW  Elec       q    Type
REMARK                         _______ _______ _______ _____ _____    ______ ____
ROOT
ATOM      1  C   UNL     1       3.223   6.504  18.684  0.00  0.00    +0.000 A 
ATOM      2  C   UNL     1       3.134   7.601  17.847  0.00  0.00    +0.000 A 
ATOM      3  C   UNL     1       2.242   8.534  18.417  0.00  0.00    +0.000 A 
ATOM      4  C   UNL     1       1.761   9.788  18.024  0.00  0.00    +0.000 A 
ATOM      5  C   UNL     1       0.883  10.437  18.887  0.00  0.00    +0.000 A 
ATOM      6  C   UNL     1       0.516   9.830  20.089  0.00  0.00    +0.000 A 
ATOM      7  N   UNL     1       0.947   8.600  20.490  0.00  0.00    +0.000 NA
ATOM      8  C   UNL     1       1.799   8.004  19.624  0.00  0.00    +0.000 A 
ATOM      9  N   UNL     1       2.387   6.758  19.768  0.00  0.00    +0.000 N 
ENDROOT
BRANCH   6  10
ATOM     10  C   UNL     1      -0.349  10.561  21.010  0.00  0.00    +0.000 A 
ATOM     11  C   UNL     1      -1.203  11.673  20.798  0.00  0.00    +0.000 A 
ATOM     12  N   UNL     1      -1.801  12.096  21.915  0.00  0.00    +0.000 NA
ATOM     13  N   UNL     1      -1.334  11.257  22.853  0.00  0.00    +0.000 N 
ATOM     14  C   UNL     1      -0.476  10.315  22.362  0.00  0.00    +0.000 A 
ATOM     15  H   UNL     1      -1.640  11.391  23.811  0.00  0.00    +0.000 HD
ENDBRANCH   6  10
BRANCH   1  17
ATOM     16  N   UNL     1       3.719   4.674  17.270  0.00  0.00    +0.000 N 
ATOM     17  C   UNL     1       4.008   5.307  18.459  0.00  0.00    +0.000 C 
ATOM     18  O   UNL     1       4.870   4.909  19.232  0.00  0.00    +0.000 OA
ATOM     19  H   UNL     1       3.136   5.158  16.600  0.00  0.00    +0.000 HD
BRANCH  16  20
ATOM     20  C   UNL     1       4.483   3.546  16.792  0.00  0.00    +0.000 C 
BRANCH  20  25
ATOM     21  C   UNL     1       6.279   4.009  13.448  0.00  0.00    +0.000 A 
ATOM     22  C   UNL     1       7.358   4.807  13.839  0.00  0.00    +0.000 A 
ATOM     23  C   UNL     1       7.513   5.186  15.171  0.00  0.00    +0.000 A 
ATOM     24  C   UNL     1       6.586   4.768  16.126  0.00  0.00    +0.000 A 
ATOM     25  C   UNL     1       5.495   3.969  15.755  0.00  0.00    +0.000 A 
ATOM     26  C   UNL     1       5.348   3.596  14.406  0.00  0.00    +0.000 A 
BRANCH  21  28
ATOM     27  C   UNL     1       5.573   2.514  11.736  0.00  0.00    +0.000 C 
ATOM     28  O   UNL     1       6.253   3.703  12.115  0.00  0.00    +0.000 OA
ENDBRANCH  21  28
ENDBRANCH  20  25
ENDBRANCH  16  20
ENDBRANCH   1  17
BRANCH   9  29
ATOM     29  C   UNL     1       2.119   5.842  20.877  0.00  0.00    +0.000 C 
BRANCH  29  30
ATOM     30  C   UNL     1       1.163   4.684  20.519  0.00  0.00    +0.000 C 
BRANCH  30  31
ATOM     31  N   UNL     1       1.787   3.343  20.409  0.00  0.00    +0.000 NA
ATOM     32  C   UNL     1       1.589   2.542  21.621  0.00  0.00    +0.000 C 
ATOM     33  C   UNL     1       1.202   2.630  19.265  0.00  0.00    +0.000 C 
ENDBRANCH  30  31
ENDBRANCH  29  30
ENDBRANCH   9  29
TORSDOF 8
ENDMDL
MODEL 5
REMARK VINA RESULT:      -7.8      3.603      6.091
REMARK  Name = 
REMARK  11 active torsions:
REMARK  status: ('A' for Active; 'I' for Inactive)
REMARK    1  A    between atoms: C_1  and  O_2
REMARK    2  A    between atoms: O_2  and  C_3
REMARK    3  A    between atoms: C_7  and  C_8
REMARK    4  A    between atoms: C_8  and  N_9
REMARK    5  A    between atoms: C_10  and  C_12
REMARK    6  A    between atoms: C_17  and  C_18
REMARK    7  A    between atoms: N_25  and  C_26
REMARK    8  A    between atoms: C_26  and  C_27
REMARK    9  A    between atoms: C_27  and  N_28
REMARK   10  A    between atoms: N_28  and  C_29
REMARK   11  A    between atoms: N_28  and  C_30
REMARK                            x       y       z     vdW  Elec       q    Type
REMARK                         _______ _______ _______ _____ _____    ______ ____
ROOT
ATOM      1  C   UNL     1       1.291   8.813  19.596  0.00  0.00    +0.000 A 
ATOM      2  C   UNL     1       1.320   8.486  20.938  0.00  0.00    +0.000 A 
ATOM      3  C   UNL     1       0.442   9.344  21.634  0.00  0.00    +0.000 A 
ATOM      4  C   UNL     1       0.081   9.488  22.978  0.00  0.00    +0.000 A 
ATOM      5  C   UNL     1      -0.863  10.461  23.287  0.00  0.00    +0.000 A 
ATOM      6  C   UNL     1      -1.409  11.247  22.270  0.00  0.00    +0.000 A 
ATOM      7  N   UNL     1      -1.062  11.149  20.956  0.00  0.00    +0.000 NA
ATOM      8  C   UNL     1      -0.142  10.190  20.697  0.00  0.00    +0.000 A 
ATOM      9  N   UNL     1       0.396   9.872  19.461  0.00  0.00    +0.000 N 
ENDROOT
BRANCH   6  10
ATOM     10  C   UNL     1      -2.450  12.212  22.610  0.00  0.00    +0.000 A 
ATOM     11  C   UNL     1      -3.317  12.288  23.729  0.00  0.00    +0.000 A 
ATOM     12  N   UNL     1      -4.182  13.304  23.655  0.00  0.00    +0.000 NA
ATOM     13  N   UNL     1      -3.875  13.887  22.485  0.00  0.00    +0.000 N 
ATOM     14  C   UNL     1      -2.841  13.282  21.830  0.00  0.00    +0.000 A 
ATOM     15  H   UNL     1      -4.420  14.691  22.194  0.00  0.00    +0.000 HD
ENDBRANCH   6  10
BRANCH   1  17
ATOM     16  N   UNL     1       2.474   6.914  18.832  0.00  0.00    +0.000 N 
ATOM     17  C   UNL     1       2.066   8.196  18.538  0.00  0.00    +0.000 C 
ATOM     18  O   UNL     1       2.309   8.745  17.470  0.00  0.00    +0.000 OA
ATOM     19  H   UNL     1       2.081   6.461  19.645  0.00  0.00    +0.000 HD
BRANCH  16  20
ATOM     20  C   UNL     1       3.137   6.075  17.860  0.00  0.00    +0.000 C 
BRANCH  20  25
ATOM     21  C   UNL     1       6.851   6.950  17.607  0.00  0.00    +0.000 A 
ATOM     22  C   UNL     1       7.394   6.052  18.530  0.00  0.00    +0.000 A 
ATOM     23  C   UNL     1       6.574   5.163  19.223  0.00  0.00    +0.000 A 
ATOM     24  C   UNL     1       5.198   5.167  18.996  0.00  0.00    +0.000 A 
ATOM     25  C   UNL     1       4.631   6.061  18.076  0.00  0.00    +0.000 A 
ATOM     26  C   UNL     1       5.470   6.955  17.387  0.00  0.00    +0.000 A 
BRANCH  21  28
ATOM     27  C   UNL     1       8.154   8.940  17.680  0.00  0.00    +0.000 C 
ATOM     28  O   UNL     1       7.769   7.756  16.993  0.00  0.00    +0.000 OA
ENDBRANCH  21  28
ENDBRANCH  20  25
ENDBRANCH  16  20
ENDBRANCH   1  17
BRANCH   9  29
ATOM     29  C   UNL     1       0.094  10.587  18.221  0.00  0.00    +0.000 C 
BRANCH  29  30
ATOM     30  C   UNL     1      -1.204  10.123  17.526  0.00  0.00    +0.000 C 
BRANCH  30  31
ATOM     31  N   UNL     1      -2.087  11.201  17.021  0.00  0.00    +0.000 NA
ATOM     32  C   UNL     1      -2.788  10.809  15.794  0.00  0.00    +0.000 C 
ATOM     33  C   UNL     1      -3.079  11.536  18.052  0.00  0.00    +0.000 C 
ENDBRANCH  30  31
ENDBRANCH  29  30
ENDBRANCH   9  29
TORSDOF 8
ENDMDL
MODEL 6
REMARK VINA RESULT:      -7.8      4.270      9.446
REMARK  Name = 
REMARK  11 active torsions:
REMARK  status: ('A' for Active; 'I' for Inactive)
REMARK    1  A    between atoms: C_1  and  O_2
REMARK    2  A    between atoms: O_2  and  C_3
REMARK    3  A    between atoms: C_7  and  C_8
REMARK    4  A    between atoms: C_8  and  N_9
REMARK    5  A    between atoms: C_10  and  C_12
REMARK    6  A    between atoms: C_17  and  C_18
REMARK    7  A    between atoms: N_25  and  C_26
REMARK    8  A    between atoms: C_26  and  C_27
REMARK    9  A    between atoms: C_27  and  N_28
REMARK   10  A    between atoms: N_28  and  C_29
REMARK   11  A    between atoms: N_28  and  C_30
REMARK                            x       y       z     vdW  Elec       q    Type
REMARK                         _______ _______ _______ _____ _____    ______ ____
ROOT
ATOM      1  C   UNL     1       1.449   9.670  18.659  0.00  0.00    +0.000 A 
ATOM      2  C   UNL     1       2.295   9.094  17.730  0.00  0.00    +0.000 A 
ATOM      3  C   UNL     1       2.659   7.808  18.183  0.00  0.00    +0.000 A 
ATOM      4  C   UNL     1       3.482   6.795  17.681  0.00  0.00    +0.000 A 
ATOM      5  C   UNL     1       3.578   5.621  18.422  0.00  0.00    +0.000 A 
ATOM      6  C   UNL     1       2.867   5.494  19.616  0.00  0.00    +0.000 A 
ATOM      7  N   UNL     1       2.075   6.470  20.144  0.00  0.00    +0.000 NA
ATOM      8  C   UNL     1       2.008   7.594  19.393  0.00  0.00    +0.000 A 
ATOM      9  N   UNL     1       1.289   8.742  19.685  0.00  0.00    +0.000 N 
ENDROOT
BRANCH   6  10
ATOM     10  C   UNL     1       2.927   4.227  20.339  0.00  0.00    +0.000 A 
ATOM     11  C   UNL     1       2.273   3.801  21.523  0.00  0.00    +0.000 A 
ATOM     12  N   UNL     1       2.629   2.571  21.906  0.00  0.00    +0.000 NA
ATOM     13  N   UNL     1       3.515   2.200  20.968  0.00  0.00    +0.000 N 
ATOM     14  C   UNL     1       3.717   3.146  20.004  0.00  0.00    +0.000 A 
ATOM     15  H   UNL     1       3.949   1.287  21.054  0.00  0.00    +0.000 HD
ENDBRANCH   6  10
BRANCH   1  17
ATOM     16  N   UNL     1      -0.431  11.005  18.133  0.00  0.00    +0.000 N 
ATOM     17  C   UNL     1       0.867  10.995  18.595  0.00  0.00    +0.000 C 
ATOM     18  O   UNL     1       1.456  12.010  18.946  0.00  0.00    +0.000 OA
ATOM     19  H   UNL     1      -0.913  10.121  18.041  0.00  0.00    +0.000 HD
BRANCH  16  20
ATOM     20  C   UNL     1      -1.236  12.204  18.123  0.00  0.00    +0.000 C 
BRANCH  20  25
ATOM     21  C   UNL     1      -4.914  11.861  19.113  0.00  0.00    +0.000 A 
ATOM     22  C   UNL     1      -5.447  11.304  17.948  0.00  0.00    +0.000 A 
ATOM     23  C   UNL     1      -4.629  11.031  16.853  0.00  0.00    +0.000 A 
ATOM     24  C   UNL     1      -3.265  11.315  16.917  0.00  0.00    +0.000 A 
ATOM     25  C   UNL     1      -2.709  11.875  18.076  0.00  0.00    +0.000 A 
ATOM     26  C   UNL     1      -3.547  12.149  19.172  0.00  0.00    +0.000 A 
BRANCH  21  28
ATOM     27  C   UNL     1      -5.336  12.604  21.335  0.00  0.00    +0.000 C 
ATOM     28  O   UNL     1      -5.825  12.067  20.112  0.00  0.00    +0.000 OA
ENDBRANCH  21  28
ENDBRANCH  20  25
ENDBRANCH  16  20
ENDBRANCH   1  17
BRANCH   9  29
ATOM     29  C   UNL     1       0.524   8.946  20.915  0.00  0.00    +0.000 C 
BRANCH  29  30
ATOM     30  C   UNL     1       1.142   9.983  21.877  0.00  0.00    +0.000 C 
BRANCH  30  31
ATOM     31  N   UNL     1       0.179  10.774  22.679  0.00  0.00    +0.000 NA
ATOM     32  C   UNL     1      -0.509  11.787  21.873  0.00  0.00    +0.000 C 
ATOM     33  C   UNL     1      -0.822   9.869  23.264  0.00  0.00    +0.000 C 
ENDBRANCH  30  31
ENDBRANCH  29  30
ENDBRANCH   9  29
TORSDOF 8
ENDMDL
MODEL 7
REMARK VINA RESULT:      -7.6      2.846      9.097
REMARK  Name = 
REMARK  11 active torsions:
REMARK  status: ('A' for Active; 'I' for Inactive)
REMARK    1  A    between atoms: C_1  and  O_2
REMARK    2  A    between atoms: O_2  and  C_3
REMARK    3  A    between atoms: C_7  and  C_8
REMARK    4  A    between atoms: C_8  and  N_9
REMARK    5  A    between atoms: C_10  and  C_12
REMARK    6  A    between atoms: C_17  and  C_18
REMARK    7  A    between atoms: N_25  and  C_26
REMARK    8  A    between atoms: C_26  and  C_27
REMARK    9  A    between atoms: C_27  and  N_28
REMARK   10  A    between atoms: N_28  and  C_29
REMARK   11  A    between atoms: N_28  and  C_30
REMARK                            x       y       z     vdW  Elec       q    Type
REMARK                         _______ _______ _______ _____ _____    ______ ____
ROOT
ATOM      1  C   UNL     1       3.710   5.553  19.327  0.00  0.00    +0.000 A 
ATOM      2  C   UNL     1       5.060   5.830  19.441  0.00  0.00    +0.000 A 
ATOM      3  C   UNL     1       5.691   5.517  18.218  0.00  0.00    +0.000 A 
ATOM      4  C   UNL     1       7.012   5.575  17.760  0.00  0.00    +0.000 A 
ATOM      5  C   UNL     1       7.252   5.193  16.444  0.00  0.00    +0.000 A 
ATOM      6  C   UNL     1       6.191   4.772  15.640  0.00  0.00    +0.000 A 
ATOM      7  N   UNL     1       4.898   4.681  16.062  0.00  0.00    +0.000 NA
ATOM      8  C   UNL     1       4.708   5.062  17.346  0.00  0.00    +0.000 A 
ATOM      9  N   UNL     1       3.507   5.069  18.037  0.00  0.00    +0.000 N 
ENDROOT
BRANCH   6  10
ATOM     10  C   UNL     1       6.456   4.444  14.242  0.00  0.00    +0.000 A 
ATOM     11  C   UNL     1       7.461   4.905  13.354  0.00  0.00    +0.000 A 
ATOM     12  N   UNL     1       7.341   4.405  12.121  0.00  0.00    +0.000 NA
ATOM     13  N   UNL     1       6.257   3.618  12.210  0.00  0.00    +0.000 N 
ATOM     14  C   UNL     1       5.701   3.597  13.457  0.00  0.00    +0.000 A 
ATOM     15  H   UNL     1       5.950   3.131  11.375  0.00  0.00    +0.000 HD
ENDBRANCH   6  10
BRANCH   1  17
ATOM     16  N   UNL     1       2.176   6.974  20.431  0.00  0.00    +0.000 N 
ATOM     17  C   UNL     1       2.707   5.705  20.362  0.00  0.00    +0.000 C 
ATOM     18  O   UNL     1       2.339   4.788  21.086  0.00  0.00    +0.000 OA
ATOM     19  H   UNL     1       2.389   7.623  19.686  0.00  0.00    +0.000 HD
BRANCH  16  20
ATOM     20  C   UNL     1       1.067   7.299  21.298  0.00  0.00    +0.000 C 
BRANCH  20  25
ATOM     21  C   UNL     1      -0.168  10.810  22.173  0.00  0.00    +0.000 A 
ATOM     22  C   UNL     1       0.039  11.470  20.958  0.00  0.00    +0.000 A 
ATOM     23  C   UNL     1       0.562  10.789  19.860  0.00  0.00    +0.000 A 
ATOM     24  C   UNL     1       0.884   9.436  19.971  0.00  0.00    +0.000 A 
ATOM     25  C   UNL     1       0.688   8.755  21.181  0.00  0.00    +0.000 A 
ATOM     26  C   UNL     1       0.162   9.456  22.282  0.00  0.00    +0.000 A 
BRANCH  21  28
ATOM     27  C   UNL     1      -1.864  12.339  22.843  0.00  0.00    +0.000 C 
ATOM     28  O   UNL     1      -0.695  11.594  23.161  0.00  0.00    +0.000 OA
ENDBRANCH  21  28
ENDBRANCH  20  25
ENDBRANCH  16  20
ENDBRANCH   1  17
BRANCH   9  29
ATOM     29  C   UNL     1       2.238   4.589  17.491  0.00  0.00    +0.000 C 
BRANCH  29  30
ATOM     30  C   UNL     1       2.052   3.059  17.581  0.00  0.00    +0.000 C 
BRANCH  30  31
ATOM     31  N   UNL     1       2.654   2.404  18.767  0.00  0.00    +0.000 NA
ATOM     32  C   UNL     1       1.644   1.764  19.615  0.00  0.00    +0.000 C 
ATOM     33  C   UNL     1       3.617   1.387  18.321  0.00  0.00    +0.000 C 
ENDBRANCH  30  31
ENDBRANCH  29  30
ENDBRANCH   9  29
TORSDOF 8
ENDMDL
MODEL 8
REMARK VINA RESULT:      -7.6      2.788      8.781
REMARK  Name = 
REMARK  11 active torsions:
REMARK  status: ('A' for Active; 'I' for Inactive)
REMARK    1  A    between atoms: C_1  and  O_2
REMARK    2  A    between atoms: O_2  and  C_3
REMARK    3  A    between atoms: C_7  and  C_8
REMARK    4  A    between atoms: C_8  and  N_9
REMARK    5  A    between atoms: C_10  and  C_12
REMARK    6  A    between atoms: C_17  and  C_18
REMARK    7  A    between atoms: N_25  and  C_26
REMARK    8  A    between atoms: C_26  and  C_27
REMARK    9  A    between atoms: C_27  and  N_28
REMARK   10  A    between atoms: N_28  and  C_29
REMARK   11  A    between atoms: N_28  and  C_30
REMARK                            x       y       z     vdW  Elec       q    Type
REMARK                         _______ _______ _______ _____ _____    ______ ____
ROOT
ATOM      1  C   UNL     1       3.776   5.522  19.263  0.00  0.00    +0.000 A 
ATOM      2  C   UNL     1       5.106   5.887  19.348  0.00  0.00    +0.000 A 
ATOM      3  C   UNL     1       5.739   5.583  18.124  0.00  0.00    +0.000 A 
ATOM      4  C   UNL     1       7.047   5.713  17.644  0.00  0.00    +0.000 A 
ATOM      5  C   UNL     1       7.292   5.312  16.335  0.00  0.00    +0.000 A 
ATOM      6  C   UNL     1       6.249   4.803  15.558  0.00  0.00    +0.000 A 
ATOM      7  N   UNL     1       4.970   4.641  16.002  0.00  0.00    +0.000 NA
ATOM      8  C   UNL     1       4.774   5.044  17.280  0.00  0.00    +0.000 A 
ATOM      9  N   UNL     1       3.586   4.992  17.989  0.00  0.00    +0.000 N 
ENDROOT
BRANCH   6  10
ATOM     10  C   UNL     1       6.514   4.457  14.165  0.00  0.00    +0.000 A 
ATOM     11  C   UNL     1       7.496   4.934  13.260  0.00  0.00    +0.000 A 
ATOM     12  N   UNL     1       7.384   4.405  12.037  0.00  0.00    +0.000 NA
ATOM     13  N   UNL     1       6.329   3.583  12.152  0.00  0.00    +0.000 N 
ATOM     14  C   UNL     1       5.784   3.567  13.403  0.00  0.00    +0.000 A 
ATOM     15  H   UNL     1       6.033   3.068  11.330  0.00  0.00    +0.000 HD
ENDBRANCH   6  10
BRANCH   1  17
ATOM     16  N   UNL     1       2.201   6.885  20.384  0.00  0.00    +0.000 N 
ATOM     17  C   UNL     1       2.779   5.636  20.309  0.00  0.00    +0.000 C 
ATOM     18  O   UNL     1       2.455   4.708  21.039  0.00  0.00    +0.000 OA
ATOM     19  H   UNL     1       2.380   7.540  19.635  0.00  0.00    +0.000 HD
BRANCH  16  20
ATOM     20  C   UNL     1       1.090   7.167  21.263  0.00  0.00    +0.000 C 
BRANCH  20  25
ATOM     21  C   UNL     1       0.587  10.750  20.025  0.00  0.00    +0.000 A 
ATOM     22  C   UNL     1      -0.044  11.323  21.133  0.00  0.00    +0.000 A 
ATOM     23  C   UNL     1      -0.299  10.566  22.275  0.00  0.00    +0.000 A 
ATOM     24  C   UNL     1       0.079   9.224  22.317  0.00  0.00    +0.000 A 
ATOM     25  C   UNL     1       0.712   8.628  21.216  0.00  0.00    +0.000 A 
ATOM     26  C   UNL     1       0.959   9.403  20.069  0.00  0.00    +0.000 A 
BRANCH  21  28
ATOM     27  C   UNL     1       1.656  12.710  19.198  0.00  0.00    +0.000 C 
ATOM     28  O   UNL     1       0.784  11.608  18.978  0.00  0.00    +0.000 OA
ENDBRANCH  21  28
ENDBRANCH  20  25
ENDBRANCH  16  20
ENDBRANCH   1  17
BRANCH   9  29
ATOM     29  C   UNL     1       2.342   4.418  17.476  0.00  0.00    +0.000 C 
BRANCH  29  30
ATOM     30  C   UNL     1       2.428   2.909  17.161  0.00  0.00    +0.000 C 
BRANCH  30  31
ATOM     31  N   UNL     1       2.038   1.997  18.263  0.00  0.00    +0.000 NA
ATOM     32  C   UNL     1       3.116   1.824  19.242  0.00  0.00    +0.000 C 
ATOM     33  C   UNL     1       0.855   2.541  18.946  0.00  0.00    +0.000 C 
ENDBRANCH  30  31
ENDBRANCH  29  30
ENDBRANCH   9  29
TORSDOF 8
ENDMDL
MODEL 9
REMARK VINA RESULT:      -7.6      3.610      6.179
REMARK  Name = 
REMARK  11 active torsions:
REMARK  status: ('A' for Active; 'I' for Inactive)
REMARK    1  A    between atoms: C_1  and  O_2
REMARK    2  A    between atoms: O_2  and  C_3
REMARK    3  A    between atoms: C_7  and  C_8
REMARK    4  A    between atoms: C_8  and  N_9
REMARK    5  A    between atoms: C_10  and  C_12
REMARK    6  A    between atoms: C_17  and  C_18
REMARK    7  A    between atoms: N_25  and  C_26
REMARK    8  A    between atoms: C_26  and  C_27
REMARK    9  A    between atoms: C_27  and  N_28
REMARK   10  A    between atoms: N_28  and  C_29
REMARK   11  A    between atoms: N_28  and  C_30
REMARK                            x       y       z     vdW  Elec       q    Type
REMARK                         _______ _______ _______ _____ _____    ______ ____
ROOT
ATOM      1  C   UNL     1       1.423   8.784  19.591  0.00  0.00    +0.000 A 
ATOM      2  C   UNL     1       1.229   8.242  20.848  0.00  0.00    +0.000 A 
ATOM      3  C   UNL     1       0.482   9.153  21.625  0.00  0.00    +0.000 A 
ATOM      4  C   UNL     1       0.011   9.152  22.942  0.00  0.00    +0.000 A 
ATOM      5  C   UNL     1      -0.733  10.253  23.357  0.00  0.00    +0.000 A 
ATOM      6  C   UNL     1      -0.979  11.300  22.467  0.00  0.00    +0.000 A 
ATOM      7  N   UNL     1      -0.514  11.342  21.186  0.00  0.00    +0.000 NA
ATOM      8  C   UNL     1       0.203  10.253  20.822  0.00  0.00    +0.000 A 
ATOM      9  N   UNL     1       0.797  10.028  19.591  0.00  0.00    +0.000 N 
ENDROOT
BRANCH   6  10
ATOM     10  C   UNL     1      -1.821  12.410  22.903  0.00  0.00    +0.000 A 
ATOM     11  C   UNL     1      -1.482  13.704  23.372  0.00  0.00    +0.000 A 
ATOM     12  N   UNL     1      -2.548  14.428  23.729  0.00  0.00    +0.000 NA
ATOM     13  N   UNL     1      -3.577  13.601  23.489  0.00  0.00    +0.000 N 
ATOM     14  C   UNL     1      -3.199  12.391  22.984  0.00  0.00    +0.000 A 
ATOM     15  H   UNL     1      -4.514  13.929  23.703  0.00  0.00    +0.000 HD
ENDBRANCH   6  10
BRANCH   1  17
ATOM     16  N   UNL     1       2.620   6.918  18.770  0.00  0.00    +0.000 N 
ATOM     17  C   UNL     1       2.162   8.188  18.497  0.00  0.00    +0.000 C 
ATOM     18  O   UNL     1       2.339   8.742  17.419  0.00  0.00    +0.000 OA
ATOM     19  H   UNL     1       2.279   6.454  19.601  0.00  0.00    +0.000 HD
BRANCH  16  20
ATOM     20  C   UNL     1       3.258   6.097  17.767  0.00  0.00    +0.000 C 
BRANCH  20  25
ATOM     21  C   UNL     1       6.958   7.040  17.561  0.00  0.00    +0.000 A 
ATOM     22  C   UNL     1       7.528   6.035  18.347  0.00  0.00    +0.000 A 
ATOM     23  C   UNL     1       6.730   5.054  18.932  0.00  0.00    +0.000 A 
ATOM     24  C   UNL     1       5.350   5.071  18.734  0.00  0.00    +0.000 A 
ATOM     25  C   UNL     1       4.756   6.072  17.951  0.00  0.00    +0.000 A 
ATOM     26  C   UNL     1       5.573   7.059  17.369  0.00  0.00    +0.000 A 
BRANCH  21  28
ATOM     27  C   UNL     1       8.201   9.050  17.848  0.00  0.00    +0.000 C 
ATOM     28  O   UNL     1       7.856   7.931  17.040  0.00  0.00    +0.000 OA
ENDBRANCH  21  28
ENDBRANCH  20  25
ENDBRANCH  16  20
ENDBRANCH   1  17
BRANCH   9  29
ATOM     29  C   UNL     1       0.797  10.988  18.487  0.00  0.00    +0.000 C 
BRANCH  29  30
ATOM     30  C   UNL     1       1.863  12.097  18.617  0.00  0.00    +0.000 C 
BRANCH  30  31
ATOM     31  N   UNL     1       1.346  13.483  18.699  0.00  0.00    +0.000 NA
ATOM     32  C   UNL     1      -0.097  13.549  18.450  0.00  0.00    +0.000 C 
ATOM     33  C   UNL     1       1.625  14.025  20.037  0.00  0.00    +0.000 C 
ENDBRANCH  30  31
ENDBRANCH  29  30
ENDBRANCH   9  29
TORSDOF 8
ENDMDL
