MODEL 1
REMARK VINA RESULT:      -5.9      0.000      0.000
REMARK  Name = 
REMARK  7 active torsions:
REMARK  status: ('A' for Active; 'I' for Inactive)
REMARK    1  A    between atoms: C_2  and  C_3
REMARK    2  A    between atoms: C_3  and  C_4
REMARK    3  A    between atoms: C_4  and  C_5
REMARK    4  A    between atoms: N_7  and  C_8
REMARK    5  A    between atoms: C_8  and  C_9
REMARK    6  A    between atoms: C_8  and  C_10
REMARK    7  A    between atoms: C_10  and  C_11
REMARK                            x       y       z     vdW  Elec       q    Type
REMARK                         _______ _______ _______ _____ _____    ______ ____
ROOT
ATOM      1  C   UNL     1       5.974   4.423  16.632  0.00  0.00    +0.000 C 
ATOM      2  O   UNL     1       6.619   4.551  17.669  0.00  0.00    +0.000 OA
ATOM      3  N   UNL     1       4.606   4.591  16.578  0.00  0.00    +0.000 N 
ATOM      4  H   UNL     1       4.131   4.508  15.689  0.00  0.00    +0.000 HD
ENDROOT
BRANCH   3   5
ATOM      5  C   UNL     1       3.828   4.867  17.784  0.00  0.00    +0.000 C 
ATOM      6  C   UNL     1       3.461   6.348  17.844  0.00  0.00    +0.000 C 
BRANCH   5   7
ATOM      7  C   UNL     1       2.568   3.982  17.867  0.00  0.00    +0.000 C 
BRANCH   7   8
ATOM      8  C   UNL     1       2.316   3.470  19.251  0.00  0.00    +0.000 A 
ATOM      9  C   UNL     1       1.108   3.561  20.001  0.00  0.00    +0.000 A 
ATOM     10  C   UNL     1       1.372   3.013  21.233  0.00  0.00    +0.000 A 
ATOM     11  O   UNL     1       2.649   2.560  21.286  0.00  0.00    +0.000 OA
ATOM     12  C   UNL     1       3.215   2.833  20.082  0.00  0.00    +0.000 A 
ENDBRANCH   7   8
ENDBRANCH   5   7
ENDBRANCH   3   5
BRANCH   1  13
ATOM     13  C   UNL     1       6.617   4.109  15.299  0.00  0.00    +0.000 C 
BRANCH  13  14
ATOM     14  C   UNL     1       5.580   4.214  14.183  0.00  0.00    +0.000 C 
BRANCH  14  16
ATOM     15  C   UNL     1       5.255   3.109  11.958  0.00  0.00    +0.000 C 
ATOM     16  C   UNL     1       6.066   3.634  12.885  0.00  0.00    +0.000 C 
ENDBRANCH  14  16
ENDBRANCH  13  14
ENDBRANCH   1  13
TORSDOF 6
ENDMDL
MODEL 2
REMARK VINA RESULT:      -5.9      1.967      2.451
REMARK  Name = 
REMARK  7 active torsions:
REMARK  status: ('A' for Active; 'I' for Inactive)
REMARK    1  A    between atoms: C_2  and  C_3
REMARK    2  A    between atoms: C_3  and  C_4
REMARK    3  A    between atoms: C_4  and  C_5
REMARK    4  A    between atoms: N_7  and  C_8
REMARK    5  A    between atoms: C_8  and  C_9
REMARK    6  A    between atoms: C_8  and  C_10
REMARK    7  A    between atoms: C_10  and  C_11
REMARK                            x       y       z     vdW  Elec       q    Type
REMARK                         _______ _______ _______ _____ _____    ______ ____
ROOT
ATOM      1  C   UNL     1       7.031   4.703  16.287  0.00  0.00    +0.000 C 
ATOM      2  O   UNL     1       8.027   4.098  16.674  0.00  0.00    +0.000 OA
ATOM      3  N   UNL     1       6.038   5.131  17.142  0.00  0.00    +0.000 N 
ATOM      4  H   UNL     1       5.257   5.657  16.773  0.00  0.00    +0.000 HD
ENDROOT
BRANCH   3   5
ATOM      5  C   UNL     1       6.082   4.821  18.570  0.00  0.00    +0.000 C 
ATOM      6  C   UNL     1       7.100   5.718  19.270  0.00  0.00    +0.000 C 
BRANCH   5   7
ATOM      7  C   UNL     1       4.692   4.946  19.226  0.00  0.00    +0.000 C 
BRANCH   7   8
ATOM      8  C   UNL     1       3.653   4.126  18.529  0.00  0.00    +0.000 A 
ATOM      9  C   UNL     1       3.617   2.708  18.393  0.00  0.00    +0.000 A 
ATOM     10  C   UNL     1       2.516   2.418  17.624  0.00  0.00    +0.000 A 
ATOM     11  O   UNL     1       1.850   3.555  17.303  0.00  0.00    +0.000 OA
ATOM     12  C   UNL     1       2.537   4.585  17.859  0.00  0.00    +0.000 A 
ENDBRANCH   7   8
ENDBRANCH   5   7
ENDBRANCH   3   5
BRANCH   1  13
ATOM     13  C   UNL     1       6.811   5.080  14.837  0.00  0.00    +0.000 C 
BRANCH  13  14
ATOM     14  C   UNL     1       5.747   4.176  14.221  0.00  0.00    +0.000 C 
BRANCH  14  16
ATOM     15  C   UNL     1       5.373   3.191  11.948  0.00  0.00    +0.000 C 
ATOM     16  C   UNL     1       6.203   3.537  12.940  0.00  0.00    +0.000 C 
ENDBRANCH  14  16
ENDBRANCH  13  14
ENDBRANCH   1  13
TORSDOF 6
ENDMDL
MODEL 3
REMARK VINA RESULT:      -5.9      2.138      2.647
REMARK  Name = 
REMARK  7 active torsions:
REMARK  status: ('A' for Active; 'I' for Inactive)
REMARK    1  A    between atoms: C_2  and  C_3
REMARK    2  A    between atoms: C_3  and  C_4
REMARK    3  A    between atoms: C_4  and  C_5
REMARK    4  A    between atoms: N_7  and  C_8
REMARK    5  A    between atoms: C_8  and  C_9
REMARK    6  A    between atoms: C_8  and  C_10
REMARK    7  A    between atoms: C_10  and  C_11
REMARK                            x       y       z     vdW  Elec       q    Type
REMARK                         _______ _______ _______ _____ _____    ______ ____
ROOT
ATOM      1  C   UNL     1       6.631   4.580  14.384  0.00  0.00    +0.000 C 
ATOM      2  O   UNL     1       7.612   5.315  14.452  0.00  0.00    +0.000 OA
ATOM      3  N   UNL     1       5.653   4.548  15.355  0.00  0.00    +0.000 N 
ATOM      4  H   UNL     1       4.848   3.949  15.230  0.00  0.00    +0.000 HD
ENDROOT
BRANCH   3   5
ATOM      5  C   UNL     1       5.766   5.350  16.572  0.00  0.00    +0.000 C 
ATOM      6  C   UNL     1       5.035   6.679  16.395  0.00  0.00    +0.000 C 
BRANCH   5   7
ATOM      7  C   UNL     1       5.242   4.592  17.808  0.00  0.00    +0.000 C 
BRANCH   7   8
ATOM      8  C   UNL     1       3.787   4.258  17.701  0.00  0.00    +0.000 A 
ATOM      9  C   UNL     1       2.680   5.099  18.016  0.00  0.00    +0.000 A 
ATOM     10  C   UNL     1       1.549   4.343  17.824  0.00  0.00    +0.000 A 
ATOM     11  O   UNL     1       1.878   3.103  17.382  0.00  0.00    +0.000 OA
ATOM     12  C   UNL     1       3.232   3.059  17.302  0.00  0.00    +0.000 A 
ENDBRANCH   7   8
ENDBRANCH   5   7
ENDBRANCH   3   5
BRANCH   1  13
ATOM     13  C   UNL     1       6.373   3.663  13.208  0.00  0.00    +0.000 C 
BRANCH  13  14
ATOM     14  C   UNL     1       4.938   3.841  12.715  0.00  0.00    +0.000 C 
BRANCH  14  16
ATOM     15  C   UNL     1       3.550   3.218  10.725  0.00  0.00    +0.000 C 
ATOM     16  C   UNL     1       4.658   3.063  11.461  0.00  0.00    +0.000 C 
ENDBRANCH  14  16
ENDBRANCH  13  14
ENDBRANCH   1  13
TORSDOF 6
ENDMDL
MODEL 4
REMARK VINA RESULT:      -5.9      2.600      3.382
REMARK  Name = 
REMARK  7 active torsions:
REMARK  status: ('A' for Active; 'I' for Inactive)
REMARK    1  A    between atoms: C_2  and  C_3
REMARK    2  A    between atoms: C_3  and  C_4
REMARK    3  A    between atoms: C_4  and  C_5
REMARK    4  A    between atoms: N_7  and  C_8
REMARK    5  A    between atoms: C_8  and  C_9
REMARK    6  A    between atoms: C_8  and  C_10
REMARK    7  A    between atoms: C_10  and  C_11
REMARK                            x       y       z     vdW  Elec       q    Type
REMARK                         _______ _______ _______ _____ _____    ______ ____
ROOT
ATOM      1  C   UNL     1       5.394   5.436  18.333  0.00  0.00    +0.000 C 
ATOM      2  O   UNL     1       5.383   5.085  19.510  0.00  0.00    +0.000 OA
ATOM      3  N   UNL     1       4.288   5.965  17.702  0.00  0.00    +0.000 N 
ATOM      4  H   UNL     1       4.364   6.271  16.741  0.00  0.00    +0.000 HD
ENDROOT
BRANCH   3   5
ATOM      5  C   UNL     1       3.002   6.074  18.389  0.00  0.00    +0.000 C 
ATOM      6  C   UNL     1       2.400   7.458  18.159  0.00  0.00    +0.000 C 
BRANCH   5   7
ATOM      7  C   UNL     1       2.023   4.966  17.951  0.00  0.00    +0.000 C 
BRANCH   7   8
ATOM      8  C   UNL     1       1.769   3.964  19.032  0.00  0.00    +0.000 A 
ATOM      9  C   UNL     1       1.104   4.179  20.273  0.00  0.00    +0.000 A 
ATOM     10  C   UNL     1       1.169   2.992  20.962  0.00  0.00    +0.000 A 
ATOM     11  O   UNL     1       1.799   2.048  20.219  0.00  0.00    +0.000 OA
ATOM     12  C   UNL     1       2.155   2.638  19.050  0.00  0.00    +0.000 A 
ENDBRANCH   7   8
ENDBRANCH   5   7
ENDBRANCH   3   5
BRANCH   1  13
ATOM     13  C   UNL     1       6.632   5.364  17.466  0.00  0.00    +0.000 C 
BRANCH  13  14
ATOM     14  C   UNL     1       7.704   6.306  18.010  0.00  0.00    +0.000 C 
BRANCH  14  16
ATOM     15  C   UNL     1       8.225   8.757  17.996  0.00  0.00    +0.000 C 
ATOM     16  C   UNL     1       7.551   7.711  17.500  0.00  0.00    +0.000 C 
ENDBRANCH  14  16
ENDBRANCH  13  14
ENDBRANCH   1  13
TORSDOF 6
ENDMDL
MODEL 5
REMARK VINA RESULT:      -5.9      1.849      2.154
REMARK  Name = 
REMARK  7 active torsions:
REMARK  status: ('A' for Active; 'I' for Inactive)
REMARK    1  A    between atoms: C_2  and  C_3
REMARK    2  A    between atoms: C_3  and  C_4
REMARK    3  A    between atoms: C_4  and  C_5
REMARK    4  A    between atoms: N_7  and  C_8
REMARK    5  A    between atoms: C_8  and  C_9
REMARK    6  A    between atoms: C_8  and  C_10
REMARK    7  A    between atoms: C_10  and  C_11
REMARK                            x       y       z     vdW  Elec       q    Type
REMARK                         _______ _______ _______ _____ _____    ______ ____
ROOT
ATOM      1  C   UNL     1       6.554   4.581  14.850  0.00  0.00    +0.000 C 
ATOM      2  O   UNL     1       7.613   4.757  15.447  0.00  0.00    +0.000 OA
ATOM      3  N   UNL     1       5.327   4.880  15.404  0.00  0.00    +0.000 N 
ATOM      4  H   UNL     1       4.488   4.749  14.854  0.00  0.00    +0.000 HD
ENDROOT
BRANCH   3   5
ATOM      5  C   UNL     1       5.213   5.365  16.779  0.00  0.00    +0.000 C 
ATOM      6  C   UNL     1       5.489   6.866  16.830  0.00  0.00    +0.000 C 
BRANCH   5   7
ATOM      7  C   UNL     1       3.836   5.036  17.389  0.00  0.00    +0.000 C 
BRANCH   7   8
ATOM      8  C   UNL     1       3.806   3.691  18.046  0.00  0.00    +0.000 A 
ATOM      9  C   UNL     1       3.068   2.544  17.635  0.00  0.00    +0.000 A 
ATOM     10  C   UNL     1       3.302   1.572  18.577  0.00  0.00    +0.000 A 
ATOM     11  O   UNL     1       4.160   2.027  19.524  0.00  0.00    +0.000 OA
ATOM     12  C   UNL     1       4.467   3.308  19.195  0.00  0.00    +0.000 A 
ENDBRANCH   7   8
ENDBRANCH   5   7
ENDBRANCH   3   5
BRANCH   1  13
ATOM     13  C   UNL     1       6.487   4.058  13.432  0.00  0.00    +0.000 C 
BRANCH  13  14
ATOM     14  C   UNL     1       5.065   3.602  13.111  0.00  0.00    +0.000 C 
BRANCH  14  16
ATOM     15  C   UNL     1       3.879   3.312  10.924  0.00  0.00    +0.000 C 
ATOM     16  C   UNL     1       4.932   3.065  11.715  0.00  0.00    +0.000 C 
ENDBRANCH  14  16
ENDBRANCH  13  14
ENDBRANCH   1  13
TORSDOF 6
ENDMDL
MODEL 6
REMARK VINA RESULT:      -5.8      2.174      5.945
REMARK  Name = 
REMARK  7 active torsions:
REMARK  status: ('A' for Active; 'I' for Inactive)
REMARK    1  A    between atoms: C_2  and  C_3
REMARK    2  A    between atoms: C_3  and  C_4
REMARK    3  A    between atoms: C_4  and  C_5
REMARK    4  A    between atoms: N_7  and  C_8
REMARK    5  A    between atoms: C_8  and  C_9
REMARK    6  A    between atoms: C_8  and  C_10
REMARK    7  A    between atoms: C_10  and  C_11
REMARK                            x       y       z     vdW  Elec       q    Type
REMARK                         _______ _______ _______ _____ _____    ______ ____
ROOT
ATOM      1  C   UNL     1       2.212   4.021  17.793  0.00  0.00    +0.000 C 
ATOM      2  O   UNL     1       2.853   3.476  16.898  0.00  0.00    +0.000 OA
ATOM      3  N   UNL     1       2.471   5.305  18.221  0.00  0.00    +0.000 N 
ATOM      4  H   UNL     1       1.888   5.718  18.937  0.00  0.00    +0.000 HD
ENDROOT
BRANCH   3   5
ATOM      5  C   UNL     1       3.587   6.076  17.673  0.00  0.00    +0.000 C 
ATOM      6  C   UNL     1       3.300   7.571  17.794  0.00  0.00    +0.000 C 
BRANCH   5   7
ATOM      7  C   UNL     1       4.922   5.714  18.354  0.00  0.00    +0.000 C 
BRANCH   7   8
ATOM      8  C   UNL     1       5.960   5.258  17.377  0.00  0.00    +0.000 A 
ATOM      9  C   UNL     1       5.837   5.176  15.960  0.00  0.00    +0.000 A 
ATOM     10  C   UNL     1       7.017   4.645  15.497  0.00  0.00    +0.000 A 
ATOM     11  O   UNL     1       7.873   4.424  16.526  0.00  0.00    +0.000 OA
ATOM     12  C   UNL     1       7.231   4.803  17.661  0.00  0.00    +0.000 A 
ENDBRANCH   7   8
ENDBRANCH   5   7
ENDBRANCH   3   5
BRANCH   1  13
ATOM     13  C   UNL     1       1.044   3.355  18.488  0.00  0.00    +0.000 C 
BRANCH  13  14
ATOM     14  C   UNL     1       1.540   2.182  19.330  0.00  0.00    +0.000 C 
BRANCH  14  16
ATOM     15  C   UNL     1       1.733   2.816  21.746  0.00  0.00    +0.000 C 
ATOM     16  C   UNL     1       2.300   2.626  20.548  0.00  0.00    +0.000 C 
ENDBRANCH  14  16
ENDBRANCH  13  14
ENDBRANCH   1  13
TORSDOF 6
ENDMDL
MODEL 7
REMARK VINA RESULT:      -5.8      1.429      1.881
REMARK  Name = 
REMARK  7 active torsions:
REMARK  status: ('A' for Active; 'I' for Inactive)
REMARK    1  A    between atoms: C_2  and  C_3
REMARK    2  A    between atoms: C_3  and  C_4
REMARK    3  A    between atoms: C_4  and  C_5
REMARK    4  A    between atoms: N_7  and  C_8
REMARK    5  A    between atoms: C_8  and  C_9
REMARK    6  A    between atoms: C_8  and  C_10
REMARK    7  A    between atoms: C_10  and  C_11
REMARK                            x       y       z     vdW  Elec       q    Type
REMARK                         _______ _______ _______ _____ _____    ______ ____
ROOT
ATOM      1  C   UNL     1       6.046   5.385  18.623  0.00  0.00    +0.000 C 
ATOM      2  O   UNL     1       6.063   5.013  19.793  0.00  0.00    +0.000 OA
ATOM      3  N   UNL     1       4.905   5.849  18.003  0.00  0.00    +0.000 N 
ATOM      4  H   UNL     1       4.957   6.177  17.048  0.00  0.00    +0.000 HD
ENDROOT
BRANCH   3   5
ATOM      5  C   UNL     1       3.617   5.858  18.695  0.00  0.00    +0.000 C 
ATOM      6  C   UNL     1       2.838   7.121  18.337  0.00  0.00    +0.000 C 
BRANCH   5   7
ATOM      7  C   UNL     1       2.791   4.593  18.383  0.00  0.00    +0.000 C 
BRANCH   7   8
ATOM      8  C   UNL     1       2.434   3.823  19.616  0.00  0.00    +0.000 A 
ATOM      9  C   UNL     1       1.192   3.834  20.313  0.00  0.00    +0.000 A 
ATOM     10  C   UNL     1       1.355   3.027  21.413  0.00  0.00    +0.000 A 
ATOM     11  O   UNL     1       2.601   2.492  21.427  0.00  0.00    +0.000 OA
ATOM     12  C   UNL     1       3.248   2.971  20.334  0.00  0.00    +0.000 A 
ENDBRANCH   7   8
ENDBRANCH   5   7
ENDBRANCH   3   5
BRANCH   1  13
ATOM     13  C   UNL     1       7.284   5.413  17.752  0.00  0.00    +0.000 C 
BRANCH  13  14
ATOM     14  C   UNL     1       6.908   5.808  16.326  0.00  0.00    +0.000 C 
BRANCH  14  16
ATOM     15  C   UNL     1       6.015   3.962  14.886  0.00  0.00    +0.000 C 
ATOM     16  C   UNL     1       7.051   4.671  15.355  0.00  0.00    +0.000 C 
ENDBRANCH  14  16
ENDBRANCH  13  14
ENDBRANCH   1  13
TORSDOF 6
ENDMDL
MODEL 8
REMARK VINA RESULT:      -5.7      2.051      3.247
REMARK  Name = 
REMARK  7 active torsions:
REMARK  status: ('A' for Active; 'I' for Inactive)
REMARK    1  A    between atoms: C_2  and  C_3
REMARK    2  A    between atoms: C_3  and  C_4
REMARK    3  A    between atoms: C_4  and  C_5
REMARK    4  A    between atoms: N_7  and  C_8
REMARK    5  A    between atoms: C_8  and  C_9
REMARK    6  A    between atoms: C_8  and  C_10
REMARK    7  A    between atoms: C_10  and  C_11
REMARK                            x       y       z     vdW  Elec       q    Type
REMARK                         _______ _______ _______ _____ _____    ______ ____
ROOT
ATOM      1  C   UNL     1       5.754   4.199  16.363  0.00  0.00    +0.000 C 
ATOM      2  O   UNL     1       5.309   4.263  15.220  0.00  0.00    +0.000 OA
ATOM      3  N   UNL     1       5.040   3.664  17.413  0.00  0.00    +0.000 N 
ATOM      4  H   UNL     1       5.470   3.604  18.327  0.00  0.00    +0.000 HD
ENDROOT
BRANCH   3   5
ATOM      5  C   UNL     1       3.665   3.199  17.237  0.00  0.00    +0.000 C 
ATOM      6  C   UNL     1       3.470   1.858  17.941  0.00  0.00    +0.000 C 
BRANCH   5   7
ATOM      7  C   UNL     1       2.641   4.238  17.736  0.00  0.00    +0.000 C 
BRANCH   7   8
ATOM      8  C   UNL     1       2.257   4.024  19.167  0.00  0.00    +0.000 A 
ATOM      9  C   UNL     1       1.125   3.317  19.663  0.00  0.00    +0.000 A 
ATOM     10  C   UNL     1       1.155   3.442  21.031  0.00  0.00    +0.000 A 
ATOM     11  O   UNL     1       2.246   4.150  21.417  0.00  0.00    +0.000 OA
ATOM     12  C   UNL     1       2.913   4.494  20.287  0.00  0.00    +0.000 A 
ENDBRANCH   7   8
ENDBRANCH   5   7
ENDBRANCH   3   5
BRANCH   1  13
ATOM     13  C   UNL     1       7.148   4.663  16.728  0.00  0.00    +0.000 C 
BRANCH  13  14
ATOM     14  C   UNL     1       7.201   5.036  18.207  0.00  0.00    +0.000 C 
BRANCH  14  16
ATOM     15  C   UNL     1       7.566   7.426  17.551  0.00  0.00    +0.000 C 
ATOM     16  C   UNL     1       7.714   6.430  18.434  0.00  0.00    +0.000 C 
ENDBRANCH  14  16
ENDBRANCH  13  14
ENDBRANCH   1  13
TORSDOF 6
ENDMDL
MODEL 9
REMARK VINA RESULT:      -5.7      0.829      1.211
REMARK  Name = 
REMARK  7 active torsions:
REMARK  status: ('A' for Active; 'I' for Inactive)
REMARK    1  A    between atoms: C_2  and  C_3
REMARK    2  A    between atoms: C_3  and  C_4
REMARK    3  A    between atoms: C_4  and  C_5
REMARK    4  A    between atoms: N_7  and  C_8
REMARK    5  A    between atoms: C_8  and  C_9
REMARK    6  A    between atoms: C_8  and  C_10
REMARK    7  A    between atoms: C_10  and  C_11
REMARK                            x       y       z     vdW  Elec       q    Type
REMARK                         _______ _______ _______ _____ _____    ______ ____
ROOT
ATOM      1  C   UNL     1       6.025   4.817  17.290  0.00  0.00    +0.000 C 
ATOM      2  O   UNL     1       6.372   4.409  18.395  0.00  0.00    +0.000 OA
ATOM      3  N   UNL     1       4.779   5.355  17.049  0.00  0.00    +0.000 N 
ATOM      4  H   UNL     1       4.559   5.708  16.127  0.00  0.00    +0.000 HD
ENDROOT
BRANCH   3   5
ATOM      5  C   UNL     1       3.761   5.407  18.097  0.00  0.00    +0.000 C 
ATOM      6  C   UNL     1       3.019   6.741  18.043  0.00  0.00    +0.000 C 
BRANCH   5   7
ATOM      7  C   UNL     1       2.776   4.224  17.998  0.00  0.00    +0.000 C 
BRANCH   7   8
ATOM      8  C   UNL     1       2.338   3.728  19.340  0.00  0.00    +0.000 A 
ATOM      9  C   UNL     1       3.122   3.031  20.304  0.00  0.00    +0.000 A 
ATOM     10  C   UNL     1       2.280   2.725  21.345  0.00  0.00    +0.000 A 
ATOM     11  O   UNL     1       1.037   3.213  21.107  0.00  0.00    +0.000 OA
ATOM     12  C   UNL     1       1.078   3.825  19.896  0.00  0.00    +0.000 A 
ENDBRANCH   7   8
ENDBRANCH   5   7
ENDBRANCH   3   5
BRANCH   1  13
ATOM     13  C   UNL     1       6.944   4.810  16.087  0.00  0.00    +0.000 C 
BRANCH  13  14
ATOM     14  C   UNL     1       6.124   4.945  14.806  0.00  0.00    +0.000 C 
BRANCH  14  16
ATOM     15  C   UNL     1       5.977   3.645  12.670  0.00  0.00    +0.000 C 
ATOM     16  C   UNL     1       6.092   3.675  14.003  0.00  0.00    +0.000 C 
ENDBRANCH  14  16
ENDBRANCH  13  14
ENDBRANCH   1  13
TORSDOF 6
ENDMDL
