MODEL 1
REMARK VINA RESULT:      -8.7      0.000      0.000
REMARK  Name = 
REMARK  9 active torsions:
REMARK  status: ('A' for Active; 'I' for Inactive)
REMARK    1  A    between atoms: C_1  and  C_2
REMARK    2  A    between atoms: C_2  and  C_3
REMARK    3  A    between atoms: C_3  and  C_4
REMARK    4  A    between atoms: C_4  and  C_5
REMARK    5  A    between atoms: C_5  and  C_6
REMARK    6  A    between atoms: C_6  and  C_7
REMARK    7  A    between atoms: N_9  and  C_10
REMARK    8  A    between atoms: C_13  and  O_14
REMARK    9  A    between atoms: C_15  and  C_16
REMARK                            x       y       z     vdW  Elec       q    Type
REMARK                         _______ _______ _______ _____ _____    ______ ____
ROOT
ATOM      1  C   UNL     1       6.319   5.051  16.165  0.00  0.00    +0.000 A 
ATOM      2  C   UNL     1       7.320   5.185  17.123  0.00  0.00    +0.000 A 
ATOM      3  C   UNL     1       6.980   5.405  18.448  0.00  0.00    +0.000 A 
ATOM      4  C   UNL     1       5.638   5.452  18.832  0.00  0.00    +0.000 A 
ATOM      5  C   UNL     1       4.609   5.362  17.876  0.00  0.00    +0.000 A 
ATOM      6  C   UNL     1       4.977   5.162  16.536  0.00  0.00    +0.000 A 
ENDROOT
BRANCH   5   7
ATOM      7  C   UNL     1       3.156   5.279  18.282  0.00  0.00    +0.000 C 
ATOM      8  O   UNL     1       2.443   6.238  18.086  0.00  0.00    +0.000 OA
ATOM      9  N   UNL     1       2.666   4.115  18.907  0.00  0.00    +0.000 N 
ATOM     10  C   UNL     1       1.232   4.039  19.180  0.00  0.00    +0.000 C 
ATOM     11  C   UNL     1       0.961   3.690  20.640  0.00  0.00    +0.000 C 
ATOM     12  C   UNL     1       1.746   2.451  21.071  0.00  0.00    +0.000 C 
ATOM     13  C   UNL     1       3.230   2.601  20.755  0.00  0.00    +0.000 C 
ATOM     14  C   UNL     1       3.418   2.928  19.283  0.00  0.00    +0.000 C 
ENDBRANCH   5   7
BRANCH   1  17
ATOM     15  C   UNL     1       6.804   3.836  12.863  0.00  0.00    +0.000 A 
ATOM     16  C   UNL     1       6.183   3.703  14.081  0.00  0.00    +0.000 A 
ATOM     17  N   UNL     1       6.675   4.732  14.840  0.00  0.00    +0.000 N 
ATOM     18  N   UNL     1       7.554   5.460  14.118  0.00  0.00    +0.000 NA
ATOM     19  N   UNL     1       7.682   4.883  12.927  0.00  0.00    +0.000 NA
BRANCH  15  20
ATOM     20  C   UNL     1       6.580   3.092  11.598  0.00  0.00    +0.000 C 
BRANCH  20  21
ATOM     21  C   UNL     1       5.169   2.511  11.535  0.00  0.00    +0.000 C 
BRANCH  21  22
ATOM     22  C   UNL     1       4.100   3.586  11.353  0.00  0.00    +0.000 C 
BRANCH  22  23
ATOM     23  C   UNL     1       3.077   3.139  10.306  0.00  0.00    +0.000 C 
BRANCH  23  25
ATOM     24  C   UNL     1       2.085   5.107   9.101  0.00  0.00    +0.000 C 
ATOM     25  C   UNL     1       3.134   4.008   9.054  0.00  0.00    +0.000 C 
ENDBRANCH  23  25
ENDBRANCH  22  23
ENDBRANCH  21  22
ENDBRANCH  20  21
ENDBRANCH  15  20
ENDBRANCH   1  17
BRANCH   4  26
ATOM     26  O   UNL     1       5.380   5.537  20.170  0.00  0.00    +0.000 OA
ATOM     27  H   UNL     1       5.428   4.648  20.572  0.00  0.00    +0.000 HD
ENDBRANCH   4  26
TORSDOF 8
ENDMDL
MODEL 2
REMARK VINA RESULT:      -8.0      2.630      3.928
REMARK  Name = 
REMARK  9 active torsions:
REMARK  status: ('A' for Active; 'I' for Inactive)
REMARK    1  A    between atoms: C_1  and  C_2
REMARK    2  A    between atoms: C_2  and  C_3
REMARK    3  A    between atoms: C_3  and  C_4
REMARK    4  A    between atoms: C_4  and  C_5
REMARK    5  A    between atoms: C_5  and  C_6
REMARK    6  A    between atoms: C_6  and  C_7
REMARK    7  A    between atoms: N_9  and  C_10
REMARK    8  A    between atoms: C_13  and  O_14
REMARK    9  A    between atoms: C_15  and  C_16
REMARK                            x       y       z     vdW  Elec       q    Type
REMARK                         _______ _______ _______ _____ _____    ______ ____
ROOT
ATOM      1  C   UNL     1       3.753   4.474  17.372  0.00  0.00    +0.000 A 
ATOM      2  C   UNL     1       3.118   3.236  17.318  0.00  0.00    +0.000 A 
ATOM      3  C   UNL     1       2.111   2.939  18.222  0.00  0.00    +0.000 A 
ATOM      4  C   UNL     1       1.704   3.890  19.160  0.00  0.00    +0.000 A 
ATOM      5  C   UNL     1       2.359   5.132  19.262  0.00  0.00    +0.000 A 
ATOM      6  C   UNL     1       3.392   5.403  18.350  0.00  0.00    +0.000 A 
ENDROOT
BRANCH   5   7
ATOM      7  C   UNL     1       1.852   6.221  20.178  0.00  0.00    +0.000 C 
ATOM      8  O   UNL     1       1.375   5.907  21.245  0.00  0.00    +0.000 OA
ATOM      9  N   UNL     1       1.911   7.569  19.767  0.00  0.00    +0.000 N 
ATOM     10  C   UNL     1       1.512   8.593  20.730  0.00  0.00    +0.000 C 
ATOM     11  C   UNL     1       0.468   9.536  20.139  0.00  0.00    +0.000 C 
ATOM     12  C   UNL     1       0.920  10.090  18.788  0.00  0.00    +0.000 C 
ATOM     13  C   UNL     1       1.320   8.966  17.839  0.00  0.00    +0.000 C 
ATOM     14  C   UNL     1       2.373   8.085  18.488  0.00  0.00    +0.000 C 
ENDBRANCH   5   7
BRANCH   1  17
ATOM     15  C   UNL     1       6.117   4.733  14.734  0.00  0.00    +0.000 A 
ATOM     16  C   UNL     1       5.310   3.938  15.509  0.00  0.00    +0.000 A 
ATOM     17  N   UNL     1       4.706   4.800  16.387  0.00  0.00    +0.000 N 
ATOM     18  N   UNL     1       5.125   6.062  16.156  0.00  0.00    +0.000 NA
ATOM     19  N   UNL     1       6.032   6.021  15.185  0.00  0.00    +0.000 NA
BRANCH  15  20
ATOM     20  C   UNL     1       6.920   4.386  13.534  0.00  0.00    +0.000 C 
BRANCH  20  21
ATOM     21  C   UNL     1       6.210   3.346  12.671  0.00  0.00    +0.000 C 
BRANCH  21  22
ATOM     22  C   UNL     1       4.940   3.889  12.021  0.00  0.00    +0.000 C 
BRANCH  22  23
ATOM     23  C   UNL     1       4.389   2.878  11.014  0.00  0.00    +0.000 C 
BRANCH  23  25
ATOM     24  C   UNL     1       2.941   4.250   9.487  0.00  0.00    +0.000 C 
ATOM     25  C   UNL     1       2.959   3.215  10.600  0.00  0.00    +0.000 C 
ENDBRANCH  23  25
ENDBRANCH  22  23
ENDBRANCH  21  22
ENDBRANCH  20  21
ENDBRANCH  15  20
ENDBRANCH   1  17
BRANCH   4  26
ATOM     26  O   UNL     1       0.620   3.577  19.928  0.00  0.00    +0.000 OA
ATOM     27  H   UNL     1       0.857   2.874  20.563  0.00  0.00    +0.000 HD
ENDBRANCH   4  26
TORSDOF 8
ENDMDL
MODEL 3
REMARK VINA RESULT:      -7.8      1.361      1.755
REMARK  Name = 
REMARK  9 active torsions:
REMARK  status: ('A' for Active; 'I' for Inactive)
REMARK    1  A    between atoms: C_1  and  C_2
REMARK    2  A    between atoms: C_2  and  C_3
REMARK    3  A    between atoms: C_3  and  C_4
REMARK    4  A    between atoms: C_4  and  C_5
REMARK    5  A    between atoms: C_5  and  C_6
REMARK    6  A    between atoms: C_6  and  C_7
REMARK    7  A    between atoms: N_9  and  C_10
REMARK    8  A    between atoms: C_13  and  O_14
REMARK    9  A    between atoms: C_15  and  C_16
REMARK                            x       y       z     vdW  Elec       q    Type
REMARK                         _______ _______ _______ _____ _____    ______ ____
ROOT
ATOM      1  C   UNL     1       6.600   4.807  16.303  0.00  0.00    +0.000 A 
ATOM      2  C   UNL     1       7.523   5.706  16.834  0.00  0.00    +0.000 A 
ATOM      3  C   UNL     1       7.563   5.924  18.202  0.00  0.00    +0.000 A 
ATOM      4  C   UNL     1       6.710   5.218  19.052  0.00  0.00    +0.000 A 
ATOM      5  C   UNL     1       5.740   4.337  18.537  0.00  0.00    +0.000 A 
ATOM      6  C   UNL     1       5.703   4.147  17.146  0.00  0.00    +0.000 A 
ENDROOT
BRANCH   5   7
ATOM      7  C   UNL     1       4.899   3.468  19.442  0.00  0.00    +0.000 C 
ATOM      8  O   UNL     1       5.282   2.346  19.689  0.00  0.00    +0.000 OA
ATOM      9  N   UNL     1       3.680   3.957  19.952  0.00  0.00    +0.000 N 
ATOM     10  C   UNL     1       2.957   3.124  20.911  0.00  0.00    +0.000 C 
ATOM     11  C   UNL     1       1.507   2.917  20.486  0.00  0.00    +0.000 C 
ATOM     12  C   UNL     1       0.823   4.248  20.177  0.00  0.00    +0.000 C 
ATOM     13  C   UNL     1       1.632   5.062  19.173  0.00  0.00    +0.000 C 
ATOM     14  C   UNL     1       3.055   5.241  19.673  0.00  0.00    +0.000 C 
ENDBRANCH   5   7
BRANCH   1  17
ATOM     15  C   UNL     1       6.278   3.691  12.947  0.00  0.00    +0.000 A 
ATOM     16  C   UNL     1       5.942   3.538  14.270  0.00  0.00    +0.000 A 
ATOM     17  N   UNL     1       6.636   4.521  14.924  0.00  0.00    +0.000 N 
ATOM     18  N   UNL     1       7.360   5.241  14.042  0.00  0.00    +0.000 NA
ATOM     19  N   UNL     1       7.192   4.702  12.838  0.00  0.00    +0.000 NA
BRANCH  15  20
ATOM     20  C   UNL     1       5.744   2.999  11.746  0.00  0.00    +0.000 C 
BRANCH  20  21
ATOM     21  C   UNL     1       4.751   3.881  10.992  0.00  0.00    +0.000 C 
BRANCH  21  22
ATOM     22  C   UNL     1       3.325   3.339  11.047  0.00  0.00    +0.000 C 
BRANCH  22  23
ATOM     23  C   UNL     1       2.803   3.084   9.631  0.00  0.00    +0.000 C 
BRANCH  23  25
ATOM     24  C   UNL     1       1.875   5.294   8.879  0.00  0.00    +0.000 C 
ATOM     25  C   UNL     1       3.010   4.294   8.726  0.00  0.00    +0.000 C 
ENDBRANCH  23  25
ENDBRANCH  22  23
ENDBRANCH  21  22
ENDBRANCH  20  21
ENDBRANCH  15  20
ENDBRANCH   1  17
BRANCH   4  26
ATOM     26  O   UNL     1       6.896   5.386  20.394  0.00  0.00    +0.000 OA
ATOM     27  H   UNL     1       7.818   5.657  20.567  0.00  0.00    +0.000 HD
ENDBRANCH   4  26
TORSDOF 8
ENDMDL
MODEL 4
REMARK VINA RESULT:      -7.7      4.318      7.834
REMARK  Name = 
REMARK  9 active torsions:
REMARK  status: ('A' for Active; 'I' for Inactive)
REMARK    1  A    between atoms: C_1  and  C_2
REMARK    2  A    between atoms: C_2  and  C_3
REMARK    3  A    between atoms: C_3  and  C_4
REMARK    4  A    between atoms: C_4  and  C_5
REMARK    5  A    between atoms: C_5  and  C_6
REMARK    6  A    between atoms: C_6  and  C_7
REMARK    7  A    between atoms: N_9  and  C_10
REMARK    8  A    between atoms: C_13  and  O_14
REMARK    9  A    between atoms: C_15  and  C_16
REMARK                            x       y       z     vdW  Elec       q    Type
REMARK                         _______ _______ _______ _____ _____    ______ ____
ROOT
ATOM      1  C   UNL     1       3.557   6.841  18.267  0.00  0.00    +0.000 A 
ATOM      2  C   UNL     1       3.538   5.895  19.290  0.00  0.00    +0.000 A 
ATOM      3  C   UNL     1       4.484   4.883  19.309  0.00  0.00    +0.000 A 
ATOM      4  C   UNL     1       5.479   4.831  18.330  0.00  0.00    +0.000 A 
ATOM      5  C   UNL     1       5.494   5.749  17.264  0.00  0.00    +0.000 A 
ATOM      6  C   UNL     1       4.512   6.754  17.252  0.00  0.00    +0.000 A 
ENDROOT
BRANCH   5   7
ATOM      7  C   UNL     1       6.632   5.792  16.271  0.00  0.00    +0.000 C 
ATOM      8  O   UNL     1       7.464   6.664  16.380  0.00  0.00    +0.000 OA
ATOM      9  N   UNL     1       6.688   4.848  15.225  0.00  0.00    +0.000 N 
ATOM     10  C   UNL     1       7.865   4.860  14.359  0.00  0.00    +0.000 C 
ATOM     11  C   UNL     1       7.471   4.929  12.887  0.00  0.00    +0.000 C 
ATOM     12  C   UNL     1       6.446   3.851  12.534  0.00  0.00    +0.000 C 
ATOM     13  C   UNL     1       5.250   3.899  13.479  0.00  0.00    +0.000 C 
ATOM     14  C   UNL     1       5.720   3.806  14.920  0.00  0.00    +0.000 C 
ENDBRANCH   5   7
BRANCH   1  17
ATOM     15  C   UNL     1       1.203   9.412  18.943  0.00  0.00    +0.000 A 
ATOM     16  C   UNL     1       1.871   8.293  19.375  0.00  0.00    +0.000 A 
ATOM     17  N   UNL     1       2.652   7.920  18.313  0.00  0.00    +0.000 N 
ATOM     18  N   UNL     1       2.470   8.772  17.283  0.00  0.00    +0.000 NA
ATOM     19  N   UNL     1       1.541   9.654  17.641  0.00  0.00    +0.000 NA
BRANCH  15  20
ATOM     20  C   UNL     1       0.312  10.334  19.694  0.00  0.00    +0.000 C 
BRANCH  20  21
ATOM     21  C   UNL     1      -1.151  10.133  19.307  0.00  0.00    +0.000 C 
BRANCH  21  22
ATOM     22  C   UNL     1      -1.566  10.988  18.112  0.00  0.00    +0.000 C 
BRANCH  22  23
ATOM     23  C   UNL     1      -2.102  10.099  16.988  0.00  0.00    +0.000 C 
BRANCH  23  25
ATOM     24  C   UNL     1      -3.016  10.073  14.648  0.00  0.00    +0.000 C 
ATOM     25  C   UNL     1      -2.760  10.921  15.884  0.00  0.00    +0.000 C 
ENDBRANCH  23  25
ENDBRANCH  22  23
ENDBRANCH  21  22
ENDBRANCH  20  21
ENDBRANCH  15  20
ENDBRANCH   1  17
BRANCH   4  26
ATOM     26  O   UNL     1       6.453   3.888  18.488  0.00  0.00    +0.000 OA
ATOM     27  H   UNL     1       7.107   3.965  17.767  0.00  0.00    +0.000 HD
ENDBRANCH   4  26
TORSDOF 8
ENDMDL
MODEL 5
REMARK VINA RESULT:      -7.7      4.354      8.168
REMARK  Name = 
REMARK  9 active torsions:
REMARK  status: ('A' for Active; 'I' for Inactive)
REMARK    1  A    between atoms: C_1  and  C_2
REMARK    2  A    between atoms: C_2  and  C_3
REMARK    3  A    between atoms: C_3  and  C_4
REMARK    4  A    between atoms: C_4  and  C_5
REMARK    5  A    between atoms: C_5  and  C_6
REMARK    6  A    between atoms: C_6  and  C_7
REMARK    7  A    between atoms: N_9  and  C_10
REMARK    8  A    between atoms: C_13  and  O_14
REMARK    9  A    between atoms: C_15  and  C_16
REMARK                            x       y       z     vdW  Elec       q    Type
REMARK                         _______ _______ _______ _____ _____    ______ ____
ROOT
ATOM      1  C   UNL     1       2.268   6.368  20.033  0.00  0.00    +0.000 A 
ATOM      2  C   UNL     1       1.666   5.257  20.619  0.00  0.00    +0.000 A 
ATOM      3  C   UNL     1       2.311   4.031  20.595  0.00  0.00    +0.000 A 
ATOM      4  C   UNL     1       3.579   3.914  20.021  0.00  0.00    +0.000 A 
ATOM      5  C   UNL     1       4.189   5.012  19.385  0.00  0.00    +0.000 A 
ATOM      6  C   UNL     1       3.507   6.240  19.402  0.00  0.00    +0.000 A 
ENDROOT
BRANCH   5   7
ATOM      7  C   UNL     1       5.609   4.942  18.875  0.00  0.00    +0.000 C 
ATOM      8  O   UNL     1       6.507   5.287  19.610  0.00  0.00    +0.000 OA
ATOM      9  N   UNL     1       5.863   4.515  17.556  0.00  0.00    +0.000 N 
ATOM     10  C   UNL     1       7.256   4.358  17.145  0.00  0.00    +0.000 C 
ATOM     11  C   UNL     1       7.545   5.117  15.854  0.00  0.00    +0.000 C 
ATOM     12  C   UNL     1       6.530   4.770  14.765  0.00  0.00    +0.000 C 
ATOM     13  C   UNL     1       5.102   4.956  15.265  0.00  0.00    +0.000 C 
ATOM     14  C   UNL     1       4.887   4.156  16.539  0.00  0.00    +0.000 C 
ENDBRANCH   5   7
BRANCH   1  17
ATOM     15  C   UNL     1       0.864   9.620  19.772  0.00  0.00    +0.000 A 
ATOM     16  C   UNL     1       1.618   8.621  19.207  0.00  0.00    +0.000 A 
ATOM     17  N   UNL     1       1.646   7.626  20.150  0.00  0.00    +0.000 N 
ATOM     18  N   UNL     1       0.941   8.001  21.238  0.00  0.00    +0.000 NA
ATOM     19  N   UNL     1       0.509   9.243  21.038  0.00  0.00    +0.000 NA
BRANCH  15  20
ATOM     20  C   UNL     1       0.379  10.892  19.180  0.00  0.00    +0.000 C 
BRANCH  20  21
ATOM     21  C   UNL     1      -1.045  10.751  18.648  0.00  0.00    +0.000 C 
BRANCH  21  22
ATOM     22  C   UNL     1      -1.130   9.832  17.432  0.00  0.00    +0.000 C 
BRANCH  22  23
ATOM     23  C   UNL     1      -2.460  10.040  16.705  0.00  0.00    +0.000 C 
BRANCH  23  25
ATOM     24  C   UNL     1      -4.479  11.371  17.387  0.00  0.00    +0.000 C 
ATOM     25  C   UNL     1      -3.627  10.147  17.682  0.00  0.00    +0.000 C 
ENDBRANCH  23  25
ENDBRANCH  22  23
ENDBRANCH  21  22
ENDBRANCH  20  21
ENDBRANCH  15  20
ENDBRANCH   1  17
BRANCH   4  26
ATOM     26  O   UNL     1       4.209   2.710  20.152  0.00  0.00    +0.000 OA
ATOM     27  H   UNL     1       3.963   2.301  21.004  0.00  0.00    +0.000 HD
ENDBRANCH   4  26
TORSDOF 8
ENDMDL
MODEL 6
REMARK VINA RESULT:      -7.5      2.674      4.415
REMARK  Name = 
REMARK  9 active torsions:
REMARK  status: ('A' for Active; 'I' for Inactive)
REMARK    1  A    between atoms: C_1  and  C_2
REMARK    2  A    between atoms: C_2  and  C_3
REMARK    3  A    between atoms: C_3  and  C_4
REMARK    4  A    between atoms: C_4  and  C_5
REMARK    5  A    between atoms: C_5  and  C_6
REMARK    6  A    between atoms: C_6  and  C_7
REMARK    7  A    between atoms: N_9  and  C_10
REMARK    8  A    between atoms: C_13  and  O_14
REMARK    9  A    between atoms: C_15  and  C_16
REMARK                            x       y       z     vdW  Elec       q    Type
REMARK                         _______ _______ _______ _____ _____    ______ ____
ROOT
ATOM      1  C   UNL     1       4.100   4.002  18.267  0.00  0.00    +0.000 A 
ATOM      2  C   UNL     1       3.463   2.768  18.373  0.00  0.00    +0.000 A 
ATOM      3  C   UNL     1       2.349   2.636  19.185  0.00  0.00    +0.000 A 
ATOM      4  C   UNL     1       1.838   3.743  19.866  0.00  0.00    +0.000 A 
ATOM      5  C   UNL     1       2.489   4.990  19.809  0.00  0.00    +0.000 A 
ATOM      6  C   UNL     1       3.629   5.097  18.997  0.00  0.00    +0.000 A 
ENDROOT
BRANCH   5   7
ATOM      7  C   UNL     1       1.883   6.228  20.428  0.00  0.00    +0.000 C 
ATOM      8  O   UNL     1       1.240   6.111  21.448  0.00  0.00    +0.000 OA
ATOM      9  N   UNL     1       2.046   7.480  19.801  0.00  0.00    +0.000 N 
ATOM     10  C   UNL     1       1.538   8.661  20.495  0.00  0.00    +0.000 C 
ATOM     11  C   UNL     1       0.626   9.487  19.594  0.00  0.00    +0.000 C 
ATOM     12  C   UNL     1       1.294   9.790  18.253  0.00  0.00    +0.000 C 
ATOM     13  C   UNL     1       1.798   8.513  17.589  0.00  0.00    +0.000 C 
ATOM     14  C   UNL     1       2.712   7.757  18.539  0.00  0.00    +0.000 C 
ENDBRANCH   5   7
BRANCH   1  17
ATOM     15  C   UNL     1       6.394   4.317  15.574  0.00  0.00    +0.000 A 
ATOM     16  C   UNL     1       5.111   4.070  15.997  0.00  0.00    +0.000 A 
ATOM     17  N   UNL     1       5.171   4.147  17.364  0.00  0.00    +0.000 N 
ATOM     18  N   UNL     1       6.432   4.428  17.756  0.00  0.00    +0.000 NA
ATOM     19  N   UNL     1       7.197   4.476  16.669  0.00  0.00    +0.000 NA
BRANCH  15  20
ATOM     20  C   UNL     1       6.922   4.493  14.197  0.00  0.00    +0.000 C 
BRANCH  20  21
ATOM     21  C   UNL     1       6.000   3.852  13.162  0.00  0.00    +0.000 C 
BRANCH  21  22
ATOM     22  C   UNL     1       6.763   3.037  12.120  0.00  0.00    +0.000 C 
BRANCH  22  23
ATOM     23  C   UNL     1       5.813   2.072  11.407  0.00  0.00    +0.000 C 
BRANCH  23  25
ATOM     24  C   UNL     1       6.119  -0.421  11.360  0.00  0.00    +0.000 C 
ATOM     25  C   UNL     1       6.566   0.907  10.771  0.00  0.00    +0.000 C 
ENDBRANCH  23  25
ENDBRANCH  22  23
ENDBRANCH  21  22
ENDBRANCH  20  21
ENDBRANCH  15  20
ENDBRANCH   1  17
BRANCH   4  26
ATOM     26  O   UNL     1       0.664   3.568  20.539  0.00  0.00    +0.000 OA
ATOM     27  H   UNL     1      -0.081   3.567  19.907  0.00  0.00    +0.000 HD
ENDBRANCH   4  26
TORSDOF 8
ENDMDL
MODEL 7
REMARK VINA RESULT:      -7.4      4.487      8.491
REMARK  Name = 
REMARK  9 active torsions:
REMARK  status: ('A' for Active; 'I' for Inactive)
REMARK    1  A    between atoms: C_1  and  C_2
REMARK    2  A    between atoms: C_2  and  C_3
REMARK    3  A    between atoms: C_3  and  C_4
REMARK    4  A    between atoms: C_4  and  C_5
REMARK    5  A    between atoms: C_5  and  C_6
REMARK    6  A    between atoms: C_6  and  C_7
REMARK    7  A    between atoms: N_9  and  C_10
REMARK    8  A    between atoms: C_13  and  O_14
REMARK    9  A    between atoms: C_15  and  C_16
REMARK                            x       y       z     vdW  Elec       q    Type
REMARK                         _______ _______ _______ _____ _____    ______ ____
ROOT
ATOM      1  C   UNL     1       2.288   6.495  19.923  0.00  0.00    +0.000 A 
ATOM      2  C   UNL     1       1.665   5.446  20.595  0.00  0.00    +0.000 A 
ATOM      3  C   UNL     1       2.280   4.206  20.658  0.00  0.00    +0.000 A 
ATOM      4  C   UNL     1       3.540   4.015  20.085  0.00  0.00    +0.000 A 
ATOM      5  C   UNL     1       4.170   5.047  19.365  0.00  0.00    +0.000 A 
ATOM      6  C   UNL     1       3.519   6.289  19.295  0.00  0.00    +0.000 A 
ENDROOT
BRANCH   5   7
ATOM      7  C   UNL     1       5.584   4.905  18.851  0.00  0.00    +0.000 C 
ATOM      8  O   UNL     1       6.502   5.131  19.608  0.00  0.00    +0.000 OA
ATOM      9  N   UNL     1       5.811   4.548  17.506  0.00  0.00    +0.000 N 
ATOM     10  C   UNL     1       7.191   4.315  17.086  0.00  0.00    +0.000 C 
ATOM     11  C   UNL     1       7.543   5.135  15.849  0.00  0.00    +0.000 C 
ATOM     12  C   UNL     1       6.511   4.939  14.739  0.00  0.00    +0.000 C 
ATOM     13  C   UNL     1       5.098   5.199  15.251  0.00  0.00    +0.000 C 
ATOM     14  C   UNL     1       4.816   4.334  16.467  0.00  0.00    +0.000 C 
ENDBRANCH   5   7
BRANCH   1  17
ATOM     15  C   UNL     1       0.671   9.594  20.546  0.00  0.00    +0.000 A 
ATOM     16  C   UNL     1       1.004   8.337  20.988  0.00  0.00    +0.000 A 
ATOM     17  N   UNL     1       1.698   7.773  19.950  0.00  0.00    +0.000 N 
ATOM     18  N   UNL     1       1.786   8.646  18.924  0.00  0.00    +0.000 NA
ATOM     19  N   UNL     1       1.110   9.741  19.260  0.00  0.00    +0.000 NA
BRANCH  15  20
ATOM     20  C   UNL     1       0.028  10.717  21.276  0.00  0.00    +0.000 C 
BRANCH  20  21
ATOM     21  C   UNL     1      -0.291  11.880  20.340  0.00  0.00    +0.000 C 
BRANCH  21  22
ATOM     22  C   UNL     1      -1.792  12.078  20.140  0.00  0.00    +0.000 C 
BRANCH  22  23
ATOM     23  C   UNL     1      -2.148  11.951  18.657  0.00  0.00    +0.000 C 
BRANCH  23  25
ATOM     24  C   UNL     1      -1.679   9.989  17.160  0.00  0.00    +0.000 C 
ATOM     25  C   UNL     1      -2.543  10.524  18.291  0.00  0.00    +0.000 C 
ENDBRANCH  23  25
ENDBRANCH  22  23
ENDBRANCH  21  22
ENDBRANCH  20  21
ENDBRANCH  15  20
ENDBRANCH   1  17
BRANCH   4  26
ATOM     26  O   UNL     1       4.142   2.809  20.301  0.00  0.00    +0.000 OA
ATOM     27  H   UNL     1       4.815   2.898  21.003  0.00  0.00    +0.000 HD
ENDBRANCH   4  26
TORSDOF 8
ENDMDL
MODEL 8
REMARK VINA RESULT:      -7.3      5.176      9.722
REMARK  Name = 
REMARK  9 active torsions:
REMARK  status: ('A' for Active; 'I' for Inactive)
REMARK    1  A    between atoms: C_1  and  C_2
REMARK    2  A    between atoms: C_2  and  C_3
REMARK    3  A    between atoms: C_3  and  C_4
REMARK    4  A    between atoms: C_4  and  C_5
REMARK    5  A    between atoms: C_5  and  C_6
REMARK    6  A    between atoms: C_6  and  C_7
REMARK    7  A    between atoms: N_9  and  C_10
REMARK    8  A    between atoms: C_13  and  O_14
REMARK    9  A    between atoms: C_15  and  C_16
REMARK                            x       y       z     vdW  Elec       q    Type
REMARK                         _______ _______ _______ _____ _____    ______ ____
ROOT
ATOM      1  C   UNL     1       2.267   6.569  19.948  0.00  0.00    +0.000 A 
ATOM      2  C   UNL     1       1.622   5.526  20.610  0.00  0.00    +0.000 A 
ATOM      3  C   UNL     1       2.220   4.278  20.674  0.00  0.00    +0.000 A 
ATOM      4  C   UNL     1       3.482   4.072  20.113  0.00  0.00    +0.000 A 
ATOM      5  C   UNL     1       4.134   5.098  19.402  0.00  0.00    +0.000 A 
ATOM      6  C   UNL     1       3.500   6.349  19.331  0.00  0.00    +0.000 A 
ENDROOT
BRANCH   5   7
ATOM      7  C   UNL     1       5.550   4.937  18.903  0.00  0.00    +0.000 C 
ATOM      8  O   UNL     1       6.464   5.184  19.658  0.00  0.00    +0.000 OA
ATOM      9  N   UNL     1       5.785   4.540  17.570  0.00  0.00    +0.000 N 
ATOM     10  C   UNL     1       7.167   4.291  17.166  0.00  0.00    +0.000 C 
ATOM     11  C   UNL     1       7.528   5.073  15.907  0.00  0.00    +0.000 C 
ATOM     12  C   UNL     1       6.502   4.846  14.797  0.00  0.00    +0.000 C 
ATOM     13  C   UNL     1       5.087   5.123  15.292  0.00  0.00    +0.000 C 
ATOM     14  C   UNL     1       4.796   4.296  16.532  0.00  0.00    +0.000 C 
ENDBRANCH   5   7
BRANCH   1  17
ATOM     15  C   UNL     1       0.698   9.694  20.569  0.00  0.00    +0.000 A 
ATOM     16  C   UNL     1       1.018   8.435  21.015  0.00  0.00    +0.000 A 
ATOM     17  N   UNL     1       1.694   7.856  19.973  0.00  0.00    +0.000 N 
ATOM     18  N   UNL     1       1.783   8.722  18.941  0.00  0.00    +0.000 NA
ATOM     19  N   UNL     1       1.125   9.827  19.277  0.00  0.00    +0.000 NA
BRANCH  15  20
ATOM     20  C   UNL     1       0.077  10.829  21.299  0.00  0.00    +0.000 C 
BRANCH  20  21
ATOM     21  C   UNL     1      -0.439  10.395  22.669  0.00  0.00    +0.000 C 
BRANCH  21  22
ATOM     22  C   UNL     1      -1.583  11.271  23.171  0.00  0.00    +0.000 C 
BRANCH  22  23
ATOM     23  C   UNL     1      -1.230  12.750  22.997  0.00  0.00    +0.000 C 
BRANCH  23  25
ATOM     24  C   UNL     1      -1.511  14.925  24.222  0.00  0.00    +0.000 C 
ATOM     25  C   UNL     1      -2.200  13.655  23.752  0.00  0.00    +0.000 C 
ENDBRANCH  23  25
ENDBRANCH  22  23
ENDBRANCH  21  22
ENDBRANCH  20  21
ENDBRANCH  15  20
ENDBRANCH   1  17
BRANCH   4  26
ATOM     26  O   UNL     1       4.065   2.857  20.331  0.00  0.00    +0.000 OA
ATOM     27  H   UNL     1       4.272   2.757  21.280  0.00  0.00    +0.000 HD
ENDBRANCH   4  26
TORSDOF 8
ENDMDL
MODEL 9
REMARK VINA RESULT:      -7.3      6.511      9.263
REMARK  Name = 
REMARK  9 active torsions:
REMARK  status: ('A' for Active; 'I' for Inactive)
REMARK    1  A    between atoms: C_1  and  C_2
REMARK    2  A    between atoms: C_2  and  C_3
REMARK    3  A    between atoms: C_3  and  C_4
REMARK    4  A    between atoms: C_4  and  C_5
REMARK    5  A    between atoms: C_5  and  C_6
REMARK    6  A    between atoms: C_6  and  C_7
REMARK    7  A    between atoms: N_9  and  C_10
REMARK    8  A    between atoms: C_13  and  O_14
REMARK    9  A    between atoms: C_15  and  C_16
REMARK                            x       y       z     vdW  Elec       q    Type
REMARK                         _______ _______ _______ _____ _____    ______ ____
ROOT
ATOM      1  C   UNL     1       1.182   9.126  20.516  0.00  0.00    +0.000 A 
ATOM      2  C   UNL     1       1.018   8.634  21.808  0.00  0.00    +0.000 A 
ATOM      3  C   UNL     1       0.319   9.378  22.745  0.00  0.00    +0.000 A 
ATOM      4  C   UNL     1      -0.255  10.600  22.387  0.00  0.00    +0.000 A 
ATOM      5  C   UNL     1      -0.067  11.138  21.099  0.00  0.00    +0.000 A 
ATOM      6  C   UNL     1       0.664  10.376  20.172  0.00  0.00    +0.000 A 
ENDROOT
BRANCH   5   7
ATOM      7  C   UNL     1      -0.785  12.389  20.651  0.00  0.00    +0.000 C 
ATOM      8  O   UNL     1      -1.979  12.336  20.459  0.00  0.00    +0.000 OA
ATOM      9  N   UNL     1      -0.058  13.577  20.434  0.00  0.00    +0.000 N 
ATOM     10  C   UNL     1      -0.810  14.788  20.110  0.00  0.00    +0.000 C 
ATOM     11  C   UNL     1      -0.278  15.452  18.844  0.00  0.00    +0.000 C 
ATOM     12  C   UNL     1       1.235  15.657  18.917  0.00  0.00    +0.000 C 
ATOM     13  C   UNL     1       1.951  14.355  19.259  0.00  0.00    +0.000 C 
ATOM     14  C   UNL     1       1.380  13.767  20.538  0.00  0.00    +0.000 C 
ENDBRANCH   5   7
BRANCH   1  17
ATOM     15  C   UNL     1       2.674   6.650  18.453  0.00  0.00    +0.000 A 
ATOM     16  C   UNL     1       2.114   6.986  19.661  0.00  0.00    +0.000 A 
ATOM     17  N   UNL     1       1.810   8.317  19.548  0.00  0.00    +0.000 N 
ATOM     18  N   UNL     1       2.167   8.771  18.328  0.00  0.00    +0.000 NA
ATOM     19  N   UNL     1       2.749   7.770  17.673  0.00  0.00    +0.000 NA
BRANCH  15  20
ATOM     20  C   UNL     1       3.083   5.319  17.934  0.00  0.00    +0.000 C 
BRANCH  20  21
ATOM     21  C   UNL     1       1.883   4.385  17.791  0.00  0.00    +0.000 C 
BRANCH  21  22
ATOM     22  C   UNL     1       2.287   2.913  17.755  0.00  0.00    +0.000 C 
BRANCH  22  23
ATOM     23  C   UNL     1       1.609   2.152  18.898  0.00  0.00    +0.000 C 
BRANCH  23  25
ATOM     24  C   UNL     1       1.413   3.013  21.249  0.00  0.00    +0.000 C 
ATOM     25  C   UNL     1       0.860   3.093  19.836  0.00  0.00    +0.000 C 
ENDBRANCH  23  25
ENDBRANCH  22  23
ENDBRANCH  21  22
ENDBRANCH  20  21
ENDBRANCH  15  20
ENDBRANCH   1  17
BRANCH   4  26
ATOM     26  O   UNL     1      -1.041  11.212  23.320  0.00  0.00    +0.000 OA
ATOM     27  H   UNL     1      -0.689  11.034  24.214  0.00  0.00    +0.000 HD
ENDBRANCH   4  26
TORSDOF 8
ENDMDL
