MODEL 1
REMARK VINA RESULT:      -8.0      0.000      0.000
REMARK  Name = 
REMARK  3 active torsions:
REMARK  status: ('A' for Active; 'I' for Inactive)
REMARK    1  A    between atoms: C_1  and  C_2
REMARK    2  A    between atoms: C_7  and  N_8
REMARK    3  A    between atoms: C_9  and  C_11
REMARK                            x       y       z     vdW  Elec       q    Type
REMARK                         _______ _______ _______ _____ _____    ______ ____
ROOT
ATOM      1  N   UNL     1       1.928   7.963  19.623  0.00  0.00    +0.000 N 
ATOM      2  C   UNL     1       2.116   6.597  19.775  0.00  0.00    +0.000 C 
ATOM      3  O   UNL     1       1.646   5.908  20.677  0.00  0.00    +0.000 OA
ATOM      4  H   UNL     1       2.246   8.355  18.742  0.00  0.00    +0.000 HD
ENDROOT
BRANCH   1  11
ATOM      5  C   UNL     1      -2.686  13.064  22.831  0.00  0.00    +0.000 C 
ATOM      6  C   UNL     1      -1.721  12.052  22.323  0.00  0.00    +0.000 A 
ATOM      7  N   UNL     1      -1.037  11.241  23.097  0.00  0.00    +0.000 NA
ATOM      8  C   UNL     1      -0.246  10.410  22.325  0.00  0.00    +0.000 A 
ATOM      9  C   UNL     1       0.606   9.411  22.817  0.00  0.00    +0.000 A 
ATOM     10  C   UNL     1       1.330   8.618  21.922  0.00  0.00    +0.000 A 
ATOM     11  C   UNL     1       1.232   8.792  20.538  0.00  0.00    +0.000 A 
ATOM     12  C   UNL     1       0.423   9.821  20.033  0.00  0.00    +0.000 A 
ATOM     13  C   UNL     1      -0.323  10.604  20.945  0.00  0.00    +0.000 A 
ATOM     14  S   UNL     1      -1.440  11.883  20.637  0.00  0.00    +0.000 S 
ENDBRANCH   1  11
BRANCH   2  15
ATOM     15  C   UNL     1       2.936   5.907  18.730  0.00  0.00    +0.000 A 
ATOM     16  C   UNL     1       2.486   4.670  18.279  0.00  0.00    +0.000 A 
ATOM     17  C   UNL     1       3.253   3.982  17.355  0.00  0.00    +0.000 A 
ATOM     18  C   UNL     1       4.451   4.540  16.913  0.00  0.00    +0.000 A 
ATOM     19  C   UNL     1       5.259   3.842  16.000  0.00  0.00    +0.000 A 
ATOM     20  C   UNL     1       6.462   4.388  15.572  0.00  0.00    +0.000 A 
ATOM     21  C   UNL     1       6.853   5.634  16.047  0.00  0.00    +0.000 A 
ATOM     22  C   UNL     1       6.040   6.330  16.953  0.00  0.00    +0.000 A 
ATOM     23  C   UNL     1       4.833   5.809  17.412  0.00  0.00    +0.000 A 
ATOM     24  N   UNL     1       4.086   6.499  18.307  0.00  0.00    +0.000 NA
ENDBRANCH   2  15
TORSDOF 2
ENDMDL
MODEL 2
REMARK VINA RESULT:      -7.9      6.700      9.807
REMARK  Name = 
REMARK  3 active torsions:
REMARK  status: ('A' for Active; 'I' for Inactive)
REMARK    1  A    between atoms: C_1  and  C_2
REMARK    2  A    between atoms: C_7  and  N_8
REMARK    3  A    between atoms: C_9  and  C_11
REMARK                            x       y       z     vdW  Elec       q    Type
REMARK                         _______ _______ _______ _____ _____    ______ ____
ROOT
ATOM      1  N   UNL     1       8.459   9.328  17.695  0.00  0.00    +0.000 N 
ATOM      2  C   UNL     1       8.993  10.171  18.659  0.00  0.00    +0.000 C 
ATOM      3  O   UNL     1       9.084   9.917  19.858  0.00  0.00    +0.000 OA
ATOM      4  H   UNL     1       8.603   9.613  16.732  0.00  0.00    +0.000 HD
ENDROOT
BRANCH   1  11
ATOM      5  C   UNL     1       4.060   3.144  17.562  0.00  0.00    +0.000 C 
ATOM      6  C   UNL     1       4.972   4.311  17.705  0.00  0.00    +0.000 A 
ATOM      7  N   UNL     1       6.015   4.329  18.503  0.00  0.00    +0.000 NA
ATOM      8  C   UNL     1       6.668   5.544  18.396  0.00  0.00    +0.000 A 
ATOM      9  C   UNL     1       7.828   5.907  19.093  0.00  0.00    +0.000 A 
ATOM     10  C   UNL     1       8.405   7.161  18.868  0.00  0.00    +0.000 A 
ATOM     11  C   UNL     1       7.856   8.072  17.962  0.00  0.00    +0.000 A 
ATOM     12  C   UNL     1       6.666   7.743  17.296  0.00  0.00    +0.000 A 
ATOM     13  C   UNL     1       6.101   6.465  17.513  0.00  0.00    +0.000 A 
ATOM     14  S   UNL     1       4.700   5.748  16.804  0.00  0.00    +0.000 S 
ENDBRANCH   1  11
BRANCH   2  15
ATOM     15  C   UNL     1       9.530  11.485  18.185  0.00  0.00    +0.000 A 
ATOM     16  C   UNL     1      10.822  11.499  17.670  0.00  0.00    +0.000 A 
ATOM     17  C   UNL     1      11.366  12.709  17.276  0.00  0.00    +0.000 A 
ATOM     18  C   UNL     1      10.612  13.873  17.414  0.00  0.00    +0.000 A 
ATOM     19  C   UNL     1      11.159  15.115  17.051  0.00  0.00    +0.000 A 
ATOM     20  C   UNL     1      10.415  16.277  17.204  0.00  0.00    +0.000 A 
ATOM     21  C   UNL     1       9.123  16.199  17.711  0.00  0.00    +0.000 A 
ATOM     22  C   UNL     1       8.579  14.957  18.067  0.00  0.00    +0.000 A 
ATOM     23  C   UNL     1       9.299  13.772  17.936  0.00  0.00    +0.000 A 
ATOM     24  N   UNL     1       8.749  12.593  18.314  0.00  0.00    +0.000 NA
ENDBRANCH   2  15
TORSDOF 2
ENDMDL
MODEL 3
REMARK VINA RESULT:      -7.8      6.583      9.360
REMARK  Name = 
REMARK  3 active torsions:
REMARK  status: ('A' for Active; 'I' for Inactive)
REMARK    1  A    between atoms: C_1  and  C_2
REMARK    2  A    between atoms: C_7  and  N_8
REMARK    3  A    between atoms: C_9  and  C_11
REMARK                            x       y       z     vdW  Elec       q    Type
REMARK                         _______ _______ _______ _____ _____    ______ ____
ROOT
ATOM      1  N   UNL     1       8.184   7.656  18.389  0.00  0.00    +0.000 N 
ATOM      2  C   UNL     1       8.037   8.975  17.984  0.00  0.00    +0.000 C 
ATOM      3  O   UNL     1       7.146   9.401  17.252  0.00  0.00    +0.000 OA
ATOM      4  H   UNL     1       8.870   7.495  19.120  0.00  0.00    +0.000 HD
ENDROOT
BRANCH   1  11
ATOM      5  C   UNL     1       3.133   2.011  17.917  0.00  0.00    +0.000 C 
ATOM      6  C   UNL     1       4.171   3.077  17.890  0.00  0.00    +0.000 A 
ATOM      7  N   UNL     1       4.792   3.464  16.800  0.00  0.00    +0.000 NA
ATOM      8  C   UNL     1       5.680   4.481  17.100  0.00  0.00    +0.000 A 
ATOM      9  C   UNL     1       6.502   5.142  16.176  0.00  0.00    +0.000 A 
ATOM     10  C   UNL     1       7.335   6.178  16.611  0.00  0.00    +0.000 A 
ATOM     11  C   UNL     1       7.375   6.578  17.949  0.00  0.00    +0.000 A 
ATOM     12  C   UNL     1       6.597   5.892  18.893  0.00  0.00    +0.000 A 
ATOM     13  C   UNL     1       5.741   4.860  18.442  0.00  0.00    +0.000 A 
ATOM     14  S   UNL     1       4.629   3.887  19.334  0.00  0.00    +0.000 S 
ENDBRANCH   1  11
BRANCH   2  15
ATOM     15  C   UNL     1       9.032   9.960  18.512  0.00  0.00    +0.000 A 
ATOM     16  C   UNL     1       9.129  10.090  19.894  0.00  0.00    +0.000 A 
ATOM     17  C   UNL     1       9.999  11.034  20.411  0.00  0.00    +0.000 A 
ATOM     18  C   UNL     1      10.742  11.828  19.539  0.00  0.00    +0.000 A 
ATOM     19  C   UNL     1      11.606  12.813  20.044  0.00  0.00    +0.000 A 
ATOM     20  C   UNL     1      12.333  13.616  19.176  0.00  0.00    +0.000 A 
ATOM     21  C   UNL     1      12.205  13.430  17.805  0.00  0.00    +0.000 A 
ATOM     22  C   UNL     1      11.346  12.441  17.305  0.00  0.00    +0.000 A 
ATOM     23  C   UNL     1      10.594  11.624  18.145  0.00  0.00    +0.000 A 
ATOM     24  N   UNL     1       9.755  10.696  17.625  0.00  0.00    +0.000 NA
ENDBRANCH   2  15
TORSDOF 2
ENDMDL
MODEL 4
REMARK VINA RESULT:      -7.8      1.090      1.104
REMARK  Name = 
REMARK  3 active torsions:
REMARK  status: ('A' for Active; 'I' for Inactive)
REMARK    1  A    between atoms: C_1  and  C_2
REMARK    2  A    between atoms: C_7  and  N_8
REMARK    3  A    between atoms: C_9  and  C_11
REMARK                            x       y       z     vdW  Elec       q    Type
REMARK                         _______ _______ _______ _____ _____    ______ ____
ROOT
ATOM      1  N   UNL     1       1.741   7.797  20.157  0.00  0.00    +0.000 N 
ATOM      2  C   UNL     1       2.208   8.018  18.870  0.00  0.00    +0.000 C 
ATOM      3  O   UNL     1       2.135   9.081  18.257  0.00  0.00    +0.000 OA
ATOM      4  H   UNL     1       2.022   6.919  20.582  0.00  0.00    +0.000 HD
ENDROOT
BRANCH   1  11
ATOM      5  C   UNL     1      -2.845  13.369  22.508  0.00  0.00    +0.000 C 
ATOM      6  C   UNL     1      -1.893  12.275  22.172  0.00  0.00    +0.000 A 
ATOM      7  N   UNL     1      -1.286  11.533  23.070  0.00  0.00    +0.000 NA
ATOM      8  C   UNL     1      -0.486  10.596  22.442  0.00  0.00    +0.000 A 
ATOM      9  C   UNL     1       0.297   9.631  23.090  0.00  0.00    +0.000 A 
ATOM     10  C   UNL     1       1.039   8.721  22.331  0.00  0.00    +0.000 A 
ATOM     11  C   UNL     1       1.027   8.744  20.934  0.00  0.00    +0.000 A 
ATOM     12  C   UNL     1       0.289   9.737  20.272  0.00  0.00    +0.000 A 
ATOM     13  C   UNL     1      -0.476  10.639  21.046  0.00  0.00    +0.000 A 
ATOM     14  S   UNL     1      -1.524  11.912  20.534  0.00  0.00    +0.000 S 
ENDBRANCH   1  11
BRANCH   2  15
ATOM     15  C   UNL     1       2.886   6.870  18.189  0.00  0.00    +0.000 A 
ATOM     16  C   UNL     1       2.392   5.595  18.444  0.00  0.00    +0.000 A 
ATOM     17  C   UNL     1       3.033   4.509  17.875  0.00  0.00    +0.000 A 
ATOM     18  C   UNL     1       4.154   4.722  17.074  0.00  0.00    +0.000 A 
ATOM     19  C   UNL     1       4.838   3.631  16.513  0.00  0.00    +0.000 A 
ATOM     20  C   UNL     1       5.965   3.841  15.730  0.00  0.00    +0.000 A 
ATOM     21  C   UNL     1       6.404   5.139  15.499  0.00  0.00    +0.000 A 
ATOM     22  C   UNL     1       5.714   6.226  16.055  0.00  0.00    +0.000 A 
ATOM     23  C   UNL     1       4.587   6.053  16.853  0.00  0.00    +0.000 A 
ATOM     24  N   UNL     1       3.961   7.126  17.395  0.00  0.00    +0.000 NA
ENDBRANCH   2  15
TORSDOF 2
ENDMDL
MODEL 5
REMARK VINA RESULT:      -7.7      2.425      2.715
REMARK  Name = 
REMARK  3 active torsions:
REMARK  status: ('A' for Active; 'I' for Inactive)
REMARK    1  A    between atoms: C_1  and  C_2
REMARK    2  A    between atoms: C_7  and  N_8
REMARK    3  A    between atoms: C_9  and  C_11
REMARK                            x       y       z     vdW  Elec       q    Type
REMARK                         _______ _______ _______ _____ _____    ______ ____
ROOT
ATOM      1  N   UNL     1       1.548   9.028  17.981  0.00  0.00    +0.000 N 
ATOM      2  C   UNL     1       2.053   8.044  18.819  0.00  0.00    +0.000 C 
ATOM      3  O   UNL     1       1.925   8.012  20.041  0.00  0.00    +0.000 OA
ATOM      4  H   UNL     1       1.599   8.827  16.987  0.00  0.00    +0.000 HD
ENDROOT
BRANCH   1  11
ATOM      5  C   UNL     1      -0.291  16.156  19.829  0.00  0.00    +0.000 C 
ATOM      6  C   UNL     1      -0.046  14.720  19.526  0.00  0.00    +0.000 A 
ATOM      7  N   UNL     1      -0.982  13.799  19.542  0.00  0.00    +0.000 NA
ATOM      8  C   UNL     1      -0.443  12.573  19.199  0.00  0.00    +0.000 A 
ATOM      9  C   UNL     1      -1.155  11.369  19.103  0.00  0.00    +0.000 A 
ATOM     10  C   UNL     1      -0.490  10.203  18.714  0.00  0.00    +0.000 A 
ATOM     11  C   UNL     1       0.876  10.197  18.418  0.00  0.00    +0.000 A 
ATOM     12  C   UNL     1       1.612  11.383  18.560  0.00  0.00    +0.000 A 
ATOM     13  C   UNL     1       0.928  12.563  18.932  0.00  0.00    +0.000 A 
ATOM     14  S   UNL     1       1.531  14.169  19.124  0.00  0.00    +0.000 S 
ENDBRANCH   1  11
BRANCH   2  15
ATOM     15  C   UNL     1       2.789   6.915  18.169  0.00  0.00    +0.000 A 
ATOM     16  C   UNL     1       2.292   5.630  18.368  0.00  0.00    +0.000 A 
ATOM     17  C   UNL     1       2.983   4.561  17.827  0.00  0.00    +0.000 A 
ATOM     18  C   UNL     1       4.155   4.798  17.110  0.00  0.00    +0.000 A 
ATOM     19  C   UNL     1       4.888   3.723  16.581  0.00  0.00    +0.000 A 
ATOM     20  C   UNL     1       6.065   3.957  15.882  0.00  0.00    +0.000 A 
ATOM     21  C   UNL     1       6.504   5.263  15.703  0.00  0.00    +0.000 A 
ATOM     22  C   UNL     1       5.766   6.333  16.227  0.00  0.00    +0.000 A 
ATOM     23  C   UNL     1       4.587   6.136  16.942  0.00  0.00    +0.000 A 
ATOM     24  N   UNL     1       3.914   7.194  17.456  0.00  0.00    +0.000 NA
ENDBRANCH   2  15
TORSDOF 2
ENDMDL
MODEL 6
REMARK VINA RESULT:      -7.7      5.984      9.020
REMARK  Name = 
REMARK  3 active torsions:
REMARK  status: ('A' for Active; 'I' for Inactive)
REMARK    1  A    between atoms: C_1  and  C_2
REMARK    2  A    between atoms: C_7  and  N_8
REMARK    3  A    between atoms: C_9  and  C_11
REMARK                            x       y       z     vdW  Elec       q    Type
REMARK                         _______ _______ _______ _____ _____    ______ ____
ROOT
ATOM      1  N   UNL     1       7.201   8.154  17.357  0.00  0.00    +0.000 N 
ATOM      2  C   UNL     1       8.187   8.441  18.290  0.00  0.00    +0.000 C 
ATOM      3  O   UNL     1       8.698   7.631  19.061  0.00  0.00    +0.000 OA
ATOM      4  H   UNL     1       7.001   8.891  16.689  0.00  0.00    +0.000 HD
ENDROOT
BRANCH   1  11
ATOM      5  C   UNL     1       2.367   2.310  17.654  0.00  0.00    +0.000 C 
ATOM      6  C   UNL     1       3.405   3.371  17.542  0.00  0.00    +0.000 A 
ATOM      7  N   UNL     1       4.464   3.279  16.771  0.00  0.00    +0.000 NA
ATOM      8  C   UNL     1       5.223   4.430  16.874  0.00  0.00    +0.000 A 
ATOM      9  C   UNL     1       6.415   4.683  16.182  0.00  0.00    +0.000 A 
ATOM     10  C   UNL     1       7.069   5.907  16.356  0.00  0.00    +0.000 A 
ATOM     11  C   UNL     1       6.568   6.894  17.209  0.00  0.00    +0.000 A 
ATOM     12  C   UNL     1       5.404   6.635  17.948  0.00  0.00    +0.000 A 
ATOM     13  C   UNL     1       4.737   5.404  17.749  0.00  0.00    +0.000 A 
ATOM     14  S   UNL     1       3.270   4.823  18.449  0.00  0.00    +0.000 S 
ENDBRANCH   1  11
BRANCH   2  15
ATOM     15  C   UNL     1       8.688   9.850  18.334  0.00  0.00    +0.000 A 
ATOM     16  C   UNL     1       8.016  10.791  17.559  0.00  0.00    +0.000 A 
ATOM     17  C   UNL     1       8.491  12.091  17.535  0.00  0.00    +0.000 A 
ATOM     18  C   UNL     1       9.626  12.416  18.276  0.00  0.00    +0.000 A 
ATOM     19  C   UNL     1      10.141  13.722  18.239  0.00  0.00    +0.000 A 
ATOM     20  C   UNL     1      11.282  14.044  18.963  0.00  0.00    +0.000 A 
ATOM     21  C   UNL     1      11.901  13.065  19.731  0.00  0.00    +0.000 A 
ATOM     22  C   UNL     1      11.379  11.765  19.770  0.00  0.00    +0.000 A 
ATOM     23  C   UNL     1      10.244  11.403  19.049  0.00  0.00    +0.000 A 
ATOM     24  N   UNL     1       9.783  10.130  19.092  0.00  0.00    +0.000 NA
ENDBRANCH   2  15
TORSDOF 2
ENDMDL
MODEL 7
REMARK VINA RESULT:      -7.6      2.870      3.823
REMARK  Name = 
REMARK  3 active torsions:
REMARK  status: ('A' for Active; 'I' for Inactive)
REMARK    1  A    between atoms: C_1  and  C_2
REMARK    2  A    between atoms: C_7  and  N_8
REMARK    3  A    between atoms: C_9  and  C_11
REMARK                            x       y       z     vdW  Elec       q    Type
REMARK                         _______ _______ _______ _____ _____    ______ ____
ROOT
ATOM      1  N   UNL     1       1.573   8.929  18.240  0.00  0.00    +0.000 N 
ATOM      2  C   UNL     1       1.924   8.047  19.251  0.00  0.00    +0.000 C 
ATOM      3  O   UNL     1       1.771   8.243  20.455  0.00  0.00    +0.000 OA
ATOM      4  H   UNL     1       1.613   8.556  17.297  0.00  0.00    +0.000 HD
ENDROOT
BRANCH   1  11
ATOM      5  C   UNL     1       0.722  16.445  18.879  0.00  0.00    +0.000 C 
ATOM      6  C   UNL     1       0.765  14.959  18.808  0.00  0.00    +0.000 A 
ATOM      7  N   UNL     1      -0.298  14.192  18.882  0.00  0.00    +0.000 NA
ATOM      8  C   UNL     1       0.070  12.864  18.765  0.00  0.00    +0.000 A 
ATOM      9  C   UNL     1      -0.809  11.772  18.787  0.00  0.00    +0.000 A 
ATOM     10  C   UNL     1      -0.305  10.478  18.627  0.00  0.00    +0.000 A 
ATOM     11  C   UNL     1       1.060  10.235  18.447  0.00  0.00    +0.000 A 
ATOM     12  C   UNL     1       1.956  11.314  18.475  0.00  0.00    +0.000 A 
ATOM     13  C   UNL     1       1.437  12.621  18.614  0.00  0.00    +0.000 A 
ATOM     14  S   UNL     1       2.262  14.137  18.620  0.00  0.00    +0.000 S 
ENDBRANCH   1  11
BRANCH   2  15
ATOM     15  C   UNL     1       2.509   6.735  18.831  0.00  0.00    +0.000 A 
ATOM     16  C   UNL     1       3.515   6.763  17.870  0.00  0.00    +0.000 A 
ATOM     17  C   UNL     1       4.036   5.563  17.420  0.00  0.00    +0.000 A 
ATOM     18  C   UNL     1       3.535   4.367  17.932  0.00  0.00    +0.000 A 
ATOM     19  C   UNL     1       4.028   3.138  17.464  0.00  0.00    +0.000 A 
ATOM     20  C   UNL     1       3.517   1.946  17.960  0.00  0.00    +0.000 A 
ATOM     21  C   UNL     1       2.522   1.981  18.930  0.00  0.00    +0.000 A 
ATOM     22  C   UNL     1       2.038   3.210  19.399  0.00  0.00    +0.000 A 
ATOM     23  C   UNL     1       2.518   4.425  18.917  0.00  0.00    +0.000 A 
ATOM     24  N   UNL     1       2.008   5.593  19.376  0.00  0.00    +0.000 NA
ENDBRANCH   2  15
TORSDOF 2
ENDMDL
MODEL 8
REMARK VINA RESULT:      -7.6      2.542      8.874
REMARK  Name = 
REMARK  3 active torsions:
REMARK  status: ('A' for Active; 'I' for Inactive)
REMARK    1  A    between atoms: C_1  and  C_2
REMARK    2  A    between atoms: C_7  and  N_8
REMARK    3  A    between atoms: C_9  and  C_11
REMARK                            x       y       z     vdW  Elec       q    Type
REMARK                         _______ _______ _______ _____ _____    ______ ____
ROOT
ATOM      1  N   UNL     1       2.064   7.364  20.146  0.00  0.00    +0.000 N 
ATOM      2  C   UNL     1       1.512   8.544  19.668  0.00  0.00    +0.000 C 
ATOM      3  O   UNL     1       1.605   8.959  18.515  0.00  0.00    +0.000 OA
ATOM      4  H   UNL     1       1.762   7.082  21.074  0.00  0.00    +0.000 HD
ENDROOT
BRANCH   1  11
ATOM      5  C   UNL     1       6.818   4.389  15.032  0.00  0.00    +0.000 C 
ATOM      6  C   UNL     1       5.864   4.846  16.078  0.00  0.00    +0.000 A 
ATOM      7  N   UNL     1       5.512   4.120  17.114  0.00  0.00    +0.000 NA
ATOM      8  C   UNL     1       4.631   4.830  17.909  0.00  0.00    +0.000 A 
ATOM      9  C   UNL     1       4.060   4.368  19.104  0.00  0.00    +0.000 A 
ATOM     10  C   UNL     1       3.205   5.203  19.828  0.00  0.00    +0.000 A 
ATOM     11  C   UNL     1       2.895   6.496  19.395  0.00  0.00    +0.000 A 
ATOM     12  C   UNL     1       3.417   6.952  18.175  0.00  0.00    +0.000 A 
ATOM     13  C   UNL     1       4.299   6.110  17.460  0.00  0.00    +0.000 A 
ATOM     14  S   UNL     1       5.145   6.403  15.984  0.00  0.00    +0.000 S 
ENDBRANCH   1  11
BRANCH   2  15
ATOM     15  C   UNL     1       0.712   9.358  20.636  0.00  0.00    +0.000 A 
ATOM     16  C   UNL     1       0.737   8.968  21.971  0.00  0.00    +0.000 A 
ATOM     17  C   UNL     1      -0.038   9.667  22.880  0.00  0.00    +0.000 A 
ATOM     18  C   UNL     1      -0.822  10.729  22.434  0.00  0.00    +0.000 A 
ATOM     19  C   UNL     1      -1.640  11.429  23.336  0.00  0.00    +0.000 A 
ATOM     20  C   UNL     1      -2.436  12.476  22.889  0.00  0.00    +0.000 A 
ATOM     21  C   UNL     1      -2.407  12.830  21.545  0.00  0.00    +0.000 A 
ATOM     22  C   UNL     1      -1.584  12.132  20.650  0.00  0.00    +0.000 A 
ATOM     23  C   UNL     1      -0.782  11.071  21.060  0.00  0.00    +0.000 A 
ATOM     24  N   UNL     1      -0.019  10.403  20.161  0.00  0.00    +0.000 NA
ENDBRANCH   2  15
TORSDOF 2
ENDMDL
MODEL 9
REMARK VINA RESULT:      -7.6      3.053      4.113
REMARK  Name = 
REMARK  3 active torsions:
REMARK  status: ('A' for Active; 'I' for Inactive)
REMARK    1  A    between atoms: C_1  and  C_2
REMARK    2  A    between atoms: C_7  and  N_8
REMARK    3  A    between atoms: C_9  and  C_11
REMARK                            x       y       z     vdW  Elec       q    Type
REMARK                         _______ _______ _______ _____ _____    ______ ____
ROOT
ATOM      1  N   UNL     1       1.400   9.005  19.318  0.00  0.00    +0.000 N 
ATOM      2  C   UNL     1       2.141   8.347  18.347  0.00  0.00    +0.000 C 
ATOM      3  O   UNL     1       2.440   8.804  17.246  0.00  0.00    +0.000 OA
ATOM      4  H   UNL     1       1.378   8.560  20.231  0.00  0.00    +0.000 HD
ENDROOT
BRANCH   1  11
ATOM      5  C   UNL     1       0.081  16.457  18.738  0.00  0.00    +0.000 C 
ATOM      6  C   UNL     1       0.205  14.978  18.852  0.00  0.00    +0.000 A 
ATOM      7  N   UNL     1      -0.763  14.139  18.565  0.00  0.00    +0.000 NA
ATOM      8  C   UNL     1      -0.331  12.839  18.753  0.00  0.00    +0.000 A 
ATOM      9  C   UNL     1      -1.097  11.687  18.531  0.00  0.00    +0.000 A 
ATOM     10  C   UNL     1      -0.525  10.427  18.732  0.00  0.00    +0.000 A 
ATOM     11  C   UNL     1       0.799  10.279  19.154  0.00  0.00    +0.000 A 
ATOM     12  C   UNL     1       1.562  11.423  19.431  0.00  0.00    +0.000 A 
ATOM     13  C   UNL     1       0.983  12.693  19.203  0.00  0.00    +0.000 A 
ATOM     14  S   UNL     1       1.674  14.265  19.384  0.00  0.00    +0.000 S 
ENDBRANCH   1  11
BRANCH   2  15
ATOM     15  C   UNL     1       2.641   6.979  18.689  0.00  0.00    +0.000 A 
ATOM     16  C   UNL     1       3.563   6.400  17.823  0.00  0.00    +0.000 A 
ATOM     17  C   UNL     1       4.000   5.113  18.082  0.00  0.00    +0.000 A 
ATOM     18  C   UNL     1       3.501   4.434  19.193  0.00  0.00    +0.000 A 
ATOM     19  C   UNL     1       3.908   3.116  19.454  0.00  0.00    +0.000 A 
ATOM     20  C   UNL     1       3.397   2.431  20.550  0.00  0.00    +0.000 A 
ATOM     21  C   UNL     1       2.489   3.067  21.388  0.00  0.00    +0.000 A 
ATOM     22  C   UNL     1       2.091   4.385  21.127  0.00  0.00    +0.000 A 
ATOM     23  C   UNL     1       2.573   5.098  20.033  0.00  0.00    +0.000 A 
ATOM     24  N   UNL     1       2.146   6.362  19.797  0.00  0.00    +0.000 NA
ENDBRANCH   2  15
TORSDOF 2
ENDMDL
