MODEL 1
REMARK VINA RESULT:      -8.2      0.000      0.000
REMARK  Name = 
REMARK  5 active torsions:
REMARK  status: ('A' for Active; 'I' for Inactive)
REMARK    1  A    between atoms: C_1  and  C_2
REMARK    2  A    between atoms: C_4  and  N_5
REMARK    3  A    between atoms: N_5  and  C_6
REMARK    4  A    between atoms: C_6  and  C_7
REMARK    5  A    between atoms: C_15  and  C_16
REMARK                            x       y       z     vdW  Elec       q    Type
REMARK                         _______ _______ _______ _____ _____    ______ ____
ROOT
ATOM      1  C   UNL     1       7.832   6.953  18.264  0.00  0.00    +0.000 C 
ATOM      2  C   UNL     1       7.187   5.984  17.305  0.00  0.00    +0.000 A 
ATOM      3  C   UNL     1       6.200   5.020  17.876  0.00  0.00    +0.000 A 
ATOM      4  C   UNL     1       5.653   4.131  17.033  0.00  0.00    +0.000 A 
ATOM      5  N   UNL     1       6.034   4.177  15.661  0.00  0.00    +0.000 N 
ATOM      6  N   UNL     1       5.604   3.393  14.624  0.00  0.00    +0.000 NA
ATOM      7  C   UNL     1       6.247   3.868  13.547  0.00  0.00    +0.000 A 
ATOM      8  C   UNL     1       6.041   3.291  12.194  0.00  0.00    +0.000 C 
ATOM      9  C   UNL     1       7.102   4.939  13.867  0.00  0.00    +0.000 A 
ATOM     10  C   UNL     1       6.956   5.136  15.218  0.00  0.00    +0.000 A 
ATOM     11  N   UNL     1       7.540   6.041  16.055  0.00  0.00    +0.000 NA
ENDROOT
BRANCH   4  12
ATOM     12  N   UNL     1       4.761   3.145  17.503  0.00  0.00    +0.000 N 
ATOM     13  H   UNL     1       4.925   2.289  16.963  0.00  0.00    +0.000 HD
BRANCH  12  14
ATOM     14  C   UNL     1       3.308   3.382  17.467  0.00  0.00    +0.000 C 
BRANCH  14  15
ATOM     15  C   UNL     1       2.703   3.384  18.861  0.00  0.00    +0.000 A 
ATOM     16  C   UNL     1       1.496   4.042  19.101  0.00  0.00    +0.000 A 
ATOM     17  C   UNL     1       0.929   3.979  20.372  0.00  0.00    +0.000 A 
ATOM     18  C   UNL     1       1.582   3.279  21.377  0.00  0.00    +0.000 A 
ATOM     19  C   UNL     1       2.786   2.670  21.067  0.00  0.00    +0.000 A 
ATOM     20  N   UNL     1       3.355   2.700  19.840  0.00  0.00    +0.000 NA
ENDBRANCH  14  15
ENDBRANCH  12  14
ENDBRANCH   4  12
TORSDOF 3
ENDMDL
MODEL 2
REMARK VINA RESULT:      -7.9      0.668      1.113
REMARK  Name = 
REMARK  5 active torsions:
REMARK  status: ('A' for Active; 'I' for Inactive)
REMARK    1  A    between atoms: C_1  and  C_2
REMARK    2  A    between atoms: C_4  and  N_5
REMARK    3  A    between atoms: N_5  and  C_6
REMARK    4  A    between atoms: C_6  and  C_7
REMARK    5  A    between atoms: C_15  and  C_16
REMARK                            x       y       z     vdW  Elec       q    Type
REMARK                         _______ _______ _______ _____ _____    ______ ____
ROOT
ATOM      1  C   UNL     1       7.871   7.281  18.203  0.00  0.00    +0.000 C 
ATOM      2  C   UNL     1       7.228   6.247  17.312  0.00  0.00    +0.000 A 
ATOM      3  C   UNL     1       6.272   5.299  17.955  0.00  0.00    +0.000 A 
ATOM      4  C   UNL     1       5.727   4.353  17.174  0.00  0.00    +0.000 A 
ATOM      5  N   UNL     1       6.082   4.330  15.795  0.00  0.00    +0.000 N 
ATOM      6  N   UNL     1       5.648   3.480  14.812  0.00  0.00    +0.000 NA
ATOM      7  C   UNL     1       6.263   3.906  13.697  0.00  0.00    +0.000 A 
ATOM      8  C   UNL     1       6.043   3.251  12.383  0.00  0.00    +0.000 C 
ATOM      9  C   UNL     1       7.102   5.010  13.941  0.00  0.00    +0.000 A 
ATOM     10  C   UNL     1       6.976   5.279  15.281  0.00  0.00    +0.000 A 
ATOM     11  N   UNL     1       7.557   6.241  16.055  0.00  0.00    +0.000 NA
ENDROOT
BRANCH   4  12
ATOM     12  N   UNL     1       4.863   3.378  17.716  0.00  0.00    +0.000 N 
ATOM     13  H   UNL     1       5.088   2.480  17.276  0.00  0.00    +0.000 HD
BRANCH  12  14
ATOM     14  C   UNL     1       3.404   3.538  17.604  0.00  0.00    +0.000 C 
BRANCH  14  15
ATOM     15  C   UNL     1       2.711   3.336  18.942  0.00  0.00    +0.000 A 
ATOM     16  C   UNL     1       3.421   2.823  20.029  0.00  0.00    +0.000 A 
ATOM     17  C   UNL     1       2.783   2.703  21.261  0.00  0.00    +0.000 A 
ATOM     18  C   UNL     1       1.452   3.081  21.380  0.00  0.00    +0.000 A 
ATOM     19  C   UNL     1       0.810   3.562  20.252  0.00  0.00    +0.000 A 
ATOM     20  N   UNL     1       1.405   3.703  19.046  0.00  0.00    +0.000 NA
ENDBRANCH  14  15
ENDBRANCH  12  14
ENDBRANCH   4  12
TORSDOF 3
ENDMDL
MODEL 3
REMARK VINA RESULT:      -7.7      1.140      1.487
REMARK  Name = 
REMARK  5 active torsions:
REMARK  status: ('A' for Active; 'I' for Inactive)
REMARK    1  A    between atoms: C_1  and  C_2
REMARK    2  A    between atoms: C_4  and  N_5
REMARK    3  A    between atoms: N_5  and  C_6
REMARK    4  A    between atoms: C_6  and  C_7
REMARK    5  A    between atoms: C_15  and  C_16
REMARK                            x       y       z     vdW  Elec       q    Type
REMARK                         _______ _______ _______ _____ _____    ______ ____
ROOT
ATOM      1  C   UNL     1       8.200   7.766  18.366  0.00  0.00    +0.000 C 
ATOM      2  C   UNL     1       7.520   6.626  17.650  0.00  0.00    +0.000 A 
ATOM      3  C   UNL     1       6.823   5.613  18.497  0.00  0.00    +0.000 A 
ATOM      4  C   UNL     1       6.250   4.577  17.867  0.00  0.00    +0.000 A 
ATOM      5  N   UNL     1       6.329   4.522  16.445  0.00  0.00    +0.000 N 
ATOM      6  N   UNL     1       5.814   3.582  15.593  0.00  0.00    +0.000 NA
ATOM      7  C   UNL     1       6.146   4.016  14.367  0.00  0.00    +0.000 A 
ATOM      8  C   UNL     1       5.752   3.275  13.142  0.00  0.00    +0.000 C 
ATOM      9  C   UNL     1       6.883   5.214  14.407  0.00  0.00    +0.000 A 
ATOM     10  C   UNL     1       6.991   5.535  15.737  0.00  0.00    +0.000 A 
ATOM     11  N   UNL     1       7.596   6.592  16.353  0.00  0.00    +0.000 NA
ENDROOT
BRANCH   4  12
ATOM     12  N   UNL     1       5.627   3.542  18.597  0.00  0.00    +0.000 N 
ATOM     13  H   UNL     1       5.073   2.983  17.940  0.00  0.00    +0.000 HD
BRANCH  12  14
ATOM     14  C   UNL     1       4.732   3.865  19.720  0.00  0.00    +0.000 C 
BRANCH  14  15
ATOM     15  C   UNL     1       3.318   3.361  19.477  0.00  0.00    +0.000 A 
ATOM     16  C   UNL     1       2.327   3.562  20.438  0.00  0.00    +0.000 A 
ATOM     17  C   UNL     1       1.025   3.146  20.169  0.00  0.00    +0.000 A 
ATOM     18  C   UNL     1       0.743   2.527  18.958  0.00  0.00    +0.000 A 
ATOM     19  C   UNL     1       1.784   2.345  18.064  0.00  0.00    +0.000 A 
ATOM     20  N   UNL     1       3.055   2.750  18.290  0.00  0.00    +0.000 NA
ENDBRANCH  14  15
ENDBRANCH  12  14
ENDBRANCH   4  12
TORSDOF 3
ENDMDL
MODEL 4
REMARK VINA RESULT:      -7.7      1.249      1.295
REMARK  Name = 
REMARK  5 active torsions:
REMARK  status: ('A' for Active; 'I' for Inactive)
REMARK    1  A    between atoms: C_1  and  C_2
REMARK    2  A    between atoms: C_4  and  N_5
REMARK    3  A    between atoms: N_5  and  C_6
REMARK    4  A    between atoms: C_6  and  C_7
REMARK    5  A    between atoms: C_15  and  C_16
REMARK                            x       y       z     vdW  Elec       q    Type
REMARK                         _______ _______ _______ _____ _____    ______ ____
ROOT
ATOM      1  C   UNL     1       7.992   7.480  18.152  0.00  0.00    +0.000 C 
ATOM      2  C   UNL     1       7.144   6.622  17.246  0.00  0.00    +0.000 A 
ATOM      3  C   UNL     1       5.754   6.325  17.700  0.00  0.00    +0.000 A 
ATOM      4  C   UNL     1       5.009   5.530  16.915  0.00  0.00    +0.000 A 
ATOM      5  N   UNL     1       5.585   5.042  15.707  0.00  0.00    +0.000 N 
ATOM      6  N   UNL     1       5.021   4.240  14.751  0.00  0.00    +0.000 NA
ATOM      7  C   UNL     1       5.973   4.105  13.814  0.00  0.00    +0.000 A 
ATOM      8  C   UNL     1       5.749   3.309  12.581  0.00  0.00    +0.000 C 
ATOM      9  C   UNL     1       7.153   4.794  14.152  0.00  0.00    +0.000 A 
ATOM     10  C   UNL     1       6.896   5.396  15.358  0.00  0.00    +0.000 A 
ATOM     11  N   UNL     1       7.680   6.189  16.144  0.00  0.00    +0.000 NA
ENDROOT
BRANCH   4  12
ATOM     12  N   UNL     1       3.707   5.148  17.302  0.00  0.00    +0.000 N 
ATOM     13  H   UNL     1       3.082   5.311  16.506  0.00  0.00    +0.000 HD
BRANCH  12  14
ATOM     14  C   UNL     1       3.066   5.781  18.466  0.00  0.00    +0.000 C 
BRANCH  14  15
ATOM     15  C   UNL     1       2.355   4.760  19.341  0.00  0.00    +0.000 A 
ATOM     16  C   UNL     1       1.461   3.851  18.773  0.00  0.00    +0.000 A 
ATOM     17  C   UNL     1       0.867   2.886  19.584  0.00  0.00    +0.000 A 
ATOM     18  C   UNL     1       1.163   2.858  20.940  0.00  0.00    +0.000 A 
ATOM     19  C   UNL     1       2.043   3.806  21.433  0.00  0.00    +0.000 A 
ATOM     20  N   UNL     1       2.647   4.746  20.670  0.00  0.00    +0.000 NA
ENDBRANCH  14  15
ENDBRANCH  12  14
ENDBRANCH   4  12
TORSDOF 3
ENDMDL
MODEL 5
REMARK VINA RESULT:      -7.6      1.233      1.358
REMARK  Name = 
REMARK  5 active torsions:
REMARK  status: ('A' for Active; 'I' for Inactive)
REMARK    1  A    between atoms: C_1  and  C_2
REMARK    2  A    between atoms: C_4  and  N_5
REMARK    3  A    between atoms: N_5  and  C_6
REMARK    4  A    between atoms: C_6  and  C_7
REMARK    5  A    between atoms: C_15  and  C_16
REMARK                            x       y       z     vdW  Elec       q    Type
REMARK                         _______ _______ _______ _____ _____    ______ ____
ROOT
ATOM      1  C   UNL     1       7.813   7.236  18.207  0.00  0.00    +0.000 C 
ATOM      2  C   UNL     1       6.996   6.416  17.239  0.00  0.00    +0.000 A 
ATOM      3  C   UNL     1       5.581   6.130  17.620  0.00  0.00    +0.000 A 
ATOM      4  C   UNL     1       4.863   5.369  16.780  0.00  0.00    +0.000 A 
ATOM      5  N   UNL     1       5.487   4.905  15.587  0.00  0.00    +0.000 N 
ATOM      6  N   UNL     1       4.957   4.137  14.584  0.00  0.00    +0.000 NA
ATOM      7  C   UNL     1       5.949   4.013  13.689  0.00  0.00    +0.000 A 
ATOM      8  C   UNL     1       5.772   3.254  12.425  0.00  0.00    +0.000 C 
ATOM      9  C   UNL     1       7.122   4.672  14.100  0.00  0.00    +0.000 A 
ATOM     10  C   UNL     1       6.818   5.246  15.309  0.00  0.00    +0.000 A 
ATOM     11  N   UNL     1       7.577   6.004  16.152  0.00  0.00    +0.000 NA
ENDROOT
BRANCH   4  12
ATOM     12  N   UNL     1       3.538   4.999  17.095  0.00  0.00    +0.000 N 
ATOM     13  H   UNL     1       2.953   5.198  16.278  0.00  0.00    +0.000 HD
BRANCH  12  14
ATOM     14  C   UNL     1       2.855   5.605  18.249  0.00  0.00    +0.000 C 
BRANCH  14  15
ATOM     15  C   UNL     1       2.346   4.551  19.220  0.00  0.00    +0.000 A 
ATOM     16  C   UNL     1       2.520   4.721  20.594  0.00  0.00    +0.000 A 
ATOM     17  C   UNL     1       1.992   3.773  21.468  0.00  0.00    +0.000 A 
ATOM     18  C   UNL     1       1.320   2.672  20.955  0.00  0.00    +0.000 A 
ATOM     19  C   UNL     1       1.206   2.563  19.580  0.00  0.00    +0.000 A 
ATOM     20  N   UNL     1       1.694   3.473  18.706  0.00  0.00    +0.000 NA
ENDBRANCH  14  15
ENDBRANCH  12  14
ENDBRANCH   4  12
TORSDOF 3
ENDMDL
MODEL 6
REMARK VINA RESULT:      -7.6      0.956      1.082
REMARK  Name = 
REMARK  5 active torsions:
REMARK  status: ('A' for Active; 'I' for Inactive)
REMARK    1  A    between atoms: C_1  and  C_2
REMARK    2  A    between atoms: C_4  and  N_5
REMARK    3  A    between atoms: N_5  and  C_6
REMARK    4  A    between atoms: C_6  and  C_7
REMARK    5  A    between atoms: C_15  and  C_16
REMARK                            x       y       z     vdW  Elec       q    Type
REMARK                         _______ _______ _______ _____ _____    ______ ____
ROOT
ATOM      1  C   UNL     1       8.043   6.580  18.629  0.00  0.00    +0.000 C 
ATOM      2  C   UNL     1       7.324   5.719  17.621  0.00  0.00    +0.000 A 
ATOM      3  C   UNL     1       6.277   4.792  18.145  0.00  0.00    +0.000 A 
ATOM      4  C   UNL     1       5.662   3.997  17.257  0.00  0.00    +0.000 A 
ATOM      5  N   UNL     1       6.032   4.101  15.885  0.00  0.00    +0.000 N 
ATOM      6  N   UNL     1       5.539   3.414  14.808  0.00  0.00    +0.000 NA
ATOM      7  C   UNL     1       6.205   3.909  13.754  0.00  0.00    +0.000 A 
ATOM      8  C   UNL     1       5.946   3.432  12.371  0.00  0.00    +0.000 C 
ATOM      9  C   UNL     1       7.135   4.897  14.127  0.00  0.00    +0.000 A 
ATOM     10  C   UNL     1       7.015   5.019  15.489  0.00  0.00    +0.000 A 
ATOM     11  N   UNL     1       7.668   5.829  16.372  0.00  0.00    +0.000 NA
ENDROOT
BRANCH   4  12
ATOM     12  N   UNL     1       4.707   3.047  17.678  0.00  0.00    +0.000 N 
ATOM     13  H   UNL     1       3.796   3.327  17.298  0.00  0.00    +0.000 HD
BRANCH  12  14
ATOM     14  C   UNL     1       4.495   2.796  19.113  0.00  0.00    +0.000 C 
BRANCH  14  15
ATOM     15  C   UNL     1       3.137   3.296  19.578  0.00  0.00    +0.000 A 
ATOM     16  C   UNL     1       1.999   2.512  19.389  0.00  0.00    +0.000 A 
ATOM     17  C   UNL     1       0.774   2.964  19.878  0.00  0.00    +0.000 A 
ATOM     18  C   UNL     1       0.709   4.189  20.527  0.00  0.00    +0.000 A 
ATOM     19  C   UNL     1       1.878   4.919  20.657  0.00  0.00    +0.000 A 
ATOM     20  N   UNL     1       3.084   4.502  20.207  0.00  0.00    +0.000 NA
ENDBRANCH  14  15
ENDBRANCH  12  14
ENDBRANCH   4  12
TORSDOF 3
ENDMDL
MODEL 7
REMARK VINA RESULT:      -7.6      0.919      1.067
REMARK  Name = 
REMARK  5 active torsions:
REMARK  status: ('A' for Active; 'I' for Inactive)
REMARK    1  A    between atoms: C_1  and  C_2
REMARK    2  A    between atoms: C_4  and  N_5
REMARK    3  A    between atoms: N_5  and  C_6
REMARK    4  A    between atoms: C_6  and  C_7
REMARK    5  A    between atoms: C_15  and  C_16
REMARK                            x       y       z     vdW  Elec       q    Type
REMARK                         _______ _______ _______ _____ _____    ______ ____
ROOT
ATOM      1  C   UNL     1       7.935   7.051  18.273  0.00  0.00    +0.000 C 
ATOM      2  C   UNL     1       7.260   6.071  17.346  0.00  0.00    +0.000 A 
ATOM      3  C   UNL     1       6.277   5.128  17.957  0.00  0.00    +0.000 A 
ATOM      4  C   UNL     1       5.703   4.229  17.143  0.00  0.00    +0.000 A 
ATOM      5  N   UNL     1       6.054   4.246  15.762  0.00  0.00    +0.000 N 
ATOM      6  N   UNL     1       5.593   3.447  14.750  0.00  0.00    +0.000 NA
ATOM      7  C   UNL     1       6.218   3.896  13.650  0.00  0.00    +0.000 A 
ATOM      8  C   UNL     1       5.976   3.296  12.313  0.00  0.00    +0.000 C 
ATOM      9  C   UNL     1       7.090   4.964  13.932  0.00  0.00    +0.000 A 
ATOM     10  C   UNL     1       6.975   5.187  15.281  0.00  0.00    +0.000 A 
ATOM     11  N   UNL     1       7.586   6.102  16.088  0.00  0.00    +0.000 NA
ENDROOT
BRANCH   4  12
ATOM     12  N   UNL     1       4.812   3.261  17.651  0.00  0.00    +0.000 N 
ATOM     13  H   UNL     1       5.025   2.367  17.196  0.00  0.00    +0.000 HD
BRANCH  12  14
ATOM     14  C   UNL     1       3.358   3.452  17.521  0.00  0.00    +0.000 C 
BRANCH  14  15
ATOM     15  C   UNL     1       2.777   4.188  18.718  0.00  0.00    +0.000 A 
ATOM     16  C   UNL     1       2.700   5.582  18.714  0.00  0.00    +0.000 A 
ATOM     17  C   UNL     1       2.109   6.231  19.796  0.00  0.00    +0.000 A 
ATOM     18  C   UNL     1       1.625   5.483  20.861  0.00  0.00    +0.000 A 
ATOM     19  C   UNL     1       1.758   4.107  20.800  0.00  0.00    +0.000 A 
ATOM     20  N   UNL     1       2.313   3.445  19.759  0.00  0.00    +0.000 NA
ENDBRANCH  14  15
ENDBRANCH  12  14
ENDBRANCH   4  12
TORSDOF 3
ENDMDL
MODEL 8
REMARK VINA RESULT:      -7.5      1.075      1.438
REMARK  Name = 
REMARK  5 active torsions:
REMARK  status: ('A' for Active; 'I' for Inactive)
REMARK    1  A    between atoms: C_1  and  C_2
REMARK    2  A    between atoms: C_4  and  N_5
REMARK    3  A    between atoms: N_5  and  C_6
REMARK    4  A    between atoms: C_6  and  C_7
REMARK    5  A    between atoms: C_15  and  C_16
REMARK                            x       y       z     vdW  Elec       q    Type
REMARK                         _______ _______ _______ _____ _____    ______ ____
ROOT
ATOM      1  C   UNL     1       8.182   7.677  18.425  0.00  0.00    +0.000 C 
ATOM      2  C   UNL     1       7.494   6.566  17.673  0.00  0.00    +0.000 A 
ATOM      3  C   UNL     1       6.781   5.537  18.487  0.00  0.00    +0.000 A 
ATOM      4  C   UNL     1       6.199   4.526  17.823  0.00  0.00    +0.000 A 
ATOM      5  N   UNL     1       6.286   4.511  16.402  0.00  0.00    +0.000 N 
ATOM      6  N   UNL     1       5.765   3.602  15.519  0.00  0.00    +0.000 NA
ATOM      7  C   UNL     1       6.109   4.067  14.308  0.00  0.00    +0.000 A 
ATOM      8  C   UNL     1       5.714   3.367  13.060  0.00  0.00    +0.000 C 
ATOM      9  C   UNL     1       6.859   5.255  14.387  0.00  0.00    +0.000 A 
ATOM     10  C   UNL     1       6.963   5.537  15.727  0.00  0.00    +0.000 A 
ATOM     11  N   UNL     1       7.577   6.568  16.376  0.00  0.00    +0.000 NA
ENDROOT
BRANCH   4  12
ATOM     12  N   UNL     1       5.560   3.478  18.520  0.00  0.00    +0.000 N 
ATOM     13  H   UNL     1       4.881   3.047  17.885  0.00  0.00    +0.000 HD
BRANCH  12  14
ATOM     14  C   UNL     1       4.837   3.755  19.772  0.00  0.00    +0.000 C 
BRANCH  14  15
ATOM     15  C   UNL     1       3.338   3.551  19.613  0.00  0.00    +0.000 A 
ATOM     16  C   UNL     1       2.833   2.918  18.476  0.00  0.00    +0.000 A 
ATOM     17  C   UNL     1       1.463   2.688  18.379  0.00  0.00    +0.000 A 
ATOM     18  C   UNL     1       0.627   3.106  19.406  0.00  0.00    +0.000 A 
ATOM     19  C   UNL     1       1.200   3.745  20.492  0.00  0.00    +0.000 A 
ATOM     20  N   UNL     1       2.527   3.970  20.622  0.00  0.00    +0.000 NA
ENDBRANCH  14  15
ENDBRANCH  12  14
ENDBRANCH   4  12
TORSDOF 3
ENDMDL
MODEL 9
REMARK VINA RESULT:      -7.3      1.339      1.630
REMARK  Name = 
REMARK  5 active torsions:
REMARK  status: ('A' for Active; 'I' for Inactive)
REMARK    1  A    between atoms: C_1  and  C_2
REMARK    2  A    between atoms: C_4  and  N_5
REMARK    3  A    between atoms: N_5  and  C_6
REMARK    4  A    between atoms: C_6  and  C_7
REMARK    5  A    between atoms: C_15  and  C_16
REMARK                            x       y       z     vdW  Elec       q    Type
REMARK                         _______ _______ _______ _____ _____    ______ ____
ROOT
ATOM      1  C   UNL     1       8.146   7.626  18.346  0.00  0.00    +0.000 C 
ATOM      2  C   UNL     1       7.484   6.515  17.571  0.00  0.00    +0.000 A 
ATOM      3  C   UNL     1       6.706   5.512  18.357  0.00  0.00    +0.000 A 
ATOM      4  C   UNL     1       6.147   4.500  17.675  0.00  0.00    +0.000 A 
ATOM      5  N   UNL     1       6.317   4.461  16.262  0.00  0.00    +0.000 N 
ATOM      6  N   UNL     1       5.833   3.547  15.364  0.00  0.00    +0.000 NA
ATOM      7  C   UNL     1       6.256   3.986  14.168  0.00  0.00    +0.000 A 
ATOM      8  C   UNL     1       5.922   3.273  12.910  0.00  0.00    +0.000 C 
ATOM      9  C   UNL     1       7.021   5.163  14.274  0.00  0.00    +0.000 A 
ATOM     10  C   UNL     1       7.051   5.464  15.613  0.00  0.00    +0.000 A 
ATOM     11  N   UNL     1       7.643   6.495  16.282  0.00  0.00    +0.000 NA
ENDROOT
BRANCH   4  12
ATOM     12  N   UNL     1       5.449   3.474  18.348  0.00  0.00    +0.000 N 
ATOM     13  H   UNL     1       5.883   2.581  18.096  0.00  0.00    +0.000 HD
BRANCH  12  14
ATOM     14  C   UNL     1       4.002   3.304  18.140  0.00  0.00    +0.000 C 
BRANCH  14  15
ATOM     15  C   UNL     1       3.193   4.279  18.979  0.00  0.00    +0.000 A 
ATOM     16  C   UNL     1       2.776   3.922  20.263  0.00  0.00    +0.000 A 
ATOM     17  C   UNL     1       2.088   4.854  21.037  0.00  0.00    +0.000 A 
ATOM     18  C   UNL     1       1.817   6.111  20.512  0.00  0.00    +0.000 A 
ATOM     19  C   UNL     1       2.245   6.383  19.224  0.00  0.00    +0.000 A 
ATOM     20  N   UNL     1       2.927   5.506  18.452  0.00  0.00    +0.000 NA
ENDBRANCH  14  15
ENDBRANCH  12  14
ENDBRANCH   4  12
TORSDOF 3
ENDMDL
