MODEL 1
REMARK VINA RESULT:      -8.9      0.000      0.000
REMARK  Name = 
REMARK  6 active torsions:
REMARK  status: ('A' for Active; 'I' for Inactive)
REMARK    1  A    between atoms: C_1  and  C_2
REMARK    2  A    between atoms: C_5  and  C_6
REMARK    3  A    between atoms: C_9  and  C_10
REMARK    4  A    between atoms: C_12  and  N_13
REMARK    5  A    between atoms: C_22  and  N_23
REMARK    6  A    between atoms: C_24  and  C_26
REMARK                            x       y       z     vdW  Elec       q    Type
REMARK                         _______ _______ _______ _____ _____    ______ ____
ROOT
ATOM      1  C   UNL     1      -1.179  12.095  23.038  0.00  0.00    +0.000 C 
ATOM      2  C   UNL     1      -0.466  11.179  22.086  0.00  0.00    +0.000 A 
ATOM      3  C   UNL     1      -0.469   9.807  22.434  0.00  0.00    +0.000 A 
ATOM      4  C   UNL     1       0.190   8.857  21.661  0.00  0.00    +0.000 A 
ATOM      5  C   UNL     1       0.866   9.238  20.504  0.00  0.00    +0.000 A 
ATOM      6  C   UNL     1       0.838  10.598  20.130  0.00  0.00    +0.000 A 
ATOM      7  C   UNL     1       0.173  11.590  20.892  0.00  0.00    +0.000 A 
ENDROOT
BRANCH   5   8
ATOM      8  C   UNL     1       1.587   8.217  19.731  0.00  0.00    +0.000 A 
ATOM      9  N   UNL     1       2.254   8.446  18.590  0.00  0.00    +0.000 NA
ATOM     10  O   UNL     1       2.774   7.197  18.245  0.00  0.00    +0.000 OA
ATOM     11  C   UNL     1       2.392   6.320  19.222  0.00  0.00    +0.000 A 
ATOM     12  N   UNL     1       1.664   6.898  20.155  0.00  0.00    +0.000 NA
BRANCH  11  13
ATOM     13  C   UNL     1       2.906   4.886  19.331  0.00  0.00    +0.000 C 
ATOM     14  C   UNL     1       3.075   4.104  18.016  0.00  0.00    +0.000 C 
ATOM     15  C   UNL     1       4.616   4.189  18.153  0.00  0.00    +0.000 C 
ATOM     16  C   UNL     1       4.395   4.665  19.624  0.00  0.00    +0.000 C 
BRANCH  15  17
ATOM     17  N   UNL     1       5.179   5.308  17.372  0.00  0.00    +0.000 NA
ATOM     18  C   UNL     1       5.396   4.968  15.942  0.00  0.00    +0.000 C 
ATOM     19  C   UNL     1       6.577   4.024  15.653  0.00  0.00    +0.000 C 
ATOM     20  O   UNL     1       7.798   4.519  16.210  0.00  0.00    +0.000 OA
ATOM     21  C   UNL     1       7.658   4.739  17.616  0.00  0.00    +0.000 C 
ATOM     22  C   UNL     1       6.502   5.711  17.922  0.00  0.00    +0.000 C 
ENDBRANCH  15  17
ENDBRANCH  11  13
ENDBRANCH   5   8
BRANCH   7  23
ATOM     23  N   UNL     1       0.130  12.966  20.485  0.00  0.00    +0.000 N 
ATOM     24  C   UNL     1       1.041  13.972  20.824  0.00  0.00    +0.000 C 
ATOM     25  O   UNL     1       1.936  13.795  21.640  0.00  0.00    +0.000 OA
ATOM     26  H   UNL     1      -0.645  13.232  19.895  0.00  0.00    +0.000 HD
BRANCH  24  27
ATOM     27  C   UNL     1       0.894  15.269  20.173  0.00  0.00    +0.000 A 
ATOM     28  C   UNL     1      -0.057  16.263  20.329  0.00  0.00    +0.000 A 
ATOM     29  N   UNL     1       0.099  17.282  19.423  0.00  0.00    +0.000 NA
ATOM     30  C   UNL     1       1.133  16.938  18.682  0.00  0.00    +0.000 A 
ATOM     31  C   UNL     1       1.726  17.556  17.540  0.00  0.00    +0.000 A 
ATOM     32  C   UNL     1       2.813  17.006  16.965  0.00  0.00    +0.000 A 
ATOM     33  C   UNL     1       3.417  15.813  17.479  0.00  0.00    +0.000 A 
ATOM     34  C   UNL     1       2.859  15.203  18.539  0.00  0.00    +0.000 A 
ATOM     35  N   UNL     1       1.701  15.738  19.131  0.00  0.00    +0.000 N 
ENDBRANCH  24  27
ENDBRANCH   7  23
TORSDOF 5
ENDMDL
MODEL 2
REMARK VINA RESULT:      -8.8      4.159      5.958
REMARK  Name = 
REMARK  6 active torsions:
REMARK  status: ('A' for Active; 'I' for Inactive)
REMARK    1  A    between atoms: C_1  and  C_2
REMARK    2  A    between atoms: C_5  and  C_6
REMARK    3  A    between atoms: C_9  and  C_10
REMARK    4  A    between atoms: C_12  and  N_13
REMARK    5  A    between atoms: C_22  and  N_23
REMARK    6  A    between atoms: C_24  and  C_26
REMARK                            x       y       z     vdW  Elec       q    Type
REMARK                         _______ _______ _______ _____ _____    ______ ____
ROOT
ATOM      1  C   UNL     1      -1.976  12.107  22.007  0.00  0.00    +0.000 C 
ATOM      2  C   UNL     1      -1.149  11.325  21.029  0.00  0.00    +0.000 A 
ATOM      3  C   UNL     1       0.014  10.713  21.556  0.00  0.00    +0.000 A 
ATOM      4  C   UNL     1       0.889   9.994  20.748  0.00  0.00    +0.000 A 
ATOM      5  C   UNL     1       0.630   9.847  19.387  0.00  0.00    +0.000 A 
ATOM      6  C   UNL     1      -0.548  10.420  18.864  0.00  0.00    +0.000 A 
ATOM      7  C   UNL     1      -1.463  11.154  19.659  0.00  0.00    +0.000 A 
ENDROOT
BRANCH   5   8
ATOM      8  C   UNL     1       1.595   9.117  18.554  0.00  0.00    +0.000 A 
ATOM      9  N   UNL     1       2.060   9.537  17.368  0.00  0.00    +0.000 NA
ATOM     10  O   UNL     1       2.945   8.532  16.974  0.00  0.00    +0.000 OA
ATOM     11  C   UNL     1       2.955   7.595  17.969  0.00  0.00    +0.000 A 
ATOM     12  N   UNL     1       2.145   7.909  18.959  0.00  0.00    +0.000 NA
BRANCH  11  13
ATOM     13  C   UNL     1       3.930   6.421  18.028  0.00  0.00    +0.000 C 
ATOM     14  C   UNL     1       4.149   5.765  19.404  0.00  0.00    +0.000 C 
ATOM     15  C   UNL     1       3.367   4.510  18.939  0.00  0.00    +0.000 C 
ATOM     16  C   UNL     1       3.470   5.063  17.483  0.00  0.00    +0.000 C 
BRANCH  15  17
ATOM     17  N   UNL     1       1.954   4.551  19.363  0.00  0.00    +0.000 NA
ATOM     18  C   UNL     1       1.791   4.720  20.831  0.00  0.00    +0.000 C 
ATOM     19  C   UNL     1       2.130   3.486  21.686  0.00  0.00    +0.000 C 
ATOM     20  O   UNL     1       1.399   2.333  21.261  0.00  0.00    +0.000 OA
ATOM     21  C   UNL     1       1.634   2.068  19.876  0.00  0.00    +0.000 C 
ATOM     22  C   UNL     1       1.266   3.281  19.000  0.00  0.00    +0.000 C 
ENDBRANCH  15  17
ENDBRANCH  11  13
ENDBRANCH   5   8
BRANCH   7  23
ATOM     23  N   UNL     1      -2.672  11.709  19.119  0.00  0.00    +0.000 N 
ATOM     24  C   UNL     1      -3.659  11.031  18.397  0.00  0.00    +0.000 C 
ATOM     25  O   UNL     1      -3.519   9.872  18.029  0.00  0.00    +0.000 OA
ATOM     26  H   UNL     1      -2.819  12.694  19.279  0.00  0.00    +0.000 HD
BRANCH  24  27
ATOM     27  C   UNL     1      -4.884  11.755  18.077  0.00  0.00    +0.000 A 
ATOM     28  C   UNL     1      -5.365  12.245  16.875  0.00  0.00    +0.000 A 
ATOM     29  N   UNL     1      -6.510  12.984  17.031  0.00  0.00    +0.000 NA
ATOM     30  C   UNL     1      -6.755  12.981  18.326  0.00  0.00    +0.000 A 
ATOM     31  C   UNL     1      -7.760  13.636  19.101  0.00  0.00    +0.000 A 
ATOM     32  C   UNL     1      -7.810  13.449  20.435  0.00  0.00    +0.000 A 
ATOM     33  C   UNL     1      -6.888  12.588  21.112  0.00  0.00    +0.000 A 
ATOM     34  C   UNL     1      -5.919  11.982  20.403  0.00  0.00    +0.000 A 
ATOM     35  N   UNL     1      -5.824  12.193  19.017  0.00  0.00    +0.000 N 
ENDBRANCH  24  27
ENDBRANCH   7  23
TORSDOF 5
ENDMDL
MODEL 3
REMARK VINA RESULT:      -8.6      2.311      3.386
REMARK  Name = 
REMARK  6 active torsions:
REMARK  status: ('A' for Active; 'I' for Inactive)
REMARK    1  A    between atoms: C_1  and  C_2
REMARK    2  A    between atoms: C_5  and  C_6
REMARK    3  A    between atoms: C_9  and  C_10
REMARK    4  A    between atoms: C_12  and  N_13
REMARK    5  A    between atoms: C_22  and  N_23
REMARK    6  A    between atoms: C_24  and  C_26
REMARK                            x       y       z     vdW  Elec       q    Type
REMARK                         _______ _______ _______ _____ _____    ______ ____
ROOT
ATOM      1  C   UNL     1      -1.756  11.588  23.318  0.00  0.00    +0.000 C 
ATOM      2  C   UNL     1      -0.985  11.044  22.150  0.00  0.00    +0.000 A 
ATOM      3  C   UNL     1      -0.481   9.731  22.303  0.00  0.00    +0.000 A 
ATOM      4  C   UNL     1       0.285   9.123  21.313  0.00  0.00    +0.000 A 
ATOM      5  C   UNL     1       0.565   9.799  20.127  0.00  0.00    +0.000 A 
ATOM      6  C   UNL     1       0.031  11.093  19.952  0.00  0.00    +0.000 A 
ATOM      7  C   UNL     1      -0.757  11.738  20.937  0.00  0.00    +0.000 A 
ENDROOT
BRANCH   5   8
ATOM      8  C   UNL     1       1.411   9.147  19.118  0.00  0.00    +0.000 A 
ATOM      9  N   UNL     1       1.693   9.652  17.909  0.00  0.00    +0.000 NA
ATOM     10  O   UNL     1       2.528   8.696  17.327  0.00  0.00    +0.000 OA
ATOM     11  C   UNL     1       2.696   7.699  18.247  0.00  0.00    +0.000 A 
ATOM     12  N   UNL     1       2.032   7.930  19.361  0.00  0.00    +0.000 NA
BRANCH  11  13
ATOM     13  C   UNL     1       3.687   6.548  18.089  0.00  0.00    +0.000 C 
ATOM     14  C   UNL     1       4.033   5.747  19.357  0.00  0.00    +0.000 C 
ATOM     15  C   UNL     1       3.230   4.534  18.821  0.00  0.00    +0.000 C 
ATOM     16  C   UNL     1       3.199   5.249  17.433  0.00  0.00    +0.000 C 
BRANCH  15  17
ATOM     17  N   UNL     1       1.859   4.496  19.366  0.00  0.00    +0.000 NA
ATOM     18  C   UNL     1       1.820   4.559  20.850  0.00  0.00    +0.000 C 
ATOM     19  C   UNL     1       2.269   3.282  21.583  0.00  0.00    +0.000 C 
ATOM     20  O   UNL     1       1.538   2.135  21.141  0.00  0.00    +0.000 OA
ATOM     21  C   UNL     1       1.659   1.974  19.726  0.00  0.00    +0.000 C 
ATOM     22  C   UNL     1       1.180   3.230  18.973  0.00  0.00    +0.000 C 
ENDBRANCH  15  17
ENDBRANCH  11  13
ENDBRANCH   5   8
BRANCH   7  23
ATOM     23  N   UNL     1      -1.317  13.044  20.735  0.00  0.00    +0.000 N 
ATOM     24  C   UNL     1      -0.788  14.263  21.174  0.00  0.00    +0.000 C 
ATOM     25  O   UNL     1       0.183  14.324  21.915  0.00  0.00    +0.000 OA
ATOM     26  H   UNL     1      -2.186  13.082  20.224  0.00  0.00    +0.000 HD
BRANCH  24  27
ATOM     27  C   UNL     1      -1.440  15.487  20.723  0.00  0.00    +0.000 A 
ATOM     28  C   UNL     1      -2.663  16.044  21.057  0.00  0.00    +0.000 A 
ATOM     29  N   UNL     1      -2.957  17.152  20.303  0.00  0.00    +0.000 NA
ATOM     30  C   UNL     1      -1.937  17.297  19.480  0.00  0.00    +0.000 A 
ATOM     31  C   UNL     1      -1.704  18.220  18.416  0.00  0.00    +0.000 A 
ATOM     32  C   UNL     1      -0.547  18.174  17.727  0.00  0.00    +0.000 A 
ATOM     33  C   UNL     1       0.482  17.228  18.040  0.00  0.00    +0.000 A 
ATOM     34  C   UNL     1       0.270  16.334  19.022  0.00  0.00    +0.000 A 
ATOM     35  N   UNL     1      -0.945  16.339  19.729  0.00  0.00    +0.000 N 
ENDBRANCH  24  27
ENDBRANCH   7  23
TORSDOF 5
ENDMDL
MODEL 4
REMARK VINA RESULT:      -8.5      5.916      7.999
REMARK  Name = 
REMARK  6 active torsions:
REMARK  status: ('A' for Active; 'I' for Inactive)
REMARK    1  A    between atoms: C_1  and  C_2
REMARK    2  A    between atoms: C_5  and  C_6
REMARK    3  A    between atoms: C_9  and  C_10
REMARK    4  A    between atoms: C_12  and  N_13
REMARK    5  A    between atoms: C_22  and  N_23
REMARK    6  A    between atoms: C_24  and  C_26
REMARK                            x       y       z     vdW  Elec       q    Type
REMARK                         _______ _______ _______ _____ _____    ______ ____
ROOT
ATOM      1  C   UNL     1      10.968  13.726  19.318  0.00  0.00    +0.000 C 
ATOM      2  C   UNL     1      10.271  12.403  19.185  0.00  0.00    +0.000 A 
ATOM      3  C   UNL     1      10.432  11.745  17.942  0.00  0.00    +0.000 A 
ATOM      4  C   UNL     1       9.805  10.533  17.672  0.00  0.00    +0.000 A 
ATOM      5  C   UNL     1       9.004   9.925  18.638  0.00  0.00    +0.000 A 
ATOM      6  C   UNL     1       8.873  10.556  19.892  0.00  0.00    +0.000 A 
ATOM      7  C   UNL     1       9.501  11.788  20.201  0.00  0.00    +0.000 A 
ENDROOT
BRANCH   5   8
ATOM      8  C   UNL     1       8.323   8.666  18.308  0.00  0.00    +0.000 A 
ATOM      9  N   UNL     1       8.540   7.492  18.919  0.00  0.00    +0.000 NA
ATOM     10  O   UNL     1       7.665   6.610  18.281  0.00  0.00    +0.000 OA
ATOM     11  C   UNL     1       6.977   7.334  17.349  0.00  0.00    +0.000 A 
ATOM     12  N   UNL     1       7.343   8.599  17.328  0.00  0.00    +0.000 NA
BRANCH  11  13
ATOM     13  C   UNL     1       5.786   6.796  16.558  0.00  0.00    +0.000 C 
ATOM     14  C   UNL     1       5.571   5.272  16.573  0.00  0.00    +0.000 C 
ATOM     15  C   UNL     1       4.320   5.449  17.470  0.00  0.00    +0.000 C 
ATOM     16  C   UNL     1       4.380   6.974  17.144  0.00  0.00    +0.000 C 
BRANCH  15  17
ATOM     17  N   UNL     1       4.634   5.256  18.899  0.00  0.00    +0.000 NA
ATOM     18  C   UNL     1       5.121   3.887  19.209  0.00  0.00    +0.000 C 
ATOM     19  C   UNL     1       4.055   2.777  19.177  0.00  0.00    +0.000 C 
ATOM     20  O   UNL     1       2.947   3.085  20.026  0.00  0.00    +0.000 OA
ATOM     21  C   UNL     1       2.374   4.346  19.671  0.00  0.00    +0.000 C 
ATOM     22  C   UNL     1       3.419   5.477  19.731  0.00  0.00    +0.000 C 
ENDBRANCH  15  17
ENDBRANCH  11  13
ENDBRANCH   5   8
BRANCH   7  23
ATOM     23  N   UNL     1       9.381  12.406  21.491  0.00  0.00    +0.000 N 
ATOM     24  C   UNL     1       8.452  13.379  21.875  0.00  0.00    +0.000 C 
ATOM     25  O   UNL     1       7.698  13.913  21.073  0.00  0.00    +0.000 OA
ATOM     26  H   UNL     1      10.042  12.105  22.192  0.00  0.00    +0.000 HD
BRANCH  24  27
ATOM     27  C   UNL     1       8.407  13.757  23.282  0.00  0.00    +0.000 A 
ATOM     28  C   UNL     1       9.004  14.804  23.964  0.00  0.00    +0.000 A 
ATOM     29  N   UNL     1       8.806  14.727  25.320  0.00  0.00    +0.000 NA
ATOM     30  C   UNL     1       8.099  13.630  25.509  0.00  0.00    +0.000 A 
ATOM     31  C   UNL     1       7.652  12.987  26.702  0.00  0.00    +0.000 A 
ATOM     32  C   UNL     1       6.910  11.865  26.625  0.00  0.00    +0.000 A 
ATOM     33  C   UNL     1       6.532  11.295  25.366  0.00  0.00    +0.000 A 
ATOM     34  C   UNL     1       6.965  11.872  24.231  0.00  0.00    +0.000 A 
ATOM     35  N   UNL     1       7.773  13.021  24.289  0.00  0.00    +0.000 N 
ENDBRANCH  24  27
ENDBRANCH   7  23
TORSDOF 5
ENDMDL
MODEL 5
REMARK VINA RESULT:      -8.4      3.619     10.099
REMARK  Name = 
REMARK  6 active torsions:
REMARK  status: ('A' for Active; 'I' for Inactive)
REMARK    1  A    between atoms: C_1  and  C_2
REMARK    2  A    between atoms: C_5  and  C_6
REMARK    3  A    between atoms: C_9  and  C_10
REMARK    4  A    between atoms: C_12  and  N_13
REMARK    5  A    between atoms: C_22  and  N_23
REMARK    6  A    between atoms: C_24  and  C_26
REMARK                            x       y       z     vdW  Elec       q    Type
REMARK                         _______ _______ _______ _____ _____    ______ ____
ROOT
ATOM      1  C   UNL     1       4.004   2.880  19.774  0.00  0.00    +0.000 C 
ATOM      2  C   UNL     1       3.352   4.225  19.911  0.00  0.00    +0.000 A 
ATOM      3  C   UNL     1       2.334   4.318  20.890  0.00  0.00    +0.000 A 
ATOM      4  C   UNL     1       1.621   5.496  21.091  0.00  0.00    +0.000 A 
ATOM      5  C   UNL     1       1.906   6.629  20.331  0.00  0.00    +0.000 A 
ATOM      6  C   UNL     1       2.948   6.553  19.382  0.00  0.00    +0.000 A 
ATOM      7  C   UNL     1       3.696   5.372  19.156  0.00  0.00    +0.000 A 
ENDROOT
BRANCH   5   8
ATOM      8  C   UNL     1       1.108   7.845  20.539  0.00  0.00    +0.000 A 
ATOM      9  N   UNL     1       0.340   8.087  21.611  0.00  0.00    +0.000 NA
ATOM     10  O   UNL     1      -0.198   9.351  21.366  0.00  0.00    +0.000 OA
ATOM     11  C   UNL     1       0.308   9.776  20.169  0.00  0.00    +0.000 A 
ATOM     12  N   UNL     1       1.115   8.889  19.624  0.00  0.00    +0.000 NA
BRANCH  11  13
ATOM     13  C   UNL     1       0.123  11.187  19.616  0.00  0.00    +0.000 C 
ATOM     14  C   UNL     1      -0.050  11.322  18.092  0.00  0.00    +0.000 C 
ATOM     15  C   UNL     1      -1.544  11.687  18.286  0.00  0.00    +0.000 C 
ATOM     16  C   UNL     1      -1.236  11.873  19.805  0.00  0.00    +0.000 C 
BRANCH  15  17
ATOM     17  N   UNL     1      -2.425  10.514  18.120  0.00  0.00    +0.000 NA
ATOM     18  C   UNL     1      -2.197   9.790  16.843  0.00  0.00    +0.000 C 
ATOM     19  C   UNL     1      -2.711  10.497  15.576  0.00  0.00    +0.000 C 
ATOM     20  O   UNL     1      -4.096  10.835  15.685  0.00  0.00    +0.000 OA
ATOM     21  C   UNL     1      -4.329  11.640  16.842  0.00  0.00    +0.000 C 
ATOM     22  C   UNL     1      -3.853  10.934  18.126  0.00  0.00    +0.000 C 
ENDBRANCH  15  17
ENDBRANCH  11  13
ENDBRANCH   5   8
BRANCH   7  23
ATOM     23  N   UNL     1       4.771   5.317  18.206  0.00  0.00    +0.000 N 
ATOM     24  C   UNL     1       4.731   4.763  16.922  0.00  0.00    +0.000 C 
ATOM     25  O   UNL     1       3.767   4.130  16.514  0.00  0.00    +0.000 OA
ATOM     26  H   UNL     1       5.648   5.720  18.503  0.00  0.00    +0.000 HD
BRANCH  24  27
ATOM     27  C   UNL     1       5.895   4.955  16.064  0.00  0.00    +0.000 A 
ATOM     28  C   UNL     1       7.065   5.668  16.262  0.00  0.00    +0.000 A 
ATOM     29  N   UNL     1       7.857   5.695  15.142  0.00  0.00    +0.000 NA
ATOM     30  C   UNL     1       7.194   5.017  14.227  0.00  0.00    +0.000 A 
ATOM     31  C   UNL     1       7.471   4.766  12.849  0.00  0.00    +0.000 A 
ATOM     32  C   UNL     1       6.628   4.009  12.119  0.00  0.00    +0.000 A 
ATOM     33  C   UNL     1       5.453   3.422  12.691  0.00  0.00    +0.000 A 
ATOM     34  C   UNL     1       5.161   3.669  13.981  0.00  0.00    +0.000 A 
ATOM     35  N   UNL     1       6.006   4.487  14.750  0.00  0.00    +0.000 N 
ENDBRANCH  24  27
ENDBRANCH   7  23
TORSDOF 5
ENDMDL
MODEL 6
REMARK VINA RESULT:      -8.3      3.640      5.401
REMARK  Name = 
REMARK  6 active torsions:
REMARK  status: ('A' for Active; 'I' for Inactive)
REMARK    1  A    between atoms: C_1  and  C_2
REMARK    2  A    between atoms: C_5  and  C_6
REMARK    3  A    between atoms: C_9  and  C_10
REMARK    4  A    between atoms: C_12  and  N_13
REMARK    5  A    between atoms: C_22  and  N_23
REMARK    6  A    between atoms: C_24  and  C_26
REMARK                            x       y       z     vdW  Elec       q    Type
REMARK                         _______ _______ _______ _____ _____    ______ ____
ROOT
ATOM      1  C   UNL     1      -0.970  14.385  19.908  0.00  0.00    +0.000 C 
ATOM      2  C   UNL     1      -0.402  13.045  19.543  0.00  0.00    +0.000 A 
ATOM      3  C   UNL     1       1.010  12.971  19.480  0.00  0.00    +0.000 A 
ATOM      4  C   UNL     1       1.663  11.799  19.113  0.00  0.00    +0.000 A 
ATOM      5  C   UNL     1       0.933  10.653  18.808  0.00  0.00    +0.000 A 
ATOM      6  C   UNL     1      -0.473  10.709  18.909  0.00  0.00    +0.000 A 
ATOM      7  C   UNL     1      -1.170  11.884  19.284  0.00  0.00    +0.000 A 
ENDROOT
BRANCH   5   8
ATOM      8  C   UNL     1       1.650   9.442  18.384  0.00  0.00    +0.000 A 
ATOM      9  N   UNL     1       2.515   9.380  17.362  0.00  0.00    +0.000 NA
ATOM     10  O   UNL     1       2.941   8.051  17.357  0.00  0.00    +0.000 OA
ATOM     11  C   UNL     1       2.310   7.425  18.396  0.00  0.00    +0.000 A 
ATOM     12  N   UNL     1       1.509   8.236  19.056  0.00  0.00    +0.000 NA
BRANCH  11  13
ATOM     13  C   UNL     1       2.635   6.008  18.864  0.00  0.00    +0.000 C 
ATOM     14  C   UNL     1       2.897   4.956  17.771  0.00  0.00    +0.000 C 
ATOM     15  C   UNL     1       4.403   4.938  18.137  0.00  0.00    +0.000 C 
ATOM     16  C   UNL     1       4.032   5.729  19.431  0.00  0.00    +0.000 C 
BRANCH  15  17
ATOM     17  N   UNL     1       5.195   5.817  17.254  0.00  0.00    +0.000 NA
ATOM     18  C   UNL     1       5.424   5.235  15.907  0.00  0.00    +0.000 C 
ATOM     19  C   UNL     1       6.432   4.074  15.845  0.00  0.00    +0.000 C 
ATOM     20  O   UNL     1       7.690   4.436  16.421  0.00  0.00    +0.000 OA
ATOM     21  C   UNL     1       7.518   4.884  17.767  0.00  0.00    +0.000 C 
ATOM     22  C   UNL     1       6.538   6.071  17.845  0.00  0.00    +0.000 C 
ENDBRANCH  15  17
ENDBRANCH  11  13
ENDBRANCH   5   8
BRANCH   7  23
ATOM     23  N   UNL     1      -2.600  11.920  19.409  0.00  0.00    +0.000 N 
ATOM     24  C   UNL     1      -3.538  11.686  18.398  0.00  0.00    +0.000 C 
ATOM     25  O   UNL     1      -3.214  11.547  17.226  0.00  0.00    +0.000 OA
ATOM     26  H   UNL     1      -2.961  12.140  20.325  0.00  0.00    +0.000 HD
BRANCH  24  27
ATOM     27  C   UNL     1      -4.944  11.619  18.780  0.00  0.00    +0.000 A 
ATOM     28  C   UNL     1      -6.059  11.196  18.077  0.00  0.00    +0.000 A 
ATOM     29  N   UNL     1      -7.226  11.416  18.764  0.00  0.00    +0.000 NA
ATOM     30  C   UNL     1      -6.864  11.990  19.894  0.00  0.00    +0.000 A 
ATOM     31  C   UNL     1      -7.632  12.517  20.977  0.00  0.00    +0.000 A 
ATOM     32  C   UNL     1      -7.010  13.042  22.051  0.00  0.00    +0.000 A 
ATOM     33  C   UNL     1      -5.582  13.074  22.155  0.00  0.00    +0.000 A 
ATOM     34  C   UNL     1      -4.842  12.606  21.135  0.00  0.00    +0.000 A 
ATOM     35  N   UNL     1      -5.469  12.089  19.989  0.00  0.00    +0.000 N 
ENDBRANCH  24  27
ENDBRANCH   7  23
TORSDOF 5
ENDMDL
MODEL 7
REMARK VINA RESULT:      -8.3      1.034      1.059
REMARK  Name = 
REMARK  6 active torsions:
REMARK  status: ('A' for Active; 'I' for Inactive)
REMARK    1  A    between atoms: C_1  and  C_2
REMARK    2  A    between atoms: C_5  and  C_6
REMARK    3  A    between atoms: C_9  and  C_10
REMARK    4  A    between atoms: C_12  and  N_13
REMARK    5  A    between atoms: C_22  and  N_23
REMARK    6  A    between atoms: C_24  and  C_26
REMARK                            x       y       z     vdW  Elec       q    Type
REMARK                         _______ _______ _______ _____ _____    ______ ____
ROOT
ATOM      1  C   UNL     1      -1.214  11.746  23.152  0.00  0.00    +0.000 C 
ATOM      2  C   UNL     1      -0.491  10.864  22.176  0.00  0.00    +0.000 A 
ATOM      3  C   UNL     1      -0.554   9.474  22.439  0.00  0.00    +0.000 A 
ATOM      4  C   UNL     1       0.107   8.550  21.637  0.00  0.00    +0.000 A 
ATOM      5  C   UNL     1       0.846   8.976  20.535  0.00  0.00    +0.000 A 
ATOM      6  C   UNL     1       0.879  10.356  20.245  0.00  0.00    +0.000 A 
ATOM      7  C   UNL     1       0.213  11.323  21.037  0.00  0.00    +0.000 A 
ENDROOT
BRANCH   5   8
ATOM      8  C   UNL     1       1.566   7.979  19.731  0.00  0.00    +0.000 A 
ATOM      9  N   UNL     1       2.184   8.229  18.568  0.00  0.00    +0.000 NA
ATOM     10  O   UNL     1       2.726   6.997  18.198  0.00  0.00    +0.000 OA
ATOM     11  C   UNL     1       2.405   6.107  19.185  0.00  0.00    +0.000 A 
ATOM     12  N   UNL     1       1.696   6.660  20.147  0.00  0.00    +0.000 NA
BRANCH  11  13
ATOM     13  C   UNL     1       2.962   4.688  19.269  0.00  0.00    +0.000 C 
ATOM     14  C   UNL     1       3.326   4.002  17.940  0.00  0.00    +0.000 C 
ATOM     15  C   UNL     1       4.834   4.131  18.275  0.00  0.00    +0.000 C 
ATOM     16  C   UNL     1       4.413   4.499  19.733  0.00  0.00    +0.000 C 
BRANCH  15  17
ATOM     17  N   UNL     1       5.440   5.319  17.642  0.00  0.00    +0.000 NA
ATOM     18  C   UNL     1       5.514   5.215  16.162  0.00  0.00    +0.000 C 
ATOM     19  C   UNL     1       6.573   4.242  15.613  0.00  0.00    +0.000 C 
ATOM     20  O   UNL     1       7.874   4.532  16.130  0.00  0.00    +0.000 OA
ATOM     21  C   UNL     1       7.864   4.515  17.560  0.00  0.00    +0.000 C 
ATOM     22  C   UNL     1       6.834   5.510  18.128  0.00  0.00    +0.000 C 
ENDBRANCH  15  17
ENDBRANCH  11  13
ENDBRANCH   5   8
BRANCH   7  23
ATOM     23  N   UNL     1       0.233  12.722  20.715  0.00  0.00    +0.000 N 
ATOM     24  C   UNL     1      -0.595  13.387  19.805  0.00  0.00    +0.000 C 
ATOM     25  O   UNL     1      -1.368  12.789  19.068  0.00  0.00    +0.000 OA
ATOM     26  H   UNL     1       0.921  13.280  21.198  0.00  0.00    +0.000 HD
BRANCH  24  27
ATOM     27  C   UNL     1      -0.510  14.842  19.746  0.00  0.00    +0.000 A 
ATOM     28  C   UNL     1      -1.403  15.823  20.141  0.00  0.00    +0.000 A 
ATOM     29  N   UNL     1      -0.985  17.083  19.792  0.00  0.00    +0.000 NA
ATOM     30  C   UNL     1       0.161  16.910  19.163  0.00  0.00    +0.000 A 
ATOM     31  C   UNL     1       1.029  17.834  18.507  0.00  0.00    +0.000 A 
ATOM     32  C   UNL     1       2.176  17.401  17.949  0.00  0.00    +0.000 A 
ATOM     33  C   UNL     1       2.572  16.026  18.008  0.00  0.00    +0.000 A 
ATOM     34  C   UNL     1       1.756  15.136  18.600  0.00  0.00    +0.000 A 
ATOM     35  N   UNL     1       0.536  15.559  19.154  0.00  0.00    +0.000 N 
ENDBRANCH  24  27
ENDBRANCH   7  23
TORSDOF 5
ENDMDL
MODEL 8
REMARK VINA RESULT:      -8.2      3.955     11.474
REMARK  Name = 
REMARK  6 active torsions:
REMARK  status: ('A' for Active; 'I' for Inactive)
REMARK    1  A    between atoms: C_1  and  C_2
REMARK    2  A    between atoms: C_5  and  C_6
REMARK    3  A    between atoms: C_9  and  C_10
REMARK    4  A    between atoms: C_12  and  N_13
REMARK    5  A    between atoms: C_22  and  N_23
REMARK    6  A    between atoms: C_24  and  C_26
REMARK                            x       y       z     vdW  Elec       q    Type
REMARK                         _______ _______ _______ _____ _____    ______ ____
ROOT
ATOM      1  C   UNL     1       2.772   7.944  17.702  0.00  0.00    +0.000 C 
ATOM      2  C   UNL     1       1.986   8.591  18.806  0.00  0.00    +0.000 A 
ATOM      3  C   UNL     1       1.472   9.879  18.522  0.00  0.00    +0.000 A 
ATOM      4  C   UNL     1       0.762  10.606  19.471  0.00  0.00    +0.000 A 
ATOM      5  C   UNL     1       0.527  10.070  20.736  0.00  0.00    +0.000 A 
ATOM      6  C   UNL     1       1.002   8.770  21.011  0.00  0.00    +0.000 A 
ATOM      7  C   UNL     1       1.724   8.001  20.065  0.00  0.00    +0.000 A 
ENDROOT
BRANCH   5   8
ATOM      8  C   UNL     1      -0.191  10.879  21.730  0.00  0.00    +0.000 A 
ATOM      9  N   UNL     1      -0.299  10.578  23.032  0.00  0.00    +0.000 NA
ATOM     10  O   UNL     1      -1.046  11.632  23.564  0.00  0.00    +0.000 OA
ATOM     11  C   UNL     1      -1.309  12.494  22.536  0.00  0.00    +0.000 A 
ATOM     12  N   UNL     1      -0.806  12.077  21.393  0.00  0.00    +0.000 NA
BRANCH  11  13
ATOM     13  C   UNL     1      -1.941  13.872  22.717  0.00  0.00    +0.000 C 
ATOM     14  C   UNL     1      -3.065  14.258  21.738  0.00  0.00    +0.000 C 
ATOM     15  C   UNL     1      -4.111  14.126  22.874  0.00  0.00    +0.000 C 
ATOM     16  C   UNL     1      -2.919  14.080  23.881  0.00  0.00    +0.000 C 
BRANCH  15  17
ATOM     17  N   UNL     1      -4.775  12.807  22.862  0.00  0.00    +0.000 NA
ATOM     18  C   UNL     1      -5.575  12.568  21.634  0.00  0.00    +0.000 C 
ATOM     19  C   UNL     1      -6.892  13.358  21.532  0.00  0.00    +0.000 C 
ATOM     20  O   UNL     1      -7.720  13.153  22.680  0.00  0.00    +0.000 OA
ATOM     21  C   UNL     1      -7.017  13.495  23.877  0.00  0.00    +0.000 C 
ATOM     22  C   UNL     1      -5.712  12.688  24.013  0.00  0.00    +0.000 C 
ENDBRANCH  15  17
ENDBRANCH  11  13
ENDBRANCH   5   8
BRANCH   7  23
ATOM     23  N   UNL     1       2.179   6.669  20.349  0.00  0.00    +0.000 N 
ATOM     24  C   UNL     1       1.388   5.526  20.507  0.00  0.00    +0.000 C 
ATOM     25  O   UNL     1       0.166   5.579  20.546  0.00  0.00    +0.000 OA
ATOM     26  H   UNL     1       3.176   6.551  20.446  0.00  0.00    +0.000 HD
BRANCH  24  27
ATOM     27  C   UNL     1       2.068   4.243  20.636  0.00  0.00    +0.000 A 
ATOM     28  C   UNL     1       2.488   3.543  21.754  0.00  0.00    +0.000 A 
ATOM     29  N   UNL     1       3.208   2.421  21.429  0.00  0.00    +0.000 NA
ATOM     30  C   UNL     1       3.263   2.409  20.112  0.00  0.00    +0.000 A 
ATOM     31  C   UNL     1       3.933   1.537  19.201  0.00  0.00    +0.000 A 
ATOM     32  C   UNL     1       3.811   1.728  17.873  0.00  0.00    +0.000 A 
ATOM     33  C   UNL     1       3.005   2.782  17.333  0.00  0.00    +0.000 A 
ATOM     34  C   UNL     1       2.387   3.628  18.175  0.00  0.00    +0.000 A 
ATOM     35  N   UNL     1       2.531   3.471  19.564  0.00  0.00    +0.000 N 
ENDBRANCH  24  27
ENDBRANCH   7  23
TORSDOF 5
ENDMDL
MODEL 9
REMARK VINA RESULT:      -8.2      6.237      8.039
REMARK  Name = 
REMARK  6 active torsions:
REMARK  status: ('A' for Active; 'I' for Inactive)
REMARK    1  A    between atoms: C_1  and  C_2
REMARK    2  A    between atoms: C_5  and  C_6
REMARK    3  A    between atoms: C_9  and  C_10
REMARK    4  A    between atoms: C_12  and  N_13
REMARK    5  A    between atoms: C_22  and  N_23
REMARK    6  A    between atoms: C_24  and  C_26
REMARK                            x       y       z     vdW  Elec       q    Type
REMARK                         _______ _______ _______ _____ _____    ______ ____
ROOT
ATOM      1  C   UNL     1      10.694  13.777  19.694  0.00  0.00    +0.000 C 
ATOM      2  C   UNL     1      10.086  12.421  19.484  0.00  0.00    +0.000 A 
ATOM      3  C   UNL     1      10.176  11.903  18.170  0.00  0.00    +0.000 A 
ATOM      4  C   UNL     1       9.617  10.676  17.830  0.00  0.00    +0.000 A 
ATOM      5  C   UNL     1       8.958   9.913  18.792  0.00  0.00    +0.000 A 
ATOM      6  C   UNL     1       8.900  10.405  20.113  0.00  0.00    +0.000 A 
ATOM      7  C   UNL     1       9.463  11.648  20.493  0.00  0.00    +0.000 A 
ENDROOT
BRANCH   5   8
ATOM      8  C   UNL     1       8.343   8.640  18.393  0.00  0.00    +0.000 A 
ATOM      9  N   UNL     1       8.599   7.451  18.958  0.00  0.00    +0.000 NA
ATOM     10  O   UNL     1       7.780   6.560  18.262  0.00  0.00    +0.000 OA
ATOM     11  C   UNL     1       7.081   7.292  17.344  0.00  0.00    +0.000 A 
ATOM     12  N   UNL     1       7.389   8.572  17.386  0.00  0.00    +0.000 NA
BRANCH  11  13
ATOM     13  C   UNL     1       5.935   6.737  16.501  0.00  0.00    +0.000 C 
ATOM     14  C   UNL     1       5.743   5.209  16.506  0.00  0.00    +0.000 C 
ATOM     15  C   UNL     1       4.451   5.366  17.347  0.00  0.00    +0.000 C 
ATOM     16  C   UNL     1       4.502   6.893  17.024  0.00  0.00    +0.000 C 
BRANCH  15  17
ATOM     17  N   UNL     1       4.704   5.177  18.789  0.00  0.00    +0.000 NA
ATOM     18  C   UNL     1       5.047   3.775  19.141  0.00  0.00    +0.000 C 
ATOM     19  C   UNL     1       3.880   2.773  19.100  0.00  0.00    +0.000 C 
ATOM     20  O   UNL     1       2.783   3.206  19.908  0.00  0.00    +0.000 OA
ATOM     21  C   UNL     1       2.346   4.508  19.510  0.00  0.00    +0.000 C 
ATOM     22  C   UNL     1       3.494   5.533  19.579  0.00  0.00    +0.000 C 
ENDBRANCH  15  17
ENDBRANCH  11  13
ENDBRANCH   5   8
BRANCH   7  23
ATOM     23  N   UNL     1       9.420  12.126  21.847  0.00  0.00    +0.000 N 
ATOM     24  C   UNL     1       8.436  12.936  22.422  0.00  0.00    +0.000 C 
ATOM     25  O   UNL     1       7.540  13.444  21.761  0.00  0.00    +0.000 OA
ATOM     26  H   UNL     1      10.186  11.846  22.442  0.00  0.00    +0.000 HD
BRANCH  24  27
ATOM     27  C   UNL     1       8.507  13.175  23.859  0.00  0.00    +0.000 A 
ATOM     28  C   UNL     1       8.164  12.372  24.934  0.00  0.00    +0.000 A 
ATOM     29  N   UNL     1       8.269  13.030  26.133  0.00  0.00    +0.000 NA
ATOM     30  C   UNL     1       8.663  14.251  25.830  0.00  0.00    +0.000 A 
ATOM     31  C   UNL     1       8.873  15.406  26.642  0.00  0.00    +0.000 A 
ATOM     32  C   UNL     1       9.307  16.553  26.082  0.00  0.00    +0.000 A 
ATOM     33  C   UNL     1       9.587  16.650  24.681  0.00  0.00    +0.000 A 
ATOM     34  C   UNL     1       9.372  15.580  23.896  0.00  0.00    +0.000 A 
ATOM     35  N   UNL     1       8.883  14.385  24.452  0.00  0.00    +0.000 N 
ENDBRANCH  24  27
ENDBRANCH   7  23
TORSDOF 5
ENDMDL
