MODEL 1
REMARK VINA RESULT:      -6.8      0.000      0.000
REMARK  Name = 
REMARK  6 active torsions:
REMARK  status: ('A' for Active; 'I' for Inactive)
REMARK    1  A    between atoms: C_1  and  O_2
REMARK    2  A    between atoms: O_2  and  C_3
REMARK    3  A    between atoms: N_6  and  C_7
REMARK    4  A    between atoms: C_11  and  N_12
REMARK    5  A    between atoms: N_15  and  C_16
REMARK    6  A    between atoms: N_19  and  C_20
REMARK                            x       y       z     vdW  Elec       q    Type
REMARK                         _______ _______ _______ _____ _____    ______ ____
ROOT
ATOM      1  N   UNL     1       1.361   8.017  19.519  0.00  0.00    +0.000 N 
ATOM      2  C   UNL     1       1.727   8.913  18.412  0.00  0.00    +0.000 C 
ATOM      3  C   UNL     1       1.511  10.363  18.870  0.00  0.00    +0.000 C 
ATOM      4  N   UNL     1       0.665  10.343  20.071  0.00  0.00    +0.000 NA
ATOM      5  S   UNL     1       0.834   8.862  20.883  0.00  0.00    +0.000 S 
ATOM      6  O   UNL     1       1.927   8.976  21.815  0.00  0.00    +0.000 OA
ATOM      7  O   UNL     1      -0.475   8.411  21.287  0.00  0.00    +0.000 OA
ENDROOT
BRANCH   1  12
ATOM      8  C   UNL     1       4.149   5.583  19.183  0.00  0.00    +0.000 A 
ATOM      9  C   UNL     1       3.667   4.552  20.014  0.00  0.00    +0.000 A 
ATOM     10  C   UNL     1       2.439   4.641  20.676  0.00  0.00    +0.000 A 
ATOM     11  C   UNL     1       1.663   5.782  20.538  0.00  0.00    +0.000 A 
ATOM     12  C   UNL     1       2.139   6.844  19.769  0.00  0.00    +0.000 A 
ATOM     13  C   UNL     1       3.358   6.730  19.097  0.00  0.00    +0.000 A 
BRANCH   8  17
ATOM     14  C   UNL     1       6.950   6.173  16.879  0.00  0.00    +0.000 C 
ATOM     15  C   UNL     1       7.512   6.341  18.285  0.00  0.00    +0.000 C 
ATOM     16  C   UNL     1       6.669   5.384  19.119  0.00  0.00    +0.000 C 
ATOM     17  N   UNL     1       5.343   5.443  18.502  0.00  0.00    +0.000 N 
ATOM     18  C   UNL     1       5.446   5.956  17.129  0.00  0.00    +0.000 C 
BRANCH  14  20
ATOM     19  C   UNL     1       6.875   4.566  15.129  0.00  0.00    +0.000 C 
ATOM     20  O   UNL     1       7.588   5.050  16.261  0.00  0.00    +0.000 OA
ENDBRANCH  14  20
ENDBRANCH   8  17
ENDBRANCH   1  12
BRANCH   4  21
ATOM     21  C   UNL     1       0.491  11.578  20.892  0.00  0.00    +0.000 C 
ATOM     22  C   UNL     1      -0.962  12.047  20.958  0.00  0.00    +0.000 C 
ATOM     23  C   UNL     1      -1.101  13.110  19.875  0.00  0.00    +0.000 C 
ATOM     24  N   UNL     1       0.246  13.693  19.719  0.00  0.00    +0.000 N 
ATOM     25  C   UNL     1       1.242  12.833  20.417  0.00  0.00    +0.000 C 
BRANCH  24  26
ATOM     26  C   UNL     1       0.512  14.910  19.227  0.00  0.00    +0.000 C 
ATOM     27  N   UNL     1       0.741  15.961  18.809  0.00  0.00    +0.000 NA
ENDBRANCH  24  26
ENDBRANCH   4  21
TORSDOF 5
ENDMDL
MODEL 2
REMARK VINA RESULT:      -6.6      3.040      4.592
REMARK  Name = 
REMARK  6 active torsions:
REMARK  status: ('A' for Active; 'I' for Inactive)
REMARK    1  A    between atoms: C_1  and  O_2
REMARK    2  A    between atoms: O_2  and  C_3
REMARK    3  A    between atoms: N_6  and  C_7
REMARK    4  A    between atoms: C_11  and  N_12
REMARK    5  A    between atoms: N_15  and  C_16
REMARK    6  A    between atoms: N_19  and  C_20
REMARK                            x       y       z     vdW  Elec       q    Type
REMARK                         _______ _______ _______ _____ _____    ______ ____
ROOT
ATOM      1  N   UNL     1       0.967  10.030  21.223  0.00  0.00    +0.000 N 
ATOM      2  C   UNL     1       0.099   9.485  22.278  0.00  0.00    +0.000 C 
ATOM      3  C   UNL     1      -0.902  10.574  22.693  0.00  0.00    +0.000 C 
ATOM      4  N   UNL     1      -0.407  11.864  22.195  0.00  0.00    +0.000 NA
ATOM      5  S   UNL     1       0.585  11.629  20.838  0.00  0.00    +0.000 S 
ATOM      6  O   UNL     1      -0.245  11.642  19.660  0.00  0.00    +0.000 OA
ATOM      7  O   UNL     1       1.745  12.475  20.969  0.00  0.00    +0.000 OA
ENDROOT
BRANCH   1  12
ATOM      8  C   UNL     1       2.304   7.044  19.458  0.00  0.00    +0.000 A 
ATOM      9  C   UNL     1       2.325   7.537  18.139  0.00  0.00    +0.000 A 
ATOM     10  C   UNL     1       1.915   8.835  17.821  0.00  0.00    +0.000 A 
ATOM     11  C   UNL     1       1.450   9.676  18.822  0.00  0.00    +0.000 A 
ATOM     12  C   UNL     1       1.362   9.197  20.129  0.00  0.00    +0.000 A 
ATOM     13  C   UNL     1       1.797   7.905  20.434  0.00  0.00    +0.000 A 
BRANCH   8  17
ATOM     14  C   UNL     1       2.702   3.391  19.484  0.00  0.00    +0.000 C 
ATOM     15  C   UNL     1       3.973   3.955  18.861  0.00  0.00    +0.000 C 
ATOM     16  C   UNL     1       4.136   5.304  19.550  0.00  0.00    +0.000 C 
ATOM     17  N   UNL     1       2.764   5.775  19.747  0.00  0.00    +0.000 N 
ATOM     18  C   UNL     1       1.827   4.644  19.682  0.00  0.00    +0.000 C 
BRANCH  14  20
ATOM     19  C   UNL     1       1.988   2.780  21.668  0.00  0.00    +0.000 C 
ATOM     20  O   UNL     1       3.042   2.740  20.713  0.00  0.00    +0.000 OA
ENDBRANCH  14  20
ENDBRANCH   8  17
ENDBRANCH   1  12
BRANCH   4  21
ATOM     21  C   UNL     1      -1.287  13.070  22.221  0.00  0.00    +0.000 C 
ATOM     22  C   UNL     1      -1.693  13.478  23.637  0.00  0.00    +0.000 C 
ATOM     23  C   UNL     1      -3.060  12.848  23.871  0.00  0.00    +0.000 C 
ATOM     24  N   UNL     1      -3.673  12.726  22.535  0.00  0.00    +0.000 N 
ATOM     25  C   UNL     1      -2.635  12.956  21.491  0.00  0.00    +0.000 C 
BRANCH  24  26
ATOM     26  C   UNL     1      -4.988  12.645  22.289  0.00  0.00    +0.000 C 
ATOM     27  N   UNL     1      -6.121  12.574  22.084  0.00  0.00    +0.000 NA
ENDBRANCH  24  26
ENDBRANCH   4  21
TORSDOF 5
ENDMDL
MODEL 3
REMARK VINA RESULT:      -6.6      3.083      4.473
REMARK  Name = 
REMARK  6 active torsions:
REMARK  status: ('A' for Active; 'I' for Inactive)
REMARK    1  A    between atoms: C_1  and  O_2
REMARK    2  A    between atoms: O_2  and  C_3
REMARK    3  A    between atoms: N_6  and  C_7
REMARK    4  A    between atoms: C_11  and  N_12
REMARK    5  A    between atoms: N_15  and  C_16
REMARK    6  A    between atoms: N_19  and  C_20
REMARK                            x       y       z     vdW  Elec       q    Type
REMARK                         _______ _______ _______ _____ _____    ______ ____
ROOT
ATOM      1  N   UNL     1       0.898   9.989  20.892  0.00  0.00    +0.000 N 
ATOM      2  C   UNL     1       0.579   9.443  22.219  0.00  0.00    +0.000 C 
ATOM      3  C   UNL     1      -0.692  10.133  22.735  0.00  0.00    +0.000 C 
ATOM      4  N   UNL     1      -0.916  11.341  21.930  0.00  0.00    +0.000 NA
ATOM      5  S   UNL     1      -0.208  11.165  20.397  0.00  0.00    +0.000 S 
ATOM      6  O   UNL     1      -1.175  10.558  19.517  0.00  0.00    +0.000 OA
ATOM      7  O   UNL     1       0.469  12.393  20.063  0.00  0.00    +0.000 OA
ENDROOT
BRANCH   1  12
ATOM      8  C   UNL     1       2.370   6.940  19.358  0.00  0.00    +0.000 A 
ATOM      9  C   UNL     1       2.532   7.393  18.034  0.00  0.00    +0.000 A 
ATOM     10  C   UNL     1       2.172   8.685  17.640  0.00  0.00    +0.000 A 
ATOM     11  C   UNL     1       1.618   9.559  18.564  0.00  0.00    +0.000 A 
ATOM     12  C   UNL     1       1.392   9.121  19.868  0.00  0.00    +0.000 A 
ATOM     13  C   UNL     1       1.777   7.834  20.252  0.00  0.00    +0.000 A 
BRANCH   8  17
ATOM     14  C   UNL     1       2.683   3.284  19.561  0.00  0.00    +0.000 C 
ATOM     15  C   UNL     1       4.003   3.795  18.998  0.00  0.00    +0.000 C 
ATOM     16  C   UNL     1       4.153   5.169  19.639  0.00  0.00    +0.000 C 
ATOM     17  N   UNL     1       2.782   5.675  19.728  0.00  0.00    +0.000 N 
ATOM     18  C   UNL     1       1.826   4.561  19.650  0.00  0.00    +0.000 C 
BRANCH  14  20
ATOM     19  C   UNL     1       1.822   2.787  21.721  0.00  0.00    +0.000 C 
ATOM     20  O   UNL     1       2.931   2.679  20.836  0.00  0.00    +0.000 OA
ENDBRANCH  14  20
ENDBRANCH   8  17
ENDBRANCH   1  12
BRANCH   4  21
ATOM     21  C   UNL     1      -2.208  12.083  22.025  0.00  0.00    +0.000 C 
ATOM     22  C   UNL     1      -2.189  13.411  21.269  0.00  0.00    +0.000 C 
ATOM     23  C   UNL     1      -1.851  14.472  22.309  0.00  0.00    +0.000 C 
ATOM     24  N   UNL     1      -2.340  13.935  23.593  0.00  0.00    +0.000 N 
ATOM     25  C   UNL     1      -2.667  12.491  23.435  0.00  0.00    +0.000 C 
BRANCH  24  26
ATOM     26  C   UNL     1      -2.655  14.668  24.671  0.00  0.00    +0.000 C 
ATOM     27  N   UNL     1      -2.920  15.299  25.599  0.00  0.00    +0.000 NA
ENDBRANCH  24  26
ENDBRANCH   4  21
TORSDOF 5
ENDMDL
MODEL 4
REMARK VINA RESULT:      -6.6      2.152      2.752
REMARK  Name = 
REMARK  6 active torsions:
REMARK  status: ('A' for Active; 'I' for Inactive)
REMARK    1  A    between atoms: C_1  and  O_2
REMARK    2  A    between atoms: O_2  and  C_3
REMARK    3  A    between atoms: N_6  and  C_7
REMARK    4  A    between atoms: C_11  and  N_12
REMARK    5  A    between atoms: N_15  and  C_16
REMARK    6  A    between atoms: N_19  and  C_20
REMARK                            x       y       z     vdW  Elec       q    Type
REMARK                         _______ _______ _______ _____ _____    ______ ____
ROOT
ATOM      1  N   UNL     1       1.700   8.636  19.921  0.00  0.00    +0.000 N 
ATOM      2  C   UNL     1       0.857   8.970  21.079  0.00  0.00    +0.000 C 
ATOM      3  C   UNL     1      -0.186  10.007  20.636  0.00  0.00    +0.000 C 
ATOM      4  N   UNL     1       0.255  10.584  19.359  0.00  0.00    +0.000 NA
ATOM      5  S   UNL     1       1.252   9.487  18.533  0.00  0.00    +0.000 S 
ATOM      6  O   UNL     1       0.420   8.643  17.714  0.00  0.00    +0.000 OA
ATOM      7  O   UNL     1       2.378  10.210  17.995  0.00  0.00    +0.000 OA
ENDROOT
BRANCH   1  12
ATOM      8  C   UNL     1       3.408   5.753  18.313  0.00  0.00    +0.000 A 
ATOM      9  C   UNL     1       2.894   4.703  19.098  0.00  0.00    +0.000 A 
ATOM     10  C   UNL     1       1.990   4.925  20.141  0.00  0.00    +0.000 A 
ATOM     11  C   UNL     1       1.589   6.219  20.441  0.00  0.00    +0.000 A 
ATOM     12  C   UNL     1       2.125   7.285  19.720  0.00  0.00    +0.000 A 
ATOM     13  C   UNL     1       3.011   7.044  18.667  0.00  0.00    +0.000 A 
BRANCH   8  17
ATOM     14  C   UNL     1       6.418   5.571  16.212  0.00  0.00    +0.000 C 
ATOM     15  C   UNL     1       6.055   4.133  16.565  0.00  0.00    +0.000 C 
ATOM     16  C   UNL     1       4.538   4.173  16.694  0.00  0.00    +0.000 C 
ATOM     17  N   UNL     1       4.260   5.495  17.257  0.00  0.00    +0.000 N 
ATOM     18  C   UNL     1       5.399   6.394  17.022  0.00  0.00    +0.000 C 
BRANCH  14  20
ATOM     19  C   UNL     1       7.062   4.810  14.054  0.00  0.00    +0.000 C 
ATOM     20  O   UNL     1       6.286   5.743  14.796  0.00  0.00    +0.000 OA
ENDBRANCH  14  20
ENDBRANCH   8  17
ENDBRANCH   1  12
BRANCH   4  21
ATOM     21  C   UNL     1      -0.673  11.432  18.555  0.00  0.00    +0.000 C 
ATOM     22  C   UNL     1      -0.415  12.928  18.733  0.00  0.00    +0.000 C 
ATOM     23  C   UNL     1      -1.400  13.391  19.799  0.00  0.00    +0.000 C 
ATOM     24  N   UNL     1      -2.547  12.468  19.705  0.00  0.00    +0.000 N 
ATOM     25  C   UNL     1      -2.173  11.298  18.862  0.00  0.00    +0.000 C 
BRANCH  24  26
ATOM     26  C   UNL     1      -3.794  12.736  20.116  0.00  0.00    +0.000 C 
ATOM     27  N   UNL     1      -4.870  12.961  20.467  0.00  0.00    +0.000 NA
ENDBRANCH  24  26
ENDBRANCH   4  21
TORSDOF 5
ENDMDL
MODEL 5
REMARK VINA RESULT:      -6.5      1.052      1.354
REMARK  Name = 
REMARK  6 active torsions:
REMARK  status: ('A' for Active; 'I' for Inactive)
REMARK    1  A    between atoms: C_1  and  O_2
REMARK    2  A    between atoms: O_2  and  C_3
REMARK    3  A    between atoms: N_6  and  C_7
REMARK    4  A    between atoms: C_11  and  N_12
REMARK    5  A    between atoms: N_15  and  C_16
REMARK    6  A    between atoms: N_19  and  C_20
REMARK                            x       y       z     vdW  Elec       q    Type
REMARK                         _______ _______ _______ _____ _____    ______ ____
ROOT
ATOM      1  N   UNL     1       1.073   8.316  19.766  0.00  0.00    +0.000 N 
ATOM      2  C   UNL     1       1.353   9.326  18.735  0.00  0.00    +0.000 C 
ATOM      3  C   UNL     1       1.122  10.718  19.343  0.00  0.00    +0.000 C 
ATOM      4  N   UNL     1       0.343  10.553  20.578  0.00  0.00    +0.000 NA
ATOM      5  S   UNL     1       0.597   9.008  21.231  0.00  0.00    +0.000 S 
ATOM      6  O   UNL     1       1.736   9.068  22.113  0.00  0.00    +0.000 OA
ATOM      7  O   UNL     1      -0.674   8.477  21.656  0.00  0.00    +0.000 OA
ENDROOT
BRANCH   1  12
ATOM      8  C   UNL     1       3.768   5.909  18.895  0.00  0.00    +0.000 A 
ATOM      9  C   UNL     1       3.466   4.874  19.802  0.00  0.00    +0.000 A 
ATOM     10  C   UNL     1       2.388   4.951  20.688  0.00  0.00    +0.000 A 
ATOM     11  C   UNL     1       1.588   6.085  20.704  0.00  0.00    +0.000 A 
ATOM     12  C   UNL     1       1.897   7.151  19.860  0.00  0.00    +0.000 A 
ATOM     13  C   UNL     1       2.965   7.049  18.965  0.00  0.00    +0.000 A 
BRANCH   8  17
ATOM     14  C   UNL     1       5.987   4.594  16.278  0.00  0.00    +0.000 C 
ATOM     15  C   UNL     1       5.347   5.852  15.703  0.00  0.00    +0.000 C 
ATOM     16  C   UNL     1       5.130   6.730  16.929  0.00  0.00    +0.000 C 
ATOM     17  N   UNL     1       4.810   5.782  17.997  0.00  0.00    +0.000 N 
ATOM     18  C   UNL     1       5.282   4.437  17.638  0.00  0.00    +0.000 C 
BRANCH  14  20
ATOM     19  C   UNL     1       7.902   4.473  17.681  0.00  0.00    +0.000 C 
ATOM     20  O   UNL     1       7.398   4.808  16.393  0.00  0.00    +0.000 OA
ENDBRANCH  14  20
ENDBRANCH   8  17
ENDBRANCH   1  12
BRANCH   4  21
ATOM     21  C   UNL     1       0.179  11.697  21.524  0.00  0.00    +0.000 C 
ATOM     22  C   UNL     1      -1.276  11.928  21.930  0.00  0.00    +0.000 C 
ATOM     23  C   UNL     1      -1.795  13.016  20.998  0.00  0.00    +0.000 C 
ATOM     24  N   UNL     1      -0.611  13.810  20.621  0.00  0.00    +0.000 N 
ATOM     25  C   UNL     1       0.624  13.079  21.019  0.00  0.00    +0.000 C 
BRANCH  24  26
ATOM     26  C   UNL     1      -0.633  15.081  20.194  0.00  0.00    +0.000 C 
ATOM     27  N   UNL     1      -0.649  16.176  19.833  0.00  0.00    +0.000 NA
ENDBRANCH  24  26
ENDBRANCH   4  21
TORSDOF 5
ENDMDL
MODEL 6
REMARK VINA RESULT:      -6.4      2.105      2.784
REMARK  Name = 
REMARK  6 active torsions:
REMARK  status: ('A' for Active; 'I' for Inactive)
REMARK    1  A    between atoms: C_1  and  O_2
REMARK    2  A    between atoms: O_2  and  C_3
REMARK    3  A    between atoms: N_6  and  C_7
REMARK    4  A    between atoms: C_11  and  N_12
REMARK    5  A    between atoms: N_15  and  C_16
REMARK    6  A    between atoms: N_19  and  C_20
REMARK                            x       y       z     vdW  Elec       q    Type
REMARK                         _______ _______ _______ _____ _____    ______ ____
ROOT
ATOM      1  N   UNL     1       1.649   8.554  20.015  0.00  0.00    +0.000 N 
ATOM      2  C   UNL     1       0.721   8.818  21.124  0.00  0.00    +0.000 C 
ATOM      3  C   UNL     1      -0.314   9.853  20.656  0.00  0.00    +0.000 C 
ATOM      4  N   UNL     1       0.200  10.496  19.439  0.00  0.00    +0.000 NA
ATOM      5  S   UNL     1       1.278   9.459  18.638  0.00  0.00    +0.000 S 
ATOM      6  O   UNL     1       0.524   8.635  17.726  0.00  0.00    +0.000 OA
ATOM      7  O   UNL     1       2.420  10.228  18.211  0.00  0.00    +0.000 OA
ENDROOT
BRANCH   1  12
ATOM      8  C   UNL     1       3.697   5.816  18.559  0.00  0.00    +0.000 A 
ATOM      9  C   UNL     1       3.028   4.702  19.104  0.00  0.00    +0.000 A 
ATOM     10  C   UNL     1       1.912   4.836  19.935  0.00  0.00    +0.000 A 
ATOM     11  C   UNL     1       1.443   6.101  20.261  0.00  0.00    +0.000 A 
ATOM     12  C   UNL     1       2.119   7.223  19.785  0.00  0.00    +0.000 A 
ATOM     13  C   UNL     1       3.220   7.072  18.938  0.00  0.00    +0.000 A 
BRANCH   8  17
ATOM     14  C   UNL     1       6.023   4.363  16.113  0.00  0.00    +0.000 C 
ATOM     15  C   UNL     1       5.363   5.550  15.422  0.00  0.00    +0.000 C 
ATOM     16  C   UNL     1       5.087   6.517  16.567  0.00  0.00    +0.000 C 
ATOM     17  N   UNL     1       4.765   5.648  17.701  0.00  0.00    +0.000 N 
ATOM     18  C   UNL     1       5.286   4.294  17.464  0.00  0.00    +0.000 C 
BRANCH  14  20
ATOM     19  C   UNL     1       7.890   4.472  17.581  0.00  0.00    +0.000 C 
ATOM     20  O   UNL     1       7.424   4.630  16.246  0.00  0.00    +0.000 OA
ENDBRANCH  14  20
ENDBRANCH   8  17
ENDBRANCH   1  12
BRANCH   4  21
ATOM     21  C   UNL     1      -0.690  11.361  18.610  0.00  0.00    +0.000 C 
ATOM     22  C   UNL     1      -0.384  12.850  18.767  0.00  0.00    +0.000 C 
ATOM     23  C   UNL     1      -1.365  13.364  19.814  0.00  0.00    +0.000 C 
ATOM     24  N   UNL     1      -2.540  12.478  19.722  0.00  0.00    +0.000 N 
ATOM     25  C   UNL     1      -2.197  11.282  18.903  0.00  0.00    +0.000 C 
BRANCH  24  26
ATOM     26  C   UNL     1      -3.782  12.794  20.114  0.00  0.00    +0.000 C 
ATOM     27  N   UNL     1      -4.853  13.065  20.446  0.00  0.00    +0.000 NA
ENDBRANCH  24  26
ENDBRANCH   4  21
TORSDOF 5
ENDMDL
MODEL 7
REMARK VINA RESULT:      -6.4      3.154      4.285
REMARK  Name = 
REMARK  6 active torsions:
REMARK  status: ('A' for Active; 'I' for Inactive)
REMARK    1  A    between atoms: C_1  and  O_2
REMARK    2  A    between atoms: O_2  and  C_3
REMARK    3  A    between atoms: N_6  and  C_7
REMARK    4  A    between atoms: C_11  and  N_12
REMARK    5  A    between atoms: N_15  and  C_16
REMARK    6  A    between atoms: N_19  and  C_20
REMARK                            x       y       z     vdW  Elec       q    Type
REMARK                         _______ _______ _______ _____ _____    ______ ____
ROOT
ATOM      1  N   UNL     1       1.235   9.586  20.867  0.00  0.00    +0.000 N 
ATOM      2  C   UNL     1       0.872   9.091  22.204  0.00  0.00    +0.000 C 
ATOM      3  C   UNL     1      -0.322   9.909  22.717  0.00  0.00    +0.000 C 
ATOM      4  N   UNL     1      -0.432  11.123  21.896  0.00  0.00    +0.000 NA
ATOM      5  S   UNL     1       0.245  10.858  20.363  0.00  0.00    +0.000 S 
ATOM      6  O   UNL     1      -0.782  10.338  19.496  0.00  0.00    +0.000 OA
ATOM      7  O   UNL     1       1.037  12.009  20.009  0.00  0.00    +0.000 OA
ENDROOT
BRANCH   1  12
ATOM      8  C   UNL     1       2.105   6.324  19.313  0.00  0.00    +0.000 A 
ATOM      9  C   UNL     1       2.554   6.772  18.054  0.00  0.00    +0.000 A 
ATOM     10  C   UNL     1       2.581   8.127  17.712  0.00  0.00    +0.000 A 
ATOM     11  C   UNL     1       2.139   9.077  18.621  0.00  0.00    +0.000 A 
ATOM     12  C   UNL     1       1.634   8.661  19.852  0.00  0.00    +0.000 A 
ATOM     13  C   UNL     1       1.634   7.305  20.188  0.00  0.00    +0.000 A 
BRANCH   8  17
ATOM     14  C   UNL     1       3.255   3.039  20.491  0.00  0.00    +0.000 C 
ATOM     15  C   UNL     1       2.159   3.478  21.454  0.00  0.00    +0.000 C 
ATOM     16  C   UNL     1       1.235   4.316  20.579  0.00  0.00    +0.000 C 
ATOM     17  N   UNL     1       2.137   4.983  19.639  0.00  0.00    +0.000 N 
ATOM     18  C   UNL     1       3.416   4.261  19.567  0.00  0.00    +0.000 C 
BRANCH  14  20
ATOM     19  C   UNL     1       3.275   1.811  18.456  0.00  0.00    +0.000 C 
ATOM     20  O   UNL     1       2.817   1.863  19.802  0.00  0.00    +0.000 OA
ENDBRANCH  14  20
ENDBRANCH   8  17
ENDBRANCH   1  12
BRANCH   4  21
ATOM     21  C   UNL     1      -1.645  11.988  21.989  0.00  0.00    +0.000 C 
ATOM     22  C   UNL     1      -1.501  13.298  21.214  0.00  0.00    +0.000 C 
ATOM     23  C   UNL     1      -1.054  14.334  22.238  0.00  0.00    +0.000 C 
ATOM     24  N   UNL     1      -1.584  13.865  23.532  0.00  0.00    +0.000 N 
ATOM     25  C   UNL     1      -2.052  12.457  23.395  0.00  0.00    +0.000 C 
BRANCH  24  26
ATOM     26  C   UNL     1      -1.819  14.639  24.601  0.00  0.00    +0.000 C 
ATOM     27  N   UNL     1      -2.015  15.307  25.520  0.00  0.00    +0.000 NA
ENDBRANCH  24  26
ENDBRANCH   4  21
TORSDOF 5
ENDMDL
MODEL 8
REMARK VINA RESULT:      -6.4      1.944      2.466
REMARK  Name = 
REMARK  6 active torsions:
REMARK  status: ('A' for Active; 'I' for Inactive)
REMARK    1  A    between atoms: C_1  and  O_2
REMARK    2  A    between atoms: O_2  and  C_3
REMARK    3  A    between atoms: N_6  and  C_7
REMARK    4  A    between atoms: C_11  and  N_12
REMARK    5  A    between atoms: N_15  and  C_16
REMARK    6  A    between atoms: N_19  and  C_20
REMARK                            x       y       z     vdW  Elec       q    Type
REMARK                         _______ _______ _______ _____ _____    ______ ____
ROOT
ATOM      1  N   UNL     1       1.835   8.201  19.953  0.00  0.00    +0.000 N 
ATOM      2  C   UNL     1       0.945   8.527  21.078  0.00  0.00    +0.000 C 
ATOM      3  C   UNL     1      -0.069   9.580  20.605  0.00  0.00    +0.000 C 
ATOM      4  N   UNL     1       0.433  10.170  19.357  0.00  0.00    +0.000 NA
ATOM      5  S   UNL     1       1.456   9.076  18.560  0.00  0.00    +0.000 S 
ATOM      6  O   UNL     1       0.653   8.252  17.692  0.00  0.00    +0.000 OA
ATOM      7  O   UNL     1       2.610   9.796  18.082  0.00  0.00    +0.000 OA
ENDROOT
BRANCH   1  12
ATOM      8  C   UNL     1       3.952   5.380  18.783  0.00  0.00    +0.000 A 
ATOM      9  C   UNL     1       3.122   4.297  19.132  0.00  0.00    +0.000 A 
ATOM     10  C   UNL     1       1.875   4.479  19.739  0.00  0.00    +0.000 A 
ATOM     11  C   UNL     1       1.432   5.761  20.032  0.00  0.00    +0.000 A 
ATOM     12  C   UNL     1       2.257   6.850  19.751  0.00  0.00    +0.000 A 
ATOM     13  C   UNL     1       3.490   6.652  19.125  0.00  0.00    +0.000 A 
BRANCH   8  17
ATOM     14  C   UNL     1       6.937   5.880  16.698  0.00  0.00    +0.000 C 
ATOM     15  C   UNL     1       7.432   5.783  18.136  0.00  0.00    +0.000 C 
ATOM     16  C   UNL     1       6.424   4.848  18.794  0.00  0.00    +0.000 C 
ATOM     17  N   UNL     1       5.156   5.169  18.138  0.00  0.00    +0.000 N 
ATOM     18  C   UNL     1       5.405   5.840  16.855  0.00  0.00    +0.000 C 
BRANCH  14  20
ATOM     19  C   UNL     1       6.617   4.388  14.875  0.00  0.00    +0.000 C 
ATOM     20  O   UNL     1       7.459   4.771  15.957  0.00  0.00    +0.000 OA
ENDBRANCH  14  20
ENDBRANCH   8  17
ENDBRANCH   1  12
BRANCH   4  21
ATOM     21  C   UNL     1      -0.451  11.039  18.525  0.00  0.00    +0.000 C 
ATOM     22  C   UNL     1      -0.089  12.521  18.622  0.00  0.00    +0.000 C 
ATOM     23  C   UNL     1      -1.019  13.104  19.679  0.00  0.00    +0.000 C 
ATOM     24  N   UNL     1      -2.227  12.258  19.651  0.00  0.00    +0.000 N 
ATOM     25  C   UNL     1      -1.951  11.024  18.864  0.00  0.00    +0.000 C 
BRANCH  24  26
ATOM     26  C   UNL     1      -3.445  12.631  20.069  0.00  0.00    +0.000 C 
ATOM     27  N   UNL     1      -4.490  12.956  20.433  0.00  0.00    +0.000 NA
ENDBRANCH  24  26
ENDBRANCH   4  21
TORSDOF 5
ENDMDL
MODEL 9
REMARK VINA RESULT:      -6.4      1.445      1.847
REMARK  Name = 
REMARK  6 active torsions:
REMARK  status: ('A' for Active; 'I' for Inactive)
REMARK    1  A    between atoms: C_1  and  O_2
REMARK    2  A    between atoms: O_2  and  C_3
REMARK    3  A    between atoms: N_6  and  C_7
REMARK    4  A    between atoms: C_11  and  N_12
REMARK    5  A    between atoms: N_15  and  C_16
REMARK    6  A    between atoms: N_19  and  C_20
REMARK                            x       y       z     vdW  Elec       q    Type
REMARK                         _______ _______ _______ _____ _____    ______ ____
ROOT
ATOM      1  N   UNL     1       0.925   8.281  20.021  0.00  0.00    +0.000 N 
ATOM      2  C   UNL     1       1.140   9.349  19.033  0.00  0.00    +0.000 C 
ATOM      3  C   UNL     1       0.892  10.701  19.719  0.00  0.00    +0.000 C 
ATOM      4  N   UNL     1       0.164  10.453  20.970  0.00  0.00    +0.000 NA
ATOM      5  S   UNL     1       0.484   8.885  21.535  0.00  0.00    +0.000 S 
ATOM      6  O   UNL     1       1.652   8.934  22.378  0.00  0.00    +0.000 OA
ATOM      7  O   UNL     1      -0.756   8.297  21.975  0.00  0.00    +0.000 OA
ENDROOT
BRANCH   1  12
ATOM      8  C   UNL     1       3.692   6.031  18.974  0.00  0.00    +0.000 A 
ATOM      9  C   UNL     1       3.420   4.920  19.797  0.00  0.00    +0.000 A 
ATOM     10  C   UNL     1       2.339   4.896  20.683  0.00  0.00    +0.000 A 
ATOM     11  C   UNL     1       1.506   6.000  20.785  0.00  0.00    +0.000 A 
ATOM     12  C   UNL     1       1.783   7.137  20.026  0.00  0.00    +0.000 A 
ATOM     13  C   UNL     1       2.855   7.137  19.129  0.00  0.00    +0.000 A 
BRANCH   8  17
ATOM     14  C   UNL     1       6.917   5.279  17.380  0.00  0.00    +0.000 C 
ATOM     15  C   UNL     1       5.847   4.638  16.504  0.00  0.00    +0.000 C 
ATOM     16  C   UNL     1       4.646   5.559  16.681  0.00  0.00    +0.000 C 
ATOM     17  N   UNL     1       4.738   6.004  18.072  0.00  0.00    +0.000 N 
ATOM     18  C   UNL     1       6.108   5.823  18.573  0.00  0.00    +0.000 C 
BRANCH  14  20
ATOM     19  C   UNL     1       7.726   7.514  17.360  0.00  0.00    +0.000 C 
ATOM     20  O   UNL     1       7.573   6.305  16.626  0.00  0.00    +0.000 OA
ENDBRANCH  14  20
ENDBRANCH   8  17
ENDBRANCH   1  12
BRANCH   4  21
ATOM     21  C   UNL     1       0.003  11.543  21.978  0.00  0.00    +0.000 C 
ATOM     22  C   UNL     1      -1.274  11.403  22.805  0.00  0.00    +0.000 C 
ATOM     23  C   UNL     1      -2.306  12.293  22.123  0.00  0.00    +0.000 C 
ATOM     24  N   UNL     1      -1.530  13.354  21.453  0.00  0.00    +0.000 N 
ATOM     25  C   UNL     1      -0.089  12.978  21.433  0.00  0.00    +0.000 C 
BRANCH  24  26
ATOM     26  C   UNL     1      -2.000  14.563  21.116  0.00  0.00    +0.000 C 
ATOM     27  N   UNL     1      -2.407  15.605  20.831  0.00  0.00    +0.000 NA
ENDBRANCH  24  26
ENDBRANCH   4  21
TORSDOF 5
ENDMDL
