MODEL 1
REMARK VINA RESULT:      -8.6      0.000      0.000
REMARK  Name = 
REMARK  10 active torsions:
REMARK  status: ('A' for Active; 'I' for Inactive)
REMARK    1  A    between atoms: C_1  and  C_2
REMARK    2  A    between atoms: C_2  and  O_3
REMARK    3  A    between atoms: O_3  and  C_4
REMARK    4  A    between atoms: C_11  and  N_12
REMARK    5  A    between atoms: C_15  and  C_16
REMARK    6  A    between atoms: C_19  and  O_20
REMARK    7  A    between atoms: O_20  and  C_21
REMARK    8  A    between atoms: N_23  and  C_24
REMARK    9  A    between atoms: C_24  and  C_25
REMARK   10  A    between atoms: C_29  and  C_30
REMARK                            x       y       z     vdW  Elec       q    Type
REMARK                         _______ _______ _______ _____ _____    ______ ____
ROOT
ATOM      1  C   UNL     1      -1.398  11.527  21.400  0.00  0.00    +0.000 C 
ATOM      2  O   UNL     1      -1.448  12.125  20.337  0.00  0.00    +0.000 OA
ATOM      3  N   UNL     1      -0.687  10.406  21.713  0.00  0.00    +0.000 N 
ATOM      4  C   UNL     1       0.220   9.772  20.862  0.00  0.00    +0.000 A 
ATOM      5  C   UNL     1       0.744   8.551  21.263  0.00  0.00    +0.000 A 
ATOM      6  C   UNL     1       1.578   7.843  20.390  0.00  0.00    +0.000 A 
ATOM      7  C   UNL     1       1.935   8.434  19.172  0.00  0.00    +0.000 A 
ATOM      8  C   UNL     1       1.419   9.707  18.895  0.00  0.00    +0.000 A 
ATOM      9  N   UNL     1       0.565  10.355  19.703  0.00  0.00    +0.000 NA
ATOM     10  N   UNL     1       2.726   7.761  18.215  0.00  0.00    +0.000 NA
ATOM     11  C   UNL     1       3.111   6.546  18.478  0.00  0.00    +0.000 C 
ATOM     12  C   UNL     1       2.772   5.793  19.784  0.00  0.00    +0.000 C 
ATOM     13  C   UNL     1       1.867   4.590  19.504  0.00  0.00    +0.000 C 
ATOM     14  N   UNL     1       2.141   6.631  20.813  0.00  0.00    +0.000 N 
ATOM     15  H   UNL     1      -0.851  10.033  22.633  0.00  0.00    +0.000 HD
ATOM     16  H   UNL     1       1.580   6.127  21.492  0.00  0.00    +0.000 HD
ENDROOT
BRANCH  11  17
ATOM     17  C   UNL     1       3.856   5.802  17.411  0.00  0.00    +0.000 A 
ATOM     18  C   UNL     1       4.730   6.447  16.529  0.00  0.00    +0.000 A 
ATOM     19  C   UNL     1       5.507   5.698  15.641  0.00  0.00    +0.000 A 
ATOM     20  C   UNL     1       5.410   4.304  15.627  0.00  0.00    +0.000 A 
ATOM     21  C   UNL     1       4.484   3.661  16.444  0.00  0.00    +0.000 A 
ATOM     22  C   UNL     1       3.714   4.408  17.340  0.00  0.00    +0.000 A 
BRANCH  20  23
ATOM     23  O   UNL     1       6.285   3.649  14.730  0.00  0.00    +0.000 OA
BRANCH  23  24
ATOM     24  C   UNL     1       6.847   4.251  13.607  0.00  0.00    +0.000 C 
ATOM     25  O   UNL     1       7.410   5.337  13.564  0.00  0.00    +0.000 OA
ATOM     26  N   UNL     1       6.738   3.486  12.477  0.00  0.00    +0.000 N 
ATOM     27  H   UNL     1       7.234   3.908  11.700  0.00  0.00    +0.000 HD
BRANCH  26  28
ATOM     28  C   UNL     1       5.517   2.783  12.114  0.00  0.00    +0.000 C 
BRANCH  28  29
ATOM     29  C   UNL     1       4.412   3.766  11.718  0.00  0.00    +0.000 C 
ATOM     30 CL   UNL     1       3.314   3.033  10.513  0.00  0.00    +0.000 Cl
ENDBRANCH  28  29
ENDBRANCH  26  28
ENDBRANCH  23  24
ENDBRANCH  20  23
ENDBRANCH  11  17
BRANCH   8  31
ATOM     31  N   UNL     1       1.833  10.424  17.763  0.00  0.00    +0.000 N 
ATOM     32  H   UNL     1       2.108  11.364  18.024  0.00  0.00    +0.000 HD
ATOM     33  H   UNL     1       2.545   9.876  17.292  0.00  0.00    +0.000 HD
ENDBRANCH   8  31
BRANCH   1  34
ATOM     34  O   UNL     1      -2.084  11.914  22.513  0.00  0.00    +0.000 OA
BRANCH  34  36
ATOM     35  C   UNL     1      -1.211  13.955  23.428  0.00  0.00    +0.000 C 
ATOM     36  C   UNL     1      -2.322  13.326  22.607  0.00  0.00    +0.000 C 
ENDBRANCH  34  36
ENDBRANCH   1  34
TORSDOF 8
ENDMDL
MODEL 2
REMARK VINA RESULT:      -8.5      0.882      1.237
REMARK  Name = 
REMARK  10 active torsions:
REMARK  status: ('A' for Active; 'I' for Inactive)
REMARK    1  A    between atoms: C_1  and  C_2
REMARK    2  A    between atoms: C_2  and  O_3
REMARK    3  A    between atoms: O_3  and  C_4
REMARK    4  A    between atoms: C_11  and  N_12
REMARK    5  A    between atoms: C_15  and  C_16
REMARK    6  A    between atoms: C_19  and  O_20
REMARK    7  A    between atoms: O_20  and  C_21
REMARK    8  A    between atoms: N_23  and  C_24
REMARK    9  A    between atoms: C_24  and  C_25
REMARK   10  A    between atoms: C_29  and  C_30
REMARK                            x       y       z     vdW  Elec       q    Type
REMARK                         _______ _______ _______ _____ _____    ______ ____
ROOT
ATOM      1  C   UNL     1      -1.725  12.178  20.646  0.00  0.00    +0.000 C 
ATOM      2  O   UNL     1      -1.617  12.669  19.534  0.00  0.00    +0.000 OA
ATOM      3  N   UNL     1      -1.095  11.083  21.158  0.00  0.00    +0.000 N 
ATOM      4  C   UNL     1      -0.100  10.355  20.503  0.00  0.00    +0.000 A 
ATOM      5  C   UNL     1       0.332   9.172  21.086  0.00  0.00    +0.000 A 
ATOM      6  C   UNL     1       1.255   8.370  20.406  0.00  0.00    +0.000 A 
ATOM      7  C   UNL     1       1.788   8.833  19.197  0.00  0.00    +0.000 A 
ATOM      8  C   UNL     1       1.349  10.079  18.731  0.00  0.00    +0.000 A 
ATOM      9  N   UNL     1       0.413  10.816  19.351  0.00  0.00    +0.000 NA
ATOM     10  N   UNL     1       2.680   8.058  18.424  0.00  0.00    +0.000 NA
ATOM     11  C   UNL     1       2.993   6.869  18.851  0.00  0.00    +0.000 C 
ATOM     12  C   UNL     1       2.462   6.253  20.166  0.00  0.00    +0.000 C 
ATOM     13  C   UNL     1       1.570   5.042  19.882  0.00  0.00    +0.000 C 
ATOM     14  N   UNL     1       1.723   7.197  21.015  0.00  0.00    +0.000 N 
ATOM     15  H   UNL     1      -1.390  10.805  22.079  0.00  0.00    +0.000 HD
ATOM     16  H   UNL     1       1.062   6.771  21.657  0.00  0.00    +0.000 HD
ENDROOT
BRANCH  11  17
ATOM     17  C   UNL     1       3.853   6.013  17.971  0.00  0.00    +0.000 A 
ATOM     18  C   UNL     1       3.534   4.679  17.693  0.00  0.00    +0.000 A 
ATOM     19  C   UNL     1       4.285   3.960  16.760  0.00  0.00    +0.000 A 
ATOM     20  C   UNL     1       5.360   4.567  16.106  0.00  0.00    +0.000 A 
ATOM     21  C   UNL     1       5.733   5.867  16.436  0.00  0.00    +0.000 A 
ATOM     22  C   UNL     1       4.977   6.591  17.362  0.00  0.00    +0.000 A 
BRANCH  20  23
ATOM     23  O   UNL     1       6.010   3.762  15.141  0.00  0.00    +0.000 OA
BRANCH  23  24
ATOM     24  C   UNL     1       6.650   4.262  14.011  0.00  0.00    +0.000 C 
ATOM     25  O   UNL     1       7.549   5.092  13.987  0.00  0.00    +0.000 OA
ATOM     26  N   UNL     1       6.189   3.711  12.845  0.00  0.00    +0.000 N 
ATOM     27  H   UNL     1       6.734   4.026  12.051  0.00  0.00    +0.000 HD
BRANCH  26  28
ATOM     28  C   UNL     1       4.775   3.506  12.574  0.00  0.00    +0.000 C 
BRANCH  28  29
ATOM     29  C   UNL     1       4.562   2.911  11.179  0.00  0.00    +0.000 C 
ATOM     30 CL   UNL     1       3.360   3.863  10.261  0.00  0.00    +0.000 Cl
ENDBRANCH  28  29
ENDBRANCH  26  28
ENDBRANCH  23  24
ENDBRANCH  20  23
ENDBRANCH  11  17
BRANCH   8  31
ATOM     31  N   UNL     1       1.930  10.676  17.603  0.00  0.00    +0.000 N 
ATOM     32  H   UNL     1       1.542  10.278  16.755  0.00  0.00    +0.000 HD
ATOM     33  H   UNL     1       1.830  11.681  17.697  0.00  0.00    +0.000 HD
ENDBRANCH   8  31
BRANCH   1  34
ATOM     34  O   UNL     1      -2.543  12.683  21.614  0.00  0.00    +0.000 OA
BRANCH  34  36
ATOM     35  C   UNL     1      -3.474  12.622  23.826  0.00  0.00    +0.000 C 
ATOM     36  C   UNL     1      -2.604  11.898  22.814  0.00  0.00    +0.000 C 
ENDBRANCH  34  36
ENDBRANCH   1  34
TORSDOF 8
ENDMDL
MODEL 3
REMARK VINA RESULT:      -8.4      1.074      1.129
REMARK  Name = 
REMARK  10 active torsions:
REMARK  status: ('A' for Active; 'I' for Inactive)
REMARK    1  A    between atoms: C_1  and  C_2
REMARK    2  A    between atoms: C_2  and  O_3
REMARK    3  A    between atoms: O_3  and  C_4
REMARK    4  A    between atoms: C_11  and  N_12
REMARK    5  A    between atoms: C_15  and  C_16
REMARK    6  A    between atoms: C_19  and  O_20
REMARK    7  A    between atoms: O_20  and  C_21
REMARK    8  A    between atoms: N_23  and  C_24
REMARK    9  A    between atoms: C_24  and  C_25
REMARK   10  A    between atoms: C_29  and  C_30
REMARK                            x       y       z     vdW  Elec       q    Type
REMARK                         _______ _______ _______ _____ _____    ______ ____
ROOT
ATOM      1  C   UNL     1      -1.831  12.267  20.971  0.00  0.00    +0.000 C 
ATOM      2  O   UNL     1      -1.783  12.792  19.869  0.00  0.00    +0.000 OA
ATOM      3  N   UNL     1      -1.165  11.165  21.419  0.00  0.00    +0.000 N 
ATOM      4  C   UNL     1      -0.197  10.468  20.694  0.00  0.00    +0.000 A 
ATOM      5  C   UNL     1       0.275   9.273  21.220  0.00  0.00    +0.000 A 
ATOM      6  C   UNL     1       1.170   8.501  20.472  0.00  0.00    +0.000 A 
ATOM      7  C   UNL     1       1.639   9.004  19.252  0.00  0.00    +0.000 A 
ATOM      8  C   UNL     1       1.165  10.259  18.846  0.00  0.00    +0.000 A 
ATOM      9  N   UNL     1       0.254  10.968  19.532  0.00  0.00    +0.000 NA
ATOM     10  N   UNL     1       2.499   8.262  18.414  0.00  0.00    +0.000 NA
ATOM     11  C   UNL     1       2.844   7.065  18.790  0.00  0.00    +0.000 C 
ATOM     12  C   UNL     1       2.385   6.405  20.110  0.00  0.00    +0.000 C 
ATOM     13  C   UNL     1       1.491   5.193  19.835  0.00  0.00    +0.000 C 
ATOM     14  N   UNL     1       1.679   7.316  21.023  0.00  0.00    +0.000 N 
ATOM     15  H   UNL     1      -1.412  10.857  22.344  0.00  0.00    +0.000 HD
ATOM     16  H   UNL     1       1.055   6.864  21.683  0.00  0.00    +0.000 HD
ENDROOT
BRANCH  11  17
ATOM     17  C   UNL     1       3.667   6.244  17.844  0.00  0.00    +0.000 A 
ATOM     18  C   UNL     1       4.815   6.752  17.227  0.00  0.00    +0.000 A 
ATOM     19  C   UNL     1       5.629   5.912  16.462  0.00  0.00    +0.000 A 
ATOM     20  C   UNL     1       5.296   4.564  16.306  0.00  0.00    +0.000 A 
ATOM     21  C   UNL     1       4.113   4.070  16.850  0.00  0.00    +0.000 A 
ATOM     22  C   UNL     1       3.304   4.907  17.623  0.00  0.00    +0.000 A 
BRANCH  20  23
ATOM     23  O   UNL     1       6.221   3.797  15.560  0.00  0.00    +0.000 OA
BRANCH  23  24
ATOM     24  C   UNL     1       6.886   4.261  14.428  0.00  0.00    +0.000 C 
ATOM     25  O   UNL     1       7.741   5.135  14.388  0.00  0.00    +0.000 OA
ATOM     26  N   UNL     1       6.506   3.616  13.281  0.00  0.00    +0.000 N 
ATOM     27  H   UNL     1       7.070   3.910  12.492  0.00  0.00    +0.000 HD
BRANCH  26  28
ATOM     28  C   UNL     1       5.117   3.319  12.965  0.00  0.00    +0.000 C 
BRANCH  28  29
ATOM     29  C   UNL     1       4.966   2.887  11.504  0.00  0.00    +0.000 C 
ATOM     30 CL   UNL     1       6.112   1.573  11.110  0.00  0.00    +0.000 Cl
ENDBRANCH  28  29
ENDBRANCH  26  28
ENDBRANCH  23  24
ENDBRANCH  20  23
ENDBRANCH  11  17
BRANCH   8  31
ATOM     31  N   UNL     1       1.684  10.895  17.708  0.00  0.00    +0.000 N 
ATOM     32  H   UNL     1       0.990  11.513  17.304  0.00  0.00    +0.000 HD
ATOM     33  H   UNL     1       2.560  11.334  17.971  0.00  0.00    +0.000 HD
ENDBRANCH   8  31
BRANCH   1  34
ATOM     34  O   UNL     1      -2.604  12.735  21.992  0.00  0.00    +0.000 OA
BRANCH  34  36
ATOM     35  C   UNL     1      -3.582  12.445  24.165  0.00  0.00    +0.000 C 
ATOM     36  C   UNL     1      -2.481  12.001  23.220  0.00  0.00    +0.000 C 
ENDBRANCH  34  36
ENDBRANCH   1  34
TORSDOF 8
ENDMDL
MODEL 4
REMARK VINA RESULT:      -8.3      3.736      5.051
REMARK  Name = 
REMARK  10 active torsions:
REMARK  status: ('A' for Active; 'I' for Inactive)
REMARK    1  A    between atoms: C_1  and  C_2
REMARK    2  A    between atoms: C_2  and  O_3
REMARK    3  A    between atoms: O_3  and  C_4
REMARK    4  A    between atoms: C_11  and  N_12
REMARK    5  A    between atoms: C_15  and  C_16
REMARK    6  A    between atoms: C_19  and  O_20
REMARK    7  A    between atoms: O_20  and  C_21
REMARK    8  A    between atoms: N_23  and  C_24
REMARK    9  A    between atoms: C_24  and  C_25
REMARK   10  A    between atoms: C_29  and  C_30
REMARK                            x       y       z     vdW  Elec       q    Type
REMARK                         _______ _______ _______ _____ _____    ______ ____
ROOT
ATOM      1  C   UNL     1      -5.311  12.781  18.657  0.00  0.00    +0.000 C 
ATOM      2  O   UNL     1      -5.635  12.118  17.685  0.00  0.00    +0.000 OA
ATOM      3  N   UNL     1      -4.154  12.727  19.377  0.00  0.00    +0.000 N 
ATOM      4  C   UNL     1      -3.050  11.934  19.057  0.00  0.00    +0.000 A 
ATOM      5  C   UNL     1      -2.010  11.866  19.973  0.00  0.00    +0.000 A 
ATOM      6  C   UNL     1      -0.935  11.005  19.727  0.00  0.00    +0.000 A 
ATOM      7  C   UNL     1      -0.896  10.305  18.515  0.00  0.00    +0.000 A 
ATOM      8  C   UNL     1      -1.955  10.504  17.619  0.00  0.00    +0.000 A 
ATOM      9  N   UNL     1      -3.018  11.279  17.885  0.00  0.00    +0.000 NA
ATOM     10  N   UNL     1       0.124   9.375  18.218  0.00  0.00    +0.000 NA
ATOM     11  C   UNL     1       1.040   9.156  19.116  0.00  0.00    +0.000 C 
ATOM     12  C   UNL     1       1.094   9.864  20.489  0.00  0.00    +0.000 C 
ATOM     13  C   UNL     1       0.872   8.867  21.629  0.00  0.00    +0.000 C 
ATOM     14  N   UNL     1       0.135  10.969  20.632  0.00  0.00    +0.000 N 
ATOM     15  H   UNL     1      -4.125  13.314  20.193  0.00  0.00    +0.000 HD
ATOM     16  H   UNL     1      -0.122  11.193  21.588  0.00  0.00    +0.000 HD
ENDROOT
BRANCH  11  17
ATOM     17  C   UNL     1       2.054   8.089  18.836  0.00  0.00    +0.000 A 
ATOM     18  C   UNL     1       2.105   6.902  19.574  0.00  0.00    +0.000 A 
ATOM     19  C   UNL     1       2.975   5.876  19.191  0.00  0.00    +0.000 A 
ATOM     20  C   UNL     1       3.799   6.035  18.075  0.00  0.00    +0.000 A 
ATOM     21  C   UNL     1       3.812   7.244  17.384  0.00  0.00    +0.000 A 
ATOM     22  C   UNL     1       2.936   8.266  17.759  0.00  0.00    +0.000 A 
BRANCH  20  23
ATOM     23  O   UNL     1       4.594   4.911  17.749  0.00  0.00    +0.000 OA
BRANCH  23  24
ATOM     24  C   UNL     1       5.546   4.356  18.599  0.00  0.00    +0.000 C 
ATOM     25  O   UNL     1       5.345   3.863  19.700  0.00  0.00    +0.000 OA
ATOM     26  N   UNL     1       6.811   4.380  18.075  0.00  0.00    +0.000 N 
ATOM     27  H   UNL     1       7.464   3.889  18.674  0.00  0.00    +0.000 HD
BRANCH  26  28
ATOM     28  C   UNL     1       7.361   5.541  17.392  0.00  0.00    +0.000 C 
BRANCH  28  29
ATOM     29  C   UNL     1       7.732   6.642  18.390  0.00  0.00    +0.000 C 
ATOM     30 CL   UNL     1       7.811   8.232  17.577  0.00  0.00    +0.000 Cl
ENDBRANCH  28  29
ENDBRANCH  26  28
ENDBRANCH  23  24
ENDBRANCH  20  23
ENDBRANCH  11  17
BRANCH   8  31
ATOM     31  N   UNL     1      -1.927   9.949  16.331  0.00  0.00    +0.000 N 
ATOM     32  H   UNL     1      -2.546  10.461  15.714  0.00  0.00    +0.000 HD
ATOM     33  H   UNL     1      -0.957   9.901  16.035  0.00  0.00    +0.000 HD
ENDBRANCH   8  31
BRANCH   1  34
ATOM     34  O   UNL     1      -6.104  13.744  19.208  0.00  0.00    +0.000 OA
BRANCH  34  36
ATOM     35  C   UNL     1      -7.380  12.464  20.788  0.00  0.00    +0.000 C 
ATOM     36  C   UNL     1      -7.434  13.311  19.529  0.00  0.00    +0.000 C 
ENDBRANCH  34  36
ENDBRANCH   1  34
TORSDOF 8
ENDMDL
MODEL 5
REMARK VINA RESULT:      -8.1      3.979     11.234
REMARK  Name = 
REMARK  10 active torsions:
REMARK  status: ('A' for Active; 'I' for Inactive)
REMARK    1  A    between atoms: C_1  and  C_2
REMARK    2  A    between atoms: C_2  and  O_3
REMARK    3  A    between atoms: O_3  and  C_4
REMARK    4  A    between atoms: C_11  and  N_12
REMARK    5  A    between atoms: C_15  and  C_16
REMARK    6  A    between atoms: C_19  and  O_20
REMARK    7  A    between atoms: O_20  and  C_21
REMARK    8  A    between atoms: N_23  and  C_24
REMARK    9  A    between atoms: C_24  and  C_25
REMARK   10  A    between atoms: C_29  and  C_30
REMARK                            x       y       z     vdW  Elec       q    Type
REMARK                         _______ _______ _______ _____ _____    ______ ____
ROOT
ATOM      1  C   UNL     1       4.646   3.665  16.966  0.00  0.00    +0.000 C 
ATOM      2  O   UNL     1       4.260   2.902  17.838  0.00  0.00    +0.000 OA
ATOM      3  N   UNL     1       4.404   5.001  16.836  0.00  0.00    +0.000 N 
ATOM      4  C   UNL     1       3.721   5.783  17.770  0.00  0.00    +0.000 A 
ATOM      5  C   UNL     1       3.415   7.092  17.422  0.00  0.00    +0.000 A 
ATOM      6  C   UNL     1       2.646   7.870  18.294  0.00  0.00    +0.000 A 
ATOM      7  C   UNL     1       2.287   7.334  19.537  0.00  0.00    +0.000 A 
ATOM      8  C   UNL     1       2.715   6.032  19.829  0.00  0.00    +0.000 A 
ATOM      9  N   UNL     1       3.395   5.263  18.964  0.00  0.00    +0.000 NA
ATOM     10  N   UNL     1       1.466   8.035  20.448  0.00  0.00    +0.000 NA
ATOM     11  C   UNL     1       1.019   9.206  20.099  0.00  0.00    +0.000 C 
ATOM     12  C   UNL     1       1.344   9.893  18.753  0.00  0.00    +0.000 C 
ATOM     13  C   UNL     1       0.084  10.044  17.897  0.00  0.00    +0.000 C 
ATOM     14  N   UNL     1       2.374   9.204  17.962  0.00  0.00    +0.000 N 
ATOM     15  H   UNL     1       4.757   5.424  15.995  0.00  0.00    +0.000 HD
ATOM     16  H   UNL     1       2.340   9.385  16.963  0.00  0.00    +0.000 HD
ENDROOT
BRANCH  11  17
ATOM     17  C   UNL     1       0.061   9.893  21.025  0.00  0.00    +0.000 A 
ATOM     18  C   UNL     1      -0.249   9.378  22.288  0.00  0.00    +0.000 A 
ATOM     19  C   UNL     1      -1.038  10.119  23.172  0.00  0.00    +0.000 A 
ATOM     20  C   UNL     1      -1.525  11.373  22.795  0.00  0.00    +0.000 A 
ATOM     21  C   UNL     1      -1.289  11.857  21.511  0.00  0.00    +0.000 A 
ATOM     22  C   UNL     1      -0.491  11.121  20.630  0.00  0.00    +0.000 A 
BRANCH  20  23
ATOM     23  O   UNL     1      -2.263  12.057  23.790  0.00  0.00    +0.000 OA
BRANCH  23  24
ATOM     24  C   UNL     1      -3.466  12.716  23.555  0.00  0.00    +0.000 C 
ATOM     25  O   UNL     1      -4.481  12.235  23.071  0.00  0.00    +0.000 OA
ATOM     26  N   UNL     1      -3.444  14.028  23.947  0.00  0.00    +0.000 N 
ATOM     27  H   UNL     1      -4.358  14.454  23.847  0.00  0.00    +0.000 HD
BRANCH  26  28
ATOM     28  C   UNL     1      -2.322  14.914  23.677  0.00  0.00    +0.000 C 
BRANCH  28  29
ATOM     29  C   UNL     1      -2.391  15.472  22.252  0.00  0.00    +0.000 C 
ATOM     30 CL   UNL     1      -3.478  16.889  22.180  0.00  0.00    +0.000 Cl
ENDBRANCH  28  29
ENDBRANCH  26  28
ENDBRANCH  23  24
ENDBRANCH  20  23
ENDBRANCH  11  17
BRANCH   8  31
ATOM     31  N   UNL     1       2.516   5.472  21.099  0.00  0.00    +0.000 N 
ATOM     32  H   UNL     1       2.753   6.143  21.820  0.00  0.00    +0.000 HD
ATOM     33  H   UNL     1       1.568   5.111  21.133  0.00  0.00    +0.000 HD
ENDBRANCH   8  31
BRANCH   1  34
ATOM     34  O   UNL     1       5.432   3.277  15.922  0.00  0.00    +0.000 OA
BRANCH  34  36
ATOM     35  C   UNL     1       6.217   4.037  13.784  0.00  0.00    +0.000 C 
ATOM     36  C   UNL     1       6.128   4.348  15.267  0.00  0.00    +0.000 C 
ENDBRANCH  34  36
ENDBRANCH   1  34
TORSDOF 8
ENDMDL
MODEL 6
REMARK VINA RESULT:      -8.1      3.938      5.302
REMARK  Name = 
REMARK  10 active torsions:
REMARK  status: ('A' for Active; 'I' for Inactive)
REMARK    1  A    between atoms: C_1  and  C_2
REMARK    2  A    between atoms: C_2  and  O_3
REMARK    3  A    between atoms: O_3  and  C_4
REMARK    4  A    between atoms: C_11  and  N_12
REMARK    5  A    between atoms: C_15  and  C_16
REMARK    6  A    between atoms: C_19  and  O_20
REMARK    7  A    between atoms: O_20  and  C_21
REMARK    8  A    between atoms: N_23  and  C_24
REMARK    9  A    between atoms: C_24  and  C_25
REMARK   10  A    between atoms: C_29  and  C_30
REMARK                            x       y       z     vdW  Elec       q    Type
REMARK                         _______ _______ _______ _____ _____    ______ ____
ROOT
ATOM      1  C   UNL     1      -5.756  12.732  18.318  0.00  0.00    +0.000 C 
ATOM      2  O   UNL     1      -6.024  12.000  17.377  0.00  0.00    +0.000 OA
ATOM      3  N   UNL     1      -4.613  12.783  19.058  0.00  0.00    +0.000 N 
ATOM      4  C   UNL     1      -3.460  12.040  18.799  0.00  0.00    +0.000 A 
ATOM      5  C   UNL     1      -2.435  12.081  19.734  0.00  0.00    +0.000 A 
ATOM      6  C   UNL     1      -1.309  11.271  19.553  0.00  0.00    +0.000 A 
ATOM      7  C   UNL     1      -1.206  10.511  18.381  0.00  0.00    +0.000 A 
ATOM      8  C   UNL     1      -2.257  10.601  17.458  0.00  0.00    +0.000 A 
ATOM      9  N   UNL     1      -3.368  11.327  17.665  0.00  0.00    +0.000 NA
ATOM     10  N   UNL     1      -0.130   9.628  18.150  0.00  0.00    +0.000 NA
ATOM     11  C   UNL     1       0.780   9.510  19.074  0.00  0.00    +0.000 C 
ATOM     12  C   UNL     1       0.767  10.292  20.407  0.00  0.00    +0.000 C 
ATOM     13  C   UNL     1       0.580   9.345  21.596  0.00  0.00    +0.000 C 
ATOM     14  N   UNL     1      -0.256  11.345  20.476  0.00  0.00    +0.000 N 
ATOM     15  H   UNL     1      -4.633  13.413  19.842  0.00  0.00    +0.000 HD
ATOM     16  H   UNL     1      -0.544  11.603  21.414  0.00  0.00    +0.000 HD
ENDROOT
BRANCH  11  17
ATOM     17  C   UNL     1       1.859   8.490  18.868  0.00  0.00    +0.000 A 
ATOM     18  C   UNL     1       2.042   7.417  19.746  0.00  0.00    +0.000 A 
ATOM     19  C   UNL     1       2.968   6.415  19.443  0.00  0.00    +0.000 A 
ATOM     20  C   UNL     1       3.717   6.484  18.266  0.00  0.00    +0.000 A 
ATOM     21  C   UNL     1       3.598   7.589  17.427  0.00  0.00    +0.000 A 
ATOM     22  C   UNL     1       2.665   8.587  17.724  0.00  0.00    +0.000 A 
BRANCH  20  23
ATOM     23  O   UNL     1       4.579   5.386  18.035  0.00  0.00    +0.000 OA
BRANCH  23  24
ATOM     24  C   UNL     1       5.149   4.616  19.045  0.00  0.00    +0.000 C 
ATOM     25  O   UNL     1       6.172   4.867  19.668  0.00  0.00    +0.000 OA
ATOM     26  N   UNL     1       4.428   3.487  19.329  0.00  0.00    +0.000 N 
ATOM     27  H   UNL     1       4.817   2.996  20.126  0.00  0.00    +0.000 HD
BRANCH  26  28
ATOM     28  C   UNL     1       3.864   2.629  18.298  0.00  0.00    +0.000 C 
BRANCH  28  29
ATOM     29  C   UNL     1       2.614   1.906  18.807  0.00  0.00    +0.000 C 
ATOM     30 CL   UNL     1       1.422   3.075  19.445  0.00  0.00    +0.000 Cl
ENDBRANCH  28  29
ENDBRANCH  26  28
ENDBRANCH  23  24
ENDBRANCH  20  23
ENDBRANCH  11  17
BRANCH   8  31
ATOM     31  N   UNL     1      -2.173   9.982  16.203  0.00  0.00    +0.000 N 
ATOM     32  H   UNL     1      -3.026   9.473  16.003  0.00  0.00    +0.000 HD
ATOM     33  H   UNL     1      -1.919  10.691  15.523  0.00  0.00    +0.000 HD
ENDBRANCH   8  31
BRANCH   1  34
ATOM     34  O   UNL     1      -6.614  13.675  18.803  0.00  0.00    +0.000 OA
BRANCH  34  36
ATOM     35  C   UNL     1      -7.681  12.941  20.824  0.00  0.00    +0.000 C 
ATOM     36  C   UNL     1      -6.596  13.821  20.231  0.00  0.00    +0.000 C 
ENDBRANCH  34  36
ENDBRANCH   1  34
TORSDOF 8
ENDMDL
MODEL 7
REMARK VINA RESULT:      -7.9      3.245      4.569
REMARK  Name = 
REMARK  10 active torsions:
REMARK  status: ('A' for Active; 'I' for Inactive)
REMARK    1  A    between atoms: C_1  and  C_2
REMARK    2  A    between atoms: C_2  and  O_3
REMARK    3  A    between atoms: O_3  and  C_4
REMARK    4  A    between atoms: C_11  and  N_12
REMARK    5  A    between atoms: C_15  and  C_16
REMARK    6  A    between atoms: C_19  and  O_20
REMARK    7  A    between atoms: O_20  and  C_21
REMARK    8  A    between atoms: N_23  and  C_24
REMARK    9  A    between atoms: C_24  and  C_25
REMARK   10  A    between atoms: C_29  and  C_30
REMARK                            x       y       z     vdW  Elec       q    Type
REMARK                         _______ _______ _______ _____ _____    ______ ____
ROOT
ATOM      1  C   UNL     1      -5.443  12.799  18.573  0.00  0.00    +0.000 C 
ATOM      2  O   UNL     1      -5.746  12.103  17.616  0.00  0.00    +0.000 OA
ATOM      3  N   UNL     1      -4.291  12.789  19.302  0.00  0.00    +0.000 N 
ATOM      4  C   UNL     1      -3.169  12.012  19.011  0.00  0.00    +0.000 A 
ATOM      5  C   UNL     1      -2.134  11.990  19.936  0.00  0.00    +0.000 A 
ATOM      6  C   UNL     1      -1.040  11.145  19.722  0.00  0.00    +0.000 A 
ATOM      7  C   UNL     1      -0.977  10.414  18.529  0.00  0.00    +0.000 A 
ATOM      8  C   UNL     1      -2.033  10.566  17.620  0.00  0.00    +0.000 A 
ATOM      9  N   UNL     1      -3.114  11.326  17.858  0.00  0.00    +0.000 NA
ATOM     10  N   UNL     1       0.064   9.498  18.264  0.00  0.00    +0.000 NA
ATOM     11  C   UNL     1       0.978   9.323  19.174  0.00  0.00    +0.000 C 
ATOM     12  C   UNL     1       1.007  10.069  20.528  0.00  0.00    +0.000 C 
ATOM     13  C   UNL     1       0.797   9.099  21.693  0.00  0.00    +0.000 C 
ATOM     14  N   UNL     1       0.024  11.156  20.634  0.00  0.00    +0.000 N 
ATOM     15  H   UNL     1      -4.281  13.399  20.102  0.00  0.00    +0.000 HD
ATOM     16  H   UNL     1      -0.245  11.400  21.582  0.00  0.00    +0.000 HD
ENDROOT
BRANCH  11  17
ATOM     17  C   UNL     1       2.016   8.270  18.930  0.00  0.00    +0.000 A 
ATOM     18  C   UNL     1       2.188   7.183  19.794  0.00  0.00    +0.000 A 
ATOM     19  C   UNL     1       3.072   6.154  19.457  0.00  0.00    +0.000 A 
ATOM     20  C   UNL     1       3.790   6.210  18.261  0.00  0.00    +0.000 A 
ATOM     21  C   UNL     1       3.686   7.326  17.435  0.00  0.00    +0.000 A 
ATOM     22  C   UNL     1       2.795   8.351  17.766  0.00  0.00    +0.000 A 
BRANCH  20  23
ATOM     23  O   UNL     1       4.609   5.086  17.997  0.00  0.00    +0.000 OA
BRANCH  23  24
ATOM     24  C   UNL     1       4.214   3.996  17.227  0.00  0.00    +0.000 C 
ATOM     25  O   UNL     1       3.386   3.148  17.530  0.00  0.00    +0.000 OA
ATOM     26  N   UNL     1       4.844   3.941  16.013  0.00  0.00    +0.000 N 
ATOM     27  H   UNL     1       4.471   3.192  15.441  0.00  0.00    +0.000 HD
BRANCH  26  28
ATOM     28  C   UNL     1       6.270   4.183  15.851  0.00  0.00    +0.000 C 
BRANCH  28  29
ATOM     29  C   UNL     1       6.560   4.903  14.531  0.00  0.00    +0.000 C 
ATOM     30 CL   UNL     1       6.572   3.745  13.168  0.00  0.00    +0.000 Cl
ENDBRANCH  28  29
ENDBRANCH  26  28
ENDBRANCH  23  24
ENDBRANCH  20  23
ENDBRANCH  11  17
BRANCH   8  31
ATOM     31  N   UNL     1      -1.983   9.977  16.348  0.00  0.00    +0.000 N 
ATOM     32  H   UNL     1      -2.756  10.303  15.779  0.00  0.00    +0.000 HD
ATOM     33  H   UNL     1      -1.059  10.145  15.965  0.00  0.00    +0.000 HD
ENDBRANCH   8  31
BRANCH   1  34
ATOM     34  O   UNL     1      -6.260  13.760  19.091  0.00  0.00    +0.000 OA
BRANCH  34  36
ATOM     35  C   UNL     1      -7.448  12.208  20.485  0.00  0.00    +0.000 C 
ATOM     36  C   UNL     1      -7.575  13.301  19.440  0.00  0.00    +0.000 C 
ENDBRANCH  34  36
ENDBRANCH   1  34
TORSDOF 8
ENDMDL
MODEL 8
REMARK VINA RESULT:      -7.8      3.573      4.932
REMARK  Name = 
REMARK  10 active torsions:
REMARK  status: ('A' for Active; 'I' for Inactive)
REMARK    1  A    between atoms: C_1  and  C_2
REMARK    2  A    between atoms: C_2  and  O_3
REMARK    3  A    between atoms: O_3  and  C_4
REMARK    4  A    between atoms: C_11  and  N_12
REMARK    5  A    between atoms: C_15  and  C_16
REMARK    6  A    between atoms: C_19  and  O_20
REMARK    7  A    between atoms: O_20  and  C_21
REMARK    8  A    between atoms: N_23  and  C_24
REMARK    9  A    between atoms: C_24  and  C_25
REMARK   10  A    between atoms: C_29  and  C_30
REMARK                            x       y       z     vdW  Elec       q    Type
REMARK                         _______ _______ _______ _____ _____    ______ ____
ROOT
ATOM      1  C   UNL     1      -2.680  14.114  23.241  0.00  0.00    +0.000 C 
ATOM      2  O   UNL     1      -2.422  13.509  24.270  0.00  0.00    +0.000 OA
ATOM      3  N   UNL     1      -2.323  13.808  21.961  0.00  0.00    +0.000 N 
ATOM      4  C   UNL     1      -1.651  12.647  21.576  0.00  0.00    +0.000 A 
ATOM      5  C   UNL     1      -1.216  12.553  20.261  0.00  0.00    +0.000 A 
ATOM      6  C   UNL     1      -0.453  11.448  19.869  0.00  0.00    +0.000 A 
ATOM      7  C   UNL     1      -0.231  10.420  20.794  0.00  0.00    +0.000 A 
ATOM      8  C   UNL     1      -0.782  10.571  22.074  0.00  0.00    +0.000 A 
ATOM      9  N   UNL     1      -1.456  11.663  22.468  0.00  0.00    +0.000 NA
ATOM     10  N   UNL     1       0.574   9.300  20.492  0.00  0.00    +0.000 NA
ATOM     11  C   UNL     1       1.138   9.243  19.321  0.00  0.00    +0.000 C 
ATOM     12  C   UNL     1       0.969  10.320  18.225  0.00  0.00    +0.000 C 
ATOM     13  C   UNL     1       2.297  11.028  17.943  0.00  0.00    +0.000 C 
ATOM     14  N   UNL     1      -0.052  11.332  18.531  0.00  0.00    +0.000 N 
ATOM     15  H   UNL     1      -2.579  14.489  21.267  0.00  0.00    +0.000 HD
ATOM     16  H   UNL     1       0.070  12.221  18.056  0.00  0.00    +0.000 HD
ENDROOT
BRANCH  11  17
ATOM     17  C   UNL     1       2.078   8.107  19.050  0.00  0.00    +0.000 A 
ATOM     18  C   UNL     1       2.210   7.028  19.930  0.00  0.00    +0.000 A 
ATOM     19  C   UNL     1       2.992   5.926  19.574  0.00  0.00    +0.000 A 
ATOM     20  C   UNL     1       3.649   5.901  18.342  0.00  0.00    +0.000 A 
ATOM     21  C   UNL     1       3.588   7.005  17.496  0.00  0.00    +0.000 A 
ATOM     22  C   UNL     1       2.798   8.103  17.847  0.00  0.00    +0.000 A 
BRANCH  20  23
ATOM     23  O   UNL     1       4.364   4.712  18.065  0.00  0.00    +0.000 OA
BRANCH  23  24
ATOM     24  C   UNL     1       5.328   4.166  18.907  0.00  0.00    +0.000 C 
ATOM     25  O   UNL     1       6.494   4.521  19.011  0.00  0.00    +0.000 OA
ATOM     26  N   UNL     1       4.847   3.145  19.683  0.00  0.00    +0.000 N 
ATOM     27  H   UNL     1       5.545   2.831  20.347  0.00  0.00    +0.000 HD
BRANCH  26  28
ATOM     28  C   UNL     1       3.982   2.098  19.162  0.00  0.00    +0.000 C 
BRANCH  28  29
ATOM     29  C   UNL     1       2.570   2.210  19.744  0.00  0.00    +0.000 C 
ATOM     30 CL   UNL     1       1.354   2.326  18.438  0.00  0.00    +0.000 Cl
ENDBRANCH  28  29
ENDBRANCH  26  28
ENDBRANCH  23  24
ENDBRANCH  20  23
ENDBRANCH  11  17
BRANCH   8  31
ATOM     31  N   UNL     1      -0.722   9.532  23.014  0.00  0.00    +0.000 N 
ATOM     32  H   UNL     1      -0.871   8.638  22.561  0.00  0.00    +0.000 HD
ATOM     33  H   UNL     1       0.153   9.623  23.521  0.00  0.00    +0.000 HD
ENDBRANCH   8  31
BRANCH   1  34
ATOM     34  O   UNL     1      -3.416  15.262  23.209  0.00  0.00    +0.000 OA
BRANCH  34  36
ATOM     35  C   UNL     1      -3.904  16.748  25.030  0.00  0.00    +0.000 C 
ATOM     36  C   UNL     1      -4.280  15.449  24.341  0.00  0.00    +0.000 C 
ENDBRANCH  34  36
ENDBRANCH   1  34
TORSDOF 8
ENDMDL
MODEL 9
REMARK VINA RESULT:      -7.8      3.918      5.517
REMARK  Name = 
REMARK  10 active torsions:
REMARK  status: ('A' for Active; 'I' for Inactive)
REMARK    1  A    between atoms: C_1  and  C_2
REMARK    2  A    between atoms: C_2  and  O_3
REMARK    3  A    between atoms: O_3  and  C_4
REMARK    4  A    between atoms: C_11  and  N_12
REMARK    5  A    between atoms: C_15  and  C_16
REMARK    6  A    between atoms: C_19  and  O_20
REMARK    7  A    between atoms: O_20  and  C_21
REMARK    8  A    between atoms: N_23  and  C_24
REMARK    9  A    between atoms: C_24  and  C_25
REMARK   10  A    between atoms: C_29  and  C_30
REMARK                            x       y       z     vdW  Elec       q    Type
REMARK                         _______ _______ _______ _____ _____    ______ ____
ROOT
ATOM      1  C   UNL     1      -5.803  12.711  18.318  0.00  0.00    +0.000 C 
ATOM      2  O   UNL     1      -6.124  11.903  17.461  0.00  0.00    +0.000 OA
ATOM      3  N   UNL     1      -4.621  12.815  18.990  0.00  0.00    +0.000 N 
ATOM      4  C   UNL     1      -3.488  12.041  18.736  0.00  0.00    +0.000 A 
ATOM      5  C   UNL     1      -2.414  12.153  19.609  0.00  0.00    +0.000 A 
ATOM      6  C   UNL     1      -1.304  11.319  19.440  0.00  0.00    +0.000 A 
ATOM      7  C   UNL     1      -1.268  10.460  18.335  0.00  0.00    +0.000 A 
ATOM      8  C   UNL     1      -2.366  10.479  17.464  0.00  0.00    +0.000 A 
ATOM      9  N   UNL     1      -3.461  11.231  17.666  0.00  0.00    +0.000 NA
ATOM     10  N   UNL     1      -0.210   9.549  18.126  0.00  0.00    +0.000 NA
ATOM     11  C   UNL     1       0.747   9.503  19.007  0.00  0.00    +0.000 C 
ATOM     12  C   UNL     1       0.810  10.398  20.266  0.00  0.00    +0.000 C 
ATOM     13  C   UNL     1       0.682   9.560  21.540  0.00  0.00    +0.000 C 
ATOM     14  N   UNL     1      -0.203  11.463  20.295  0.00  0.00    +0.000 N 
ATOM     15  H   UNL     1      -4.597  13.511  19.716  0.00  0.00    +0.000 HD
ATOM     16  H   UNL     1      -0.439  11.805  21.222  0.00  0.00    +0.000 HD
ENDROOT
BRANCH  11  17
ATOM     17  C   UNL     1       1.808   8.458  18.834  0.00  0.00    +0.000 A 
ATOM     18  C   UNL     1       1.943   7.385  19.721  0.00  0.00    +0.000 A 
ATOM     19  C   UNL     1       2.854   6.361  19.446  0.00  0.00    +0.000 A 
ATOM     20  C   UNL     1       3.636   6.409  18.290  0.00  0.00    +0.000 A 
ATOM     21  C   UNL     1       3.566   7.512  17.445  0.00  0.00    +0.000 A 
ATOM     22  C   UNL     1       2.648   8.532  17.713  0.00  0.00    +0.000 A 
BRANCH  20  23
ATOM     23  O   UNL     1       4.480   5.291  18.087  0.00  0.00    +0.000 OA
BRANCH  23  24
ATOM     24  C   UNL     1       4.025   4.025  17.730  0.00  0.00    +0.000 C 
ATOM     25  O   UNL     1       3.358   3.738  16.744  0.00  0.00    +0.000 OA
ATOM     26  N   UNL     1       4.416   3.047  18.606  0.00  0.00    +0.000 N 
ATOM     27  H   UNL     1       4.148   2.129  18.271  0.00  0.00    +0.000 HD
BRANCH  26  28
ATOM     28  C   UNL     1       4.362   3.214  20.050  0.00  0.00    +0.000 C 
BRANCH  28  29
ATOM     29  C   UNL     1       3.183   2.441  20.649  0.00  0.00    +0.000 C 
ATOM     30 CL   UNL     1       1.951   3.566  21.291  0.00  0.00    +0.000 Cl
ENDBRANCH  28  29
ENDBRANCH  26  28
ENDBRANCH  23  24
ENDBRANCH  20  23
ENDBRANCH  11  17
BRANCH   8  31
ATOM     31  N   UNL     1      -2.352   9.752  16.265  0.00  0.00    +0.000 N 
ATOM     32  H   UNL     1      -2.674  10.331  15.499  0.00  0.00    +0.000 HD
ATOM     33  H   UNL     1      -1.424   9.357  16.153  0.00  0.00    +0.000 HD
ENDBRANCH   8  31
BRANCH   1  34
ATOM     34  O   UNL     1      -6.629  13.701  18.764  0.00  0.00    +0.000 OA
BRANCH  34  36
ATOM     35  C   UNL     1      -7.750  12.745  20.659  0.00  0.00    +0.000 C 
ATOM     36  C   UNL     1      -6.747  13.784  20.192  0.00  0.00    +0.000 C 
ENDBRANCH  34  36
ENDBRANCH   1  34
TORSDOF 8
ENDMDL
