MODEL 1
REMARK VINA RESULT:      -8.5      0.000      0.000
REMARK  Name = 
REMARK  9 active torsions:
REMARK  status: ('A' for Active; 'I' for Inactive)
REMARK    1  A    between atoms: C_2  and  C_3
REMARK    2  A    between atoms: C_4  and  C_5
REMARK    3  A    between atoms: C_8  and  C_9
REMARK    4  A    between atoms: N_17  and  C_18
REMARK    5  A    between atoms: C_20  and  C_21
REMARK    6  A    between atoms: C_21  and  O_22
REMARK    7  A    between atoms: C_23  and  O_24
REMARK    8  A    between atoms: C_25  and  O_26
REMARK    9  A    between atoms: C_27  and  O_28
REMARK                            x       y       z     vdW  Elec       q    Type
REMARK                         _______ _______ _______ _____ _____    ______ ____
ROOT
ATOM      1  O   UNL     1       1.689   4.559  20.311  0.00  0.00    +0.000 OA
ATOM      2  C   UNL     1       2.031   5.734  20.359  0.00  0.00    +0.000 C 
ATOM      3  N   UNL     1       3.249   6.188  19.947  0.00  0.00    +0.000 N 
ATOM      4  H   UNL     1       3.512   7.161  20.014  0.00  0.00    +0.000 HD
ENDROOT
BRANCH   3   5
ATOM      5  C   UNL     1       4.179   5.303  19.318  0.00  0.00    +0.000 C 
ATOM      6  O   UNL     1       5.452   5.907  19.509  0.00  0.00    +0.000 OA
ATOM      7  C   UNL     1       6.516   5.057  19.051  0.00  0.00    +0.000 C 
ATOM      8  C   UNL     1       6.414   4.890  17.532  0.00  0.00    +0.000 C 
ATOM      9  C   UNL     1       5.038   4.311  17.165  0.00  0.00    +0.000 C 
ATOM     10  C   UNL     1       3.897   5.124  17.801  0.00  0.00    +0.000 C 
BRANCH   8  11
ATOM     11  O   UNL     1       7.473   4.053  17.060  0.00  0.00    +0.000 OA
ATOM     12  H   UNL     1       7.141   3.532  16.305  0.00  0.00    +0.000 HD
ENDBRANCH   8  11
BRANCH   9  13
ATOM     13  O   UNL     1       4.922   4.252  15.736  0.00  0.00    +0.000 OA
ATOM     14  H   UNL     1       5.721   4.651  15.347  0.00  0.00    +0.000 HD
ENDBRANCH   9  13
BRANCH  10  15
ATOM     15  O   UNL     1       2.648   4.489  17.514  0.00  0.00    +0.000 OA
ATOM     16  H   UNL     1       1.990   5.172  17.282  0.00  0.00    +0.000 HD
ENDBRANCH  10  15
BRANCH   7  17
ATOM     17  C   UNL     1       7.864   5.666  19.451  0.00  0.00    +0.000 C 
BRANCH  17  18
ATOM     18  O   UNL     1       8.160   5.307  20.802  0.00  0.00    +0.000 OA
ATOM     19  H   UNL     1       8.015   4.349  20.880  0.00  0.00    +0.000 HD
ENDBRANCH  17  18
ENDBRANCH   7  17
ENDBRANCH   3   5
BRANCH   2  20
ATOM     20  C   UNL     1       1.142   6.819  20.850  0.00  0.00    +0.000 C 
ATOM     21  C   UNL     1       1.535   8.096  20.708  0.00  0.00    +0.000 C 
BRANCH  21  22
ATOM     22  C   UNL     1       0.771   9.192  21.288  0.00  0.00    +0.000 A 
ATOM     23  C   UNL     1       0.271   9.055  22.583  0.00  0.00    +0.000 A 
ATOM     24  C   UNL     1      -0.504  10.069  23.152  0.00  0.00    +0.000 A 
ATOM     25  C   UNL     1      -0.792  11.257  22.456  0.00  0.00    +0.000 A 
ATOM     26  C   UNL     1      -0.253  11.386  21.161  0.00  0.00    +0.000 A 
ATOM     27  C   UNL     1       0.513  10.362  20.576  0.00  0.00    +0.000 A 
BRANCH  25  28
ATOM     28  C   UNL     1      -1.655  12.306  23.055  0.00  0.00    +0.000 A 
ATOM     29  C   UNL     1      -1.174  13.608  23.298  0.00  0.00    +0.000 A 
ATOM     30  C   UNL     1      -1.966  14.577  23.921  0.00  0.00    +0.000 A 
ATOM     31  C   UNL     1      -3.270  14.275  24.298  0.00  0.00    +0.000 A 
ATOM     32  C   UNL     1      -3.781  13.006  24.050  0.00  0.00    +0.000 A 
ATOM     33  C   UNL     1      -2.980  12.034  23.441  0.00  0.00    +0.000 A 
ENDBRANCH  25  28
ENDBRANCH  21  22
ENDBRANCH   2  20
TORSDOF 9
ENDMDL
MODEL 2
REMARK VINA RESULT:      -8.3      0.475      1.019
REMARK  Name = 
REMARK  9 active torsions:
REMARK  status: ('A' for Active; 'I' for Inactive)
REMARK    1  A    between atoms: C_2  and  C_3
REMARK    2  A    between atoms: C_4  and  C_5
REMARK    3  A    between atoms: C_8  and  C_9
REMARK    4  A    between atoms: N_17  and  C_18
REMARK    5  A    between atoms: C_20  and  C_21
REMARK    6  A    between atoms: C_21  and  O_22
REMARK    7  A    between atoms: C_23  and  O_24
REMARK    8  A    between atoms: C_25  and  O_26
REMARK    9  A    between atoms: C_27  and  O_28
REMARK                            x       y       z     vdW  Elec       q    Type
REMARK                         _______ _______ _______ _____ _____    ______ ____
ROOT
ATOM      1  O   UNL     1       2.022   4.233  20.119  0.00  0.00    +0.000 OA
ATOM      2  C   UNL     1       2.341   5.408  20.250  0.00  0.00    +0.000 C 
ATOM      3  N   UNL     1       3.545   5.914  19.861  0.00  0.00    +0.000 N 
ATOM      4  H   UNL     1       3.790   6.885  19.995  0.00  0.00    +0.000 HD
ENDROOT
BRANCH   3   5
ATOM      5  C   UNL     1       4.487   5.096  19.161  0.00  0.00    +0.000 C 
ATOM      6  O   UNL     1       5.753   5.693  19.410  0.00  0.00    +0.000 OA
ATOM      7  C   UNL     1       6.826   4.895  18.885  0.00  0.00    +0.000 C 
ATOM      8  C   UNL     1       6.732   4.861  17.357  0.00  0.00    +0.000 C 
ATOM      9  C   UNL     1       5.363   4.304  16.933  0.00  0.00    +0.000 C 
ATOM     10  C   UNL     1       4.213   5.049  17.633  0.00  0.00    +0.000 C 
BRANCH   8  11
ATOM     11  O   UNL     1       7.801   4.078  16.818  0.00  0.00    +0.000 OA
ATOM     12  H   UNL     1       8.256   3.630  17.555  0.00  0.00    +0.000 HD
ENDBRANCH   8  11
BRANCH   9  13
ATOM     13  O   UNL     1       5.254   4.370  15.505  0.00  0.00    +0.000 OA
ATOM     14  H   UNL     1       5.254   5.307  15.240  0.00  0.00    +0.000 HD
ENDBRANCH   9  13
BRANCH  10  15
ATOM     15  O   UNL     1       2.970   4.431  17.285  0.00  0.00    +0.000 OA
ATOM     16  H   UNL     1       2.357   5.114  16.953  0.00  0.00    +0.000 HD
ENDBRANCH  10  15
BRANCH   7  17
ATOM     17  C   UNL     1       8.167   5.478  19.343  0.00  0.00    +0.000 C 
BRANCH  17  18
ATOM     18  O   UNL     1       8.249   5.406  20.768  0.00  0.00    +0.000 OA
ATOM     19  H   UNL     1       7.364   5.608  21.115  0.00  0.00    +0.000 HD
ENDBRANCH  17  18
ENDBRANCH   7  17
ENDBRANCH   3   5
BRANCH   2  20
ATOM     20  C   UNL     1       1.437   6.436  20.825  0.00  0.00    +0.000 C 
ATOM     21  C   UNL     1       1.503   7.694  20.360  0.00  0.00    +0.000 C 
BRANCH  21  22
ATOM     22  C   UNL     1       0.738   8.771  20.975  0.00  0.00    +0.000 A 
ATOM     23  C   UNL     1       0.689  10.012  20.340  0.00  0.00    +0.000 A 
ATOM     24  C   UNL     1       0.002  11.078  20.926  0.00  0.00    +0.000 A 
ATOM     25  C   UNL     1      -0.669  10.939  22.154  0.00  0.00    +0.000 A 
ATOM     26  C   UNL     1      -0.629   9.670  22.764  0.00  0.00    +0.000 A 
ATOM     27  C   UNL     1       0.074   8.597  22.188  0.00  0.00    +0.000 A 
BRANCH  25  28
ATOM     28  C   UNL     1      -1.355  12.093  22.787  0.00  0.00    +0.000 A 
ATOM     29  C   UNL     1      -0.722  13.344  22.925  0.00  0.00    +0.000 A 
ATOM     30  C   UNL     1      -1.344  14.412  23.578  0.00  0.00    +0.000 A 
ATOM     31  C   UNL     1      -2.627  14.263  24.092  0.00  0.00    +0.000 A 
ATOM     32  C   UNL     1      -3.287  13.048  23.951  0.00  0.00    +0.000 A 
ATOM     33  C   UNL     1      -2.656  11.977  23.311  0.00  0.00    +0.000 A 
ENDBRANCH  25  28
ENDBRANCH  21  22
ENDBRANCH   2  20
TORSDOF 9
ENDMDL
MODEL 3
REMARK VINA RESULT:      -8.1      0.633      1.427
REMARK  Name = 
REMARK  9 active torsions:
REMARK  status: ('A' for Active; 'I' for Inactive)
REMARK    1  A    between atoms: C_2  and  C_3
REMARK    2  A    between atoms: C_4  and  C_5
REMARK    3  A    between atoms: C_8  and  C_9
REMARK    4  A    between atoms: N_17  and  C_18
REMARK    5  A    between atoms: C_20  and  C_21
REMARK    6  A    between atoms: C_21  and  O_22
REMARK    7  A    between atoms: C_23  and  O_24
REMARK    8  A    between atoms: C_25  and  O_26
REMARK    9  A    between atoms: C_27  and  O_28
REMARK                            x       y       z     vdW  Elec       q    Type
REMARK                         _______ _______ _______ _____ _____    ______ ____
ROOT
ATOM      1  O   UNL     1       2.168   4.292  20.379  0.00  0.00    +0.000 OA
ATOM      2  C   UNL     1       2.379   5.496  20.304  0.00  0.00    +0.000 C 
ATOM      3  N   UNL     1       3.508   6.036  19.764  0.00  0.00    +0.000 N 
ATOM      4  H   UNL     1       3.665   7.033  19.730  0.00  0.00    +0.000 HD
ENDROOT
BRANCH   3   5
ATOM      5  C   UNL     1       4.487   5.201  19.140  0.00  0.00    +0.000 C 
ATOM      6  O   UNL     1       5.732   5.846  19.381  0.00  0.00    +0.000 OA
ATOM      7  C   UNL     1       6.837   5.045  18.933  0.00  0.00    +0.000 C 
ATOM      8  C   UNL     1       6.783   4.912  17.408  0.00  0.00    +0.000 C 
ATOM      9  C   UNL     1       5.439   4.293  16.989  0.00  0.00    +0.000 C 
ATOM     10  C   UNL     1       4.253   5.049  17.612  0.00  0.00    +0.000 C 
BRANCH   8  11
ATOM     11  O   UNL     1       7.884   4.126  16.946  0.00  0.00    +0.000 OA
ATOM     12  H   UNL     1       7.542   3.443  16.340  0.00  0.00    +0.000 HD
ENDBRANCH   8  11
BRANCH   9  13
ATOM     13  O   UNL     1       5.364   4.266  15.557  0.00  0.00    +0.000 OA
ATOM     14  H   UNL     1       6.272   4.272  15.202  0.00  0.00    +0.000 HD
ENDBRANCH   9  13
BRANCH  10  15
ATOM     15  O   UNL     1       3.036   4.378  17.275  0.00  0.00    +0.000 OA
ATOM     16  H   UNL     1       2.719   3.884  18.056  0.00  0.00    +0.000 HD
ENDBRANCH  10  15
BRANCH   7  17
ATOM     17  C   UNL     1       8.151   5.692  19.384  0.00  0.00    +0.000 C 
BRANCH  17  18
ATOM     18  O   UNL     1       8.236   7.012  18.843  0.00  0.00    +0.000 OA
ATOM     19  H   UNL     1       7.527   7.535  19.255  0.00  0.00    +0.000 HD
ENDBRANCH  17  18
ENDBRANCH   7  17
ENDBRANCH   3   5
BRANCH   2  20
ATOM     20  C   UNL     1       1.410   6.520  20.770  0.00  0.00    +0.000 C 
ATOM     21  C   UNL     1       1.739   7.819  20.672  0.00  0.00    +0.000 C 
BRANCH  21  22
ATOM     22  C   UNL     1       0.889   8.861  21.234  0.00  0.00    +0.000 A 
ATOM     23  C   UNL     1       0.681  10.030  20.501  0.00  0.00    +0.000 A 
ATOM     24  C   UNL     1      -0.092  11.067  21.031  0.00  0.00    +0.000 A 
ATOM     25  C   UNL     1      -0.693  10.966  22.298  0.00  0.00    +0.000 A 
ATOM     26  C   UNL     1      -0.493   9.766  23.007  0.00  0.00    +0.000 A 
ATOM     27  C   UNL     1       0.297   8.726  22.487  0.00  0.00    +0.000 A 
BRANCH  25  28
ATOM     28  C   UNL     1      -1.473  12.094  22.867  0.00  0.00    +0.000 A 
ATOM     29  C   UNL     1      -2.756  11.902  23.416  0.00  0.00    +0.000 A 
ATOM     30  C   UNL     1      -3.517  12.973  23.894  0.00  0.00    +0.000 A 
ATOM     31  C   UNL     1      -3.003  14.265  23.855  0.00  0.00    +0.000 A 
ATOM     32  C   UNL     1      -1.730  14.483  23.341  0.00  0.00    +0.000 A 
ATOM     33  C   UNL     1      -0.979  13.411  22.850  0.00  0.00    +0.000 A 
ENDBRANCH  25  28
ENDBRANCH  21  22
ENDBRANCH   2  20
TORSDOF 9
ENDMDL
MODEL 4
REMARK VINA RESULT:      -7.9      0.827      1.296
REMARK  Name = 
REMARK  9 active torsions:
REMARK  status: ('A' for Active; 'I' for Inactive)
REMARK    1  A    between atoms: C_2  and  C_3
REMARK    2  A    between atoms: C_4  and  C_5
REMARK    3  A    between atoms: C_8  and  C_9
REMARK    4  A    between atoms: N_17  and  C_18
REMARK    5  A    between atoms: C_20  and  C_21
REMARK    6  A    between atoms: C_21  and  O_22
REMARK    7  A    between atoms: C_23  and  O_24
REMARK    8  A    between atoms: C_25  and  O_26
REMARK    9  A    between atoms: C_27  and  O_28
REMARK                            x       y       z     vdW  Elec       q    Type
REMARK                         _______ _______ _______ _____ _____    ______ ____
ROOT
ATOM      1  O   UNL     1       3.025   7.391  18.321  0.00  0.00    +0.000 OA
ATOM      2  C   UNL     1       2.664   6.993  19.421  0.00  0.00    +0.000 C 
ATOM      3  N   UNL     1       3.087   5.825  19.982  0.00  0.00    +0.000 N 
ATOM      4  H   UNL     1       2.760   5.512  20.885  0.00  0.00    +0.000 HD
ENDROOT
BRANCH   3   5
ATOM      5  C   UNL     1       4.088   5.031  19.340  0.00  0.00    +0.000 C 
ATOM      6  O   UNL     1       5.296   5.766  19.489  0.00  0.00    +0.000 OA
ATOM      7  C   UNL     1       6.430   5.022  19.014  0.00  0.00    +0.000 C 
ATOM      8  C   UNL     1       6.308   4.821  17.501  0.00  0.00    +0.000 C 
ATOM      9  C   UNL     1       4.990   4.098  17.178  0.00  0.00    +0.000 C 
ATOM     10  C   UNL     1       3.788   4.800  17.834  0.00  0.00    +0.000 C 
BRANCH   8  11
ATOM     11  O   UNL     1       7.435   4.090  17.012  0.00  0.00    +0.000 OA
ATOM     12  H   UNL     1       7.847   3.622  17.761  0.00  0.00    +0.000 HD
ENDBRANCH   8  11
BRANCH   9  13
ATOM     13  O   UNL     1       4.845   4.005  15.754  0.00  0.00    +0.000 OA
ATOM     14  H   UNL     1       5.725   4.104  15.349  0.00  0.00    +0.000 HD
ENDBRANCH   9  13
BRANCH  10  15
ATOM     15  O   UNL     1       2.604   4.035  17.589  0.00  0.00    +0.000 OA
ATOM     16  H   UNL     1       2.103   3.950  18.422  0.00  0.00    +0.000 HD
ENDBRANCH  10  15
BRANCH   7  17
ATOM     17  C   UNL     1       7.717   5.773  19.370  0.00  0.00    +0.000 C 
BRANCH  17  18
ATOM     18  O   UNL     1       8.119   5.418  20.695  0.00  0.00    +0.000 OA
ATOM     19  H   UNL     1       8.277   4.459  20.696  0.00  0.00    +0.000 HD
ENDBRANCH  17  18
ENDBRANCH   7  17
ENDBRANCH   3   5
BRANCH   2  20
ATOM     20  C   UNL     1       1.738   7.756  20.296  0.00  0.00    +0.000 C 
ATOM     21  C   UNL     1       1.153   8.865  19.814  0.00  0.00    +0.000 C 
BRANCH  21  22
ATOM     22  C   UNL     1       0.343   9.726  20.666  0.00  0.00    +0.000 A 
ATOM     23  C   UNL     1      -0.347  10.791  20.087  0.00  0.00    +0.000 A 
ATOM     24  C   UNL     1      -1.098  11.662  20.882  0.00  0.00    +0.000 A 
ATOM     25  C   UNL     1      -1.195  11.492  22.274  0.00  0.00    +0.000 A 
ATOM     26  C   UNL     1      -0.513  10.395  22.834  0.00  0.00    +0.000 A 
ATOM     27  C   UNL     1       0.257   9.524  22.042  0.00  0.00    +0.000 A 
BRANCH  25  28
ATOM     28  C   UNL     1      -1.957  12.453  23.111  0.00  0.00    +0.000 A 
ATOM     29  C   UNL     1      -1.421  13.705  23.472  0.00  0.00    +0.000 A 
ATOM     30  C   UNL     1      -2.111  14.583  24.313  0.00  0.00    +0.000 A 
ATOM     31  C   UNL     1      -3.368  14.239  24.798  0.00  0.00    +0.000 A 
ATOM     32  C   UNL     1      -3.934  13.021  24.441  0.00  0.00    +0.000 A 
ATOM     33  C   UNL     1      -3.233  12.139  23.612  0.00  0.00    +0.000 A 
ENDBRANCH  25  28
ENDBRANCH  21  22
ENDBRANCH   2  20
TORSDOF 9
ENDMDL
MODEL 5
REMARK VINA RESULT:      -7.9      1.804      3.005
REMARK  Name = 
REMARK  9 active torsions:
REMARK  status: ('A' for Active; 'I' for Inactive)
REMARK    1  A    between atoms: C_2  and  C_3
REMARK    2  A    between atoms: C_4  and  C_5
REMARK    3  A    between atoms: C_8  and  C_9
REMARK    4  A    between atoms: N_17  and  C_18
REMARK    5  A    between atoms: C_20  and  C_21
REMARK    6  A    between atoms: C_21  and  O_22
REMARK    7  A    between atoms: C_23  and  O_24
REMARK    8  A    between atoms: C_25  and  O_26
REMARK    9  A    between atoms: C_27  and  O_28
REMARK                            x       y       z     vdW  Elec       q    Type
REMARK                         _______ _______ _______ _____ _____    ______ ____
ROOT
ATOM      1  O   UNL     1       2.890   8.190  17.074  0.00  0.00    +0.000 OA
ATOM      2  C   UNL     1       2.319   7.999  18.141  0.00  0.00    +0.000 C 
ATOM      3  N   UNL     1       2.172   6.771  18.714  0.00  0.00    +0.000 N 
ATOM      4  H   UNL     1       1.681   6.640  19.587  0.00  0.00    +0.000 HD
ENDROOT
BRANCH   3   5
ATOM      5  C   UNL     1       2.790   5.619  18.134  0.00  0.00    +0.000 C 
ATOM      6  O   UNL     1       2.000   4.518  18.566  0.00  0.00    +0.000 OA
ATOM      7  C   UNL     1       2.416   3.292  17.944  0.00  0.00    +0.000 C 
ATOM      8  C   UNL     1       3.829   2.937  18.415  0.00  0.00    +0.000 C 
ATOM      9  C   UNL     1       4.792   4.088  18.082  0.00  0.00    +0.000 C 
ATOM     10  C   UNL     1       4.260   5.435  18.600  0.00  0.00    +0.000 C 
BRANCH   8  11
ATOM     11  O   UNL     1       4.253   1.712  17.811  0.00  0.00    +0.000 OA
ATOM     12  H   UNL     1       5.083   1.430  18.237  0.00  0.00    +0.000 HD
ENDBRANCH   8  11
BRANCH   9  13
ATOM     13  O   UNL     1       6.088   3.782  18.616  0.00  0.00    +0.000 OA
ATOM     14  H   UNL     1       6.704   4.487  18.347  0.00  0.00    +0.000 HD
ENDBRANCH   9  13
BRANCH  10  15
ATOM     15  O   UNL     1       5.138   6.483  18.179  0.00  0.00    +0.000 OA
ATOM     16  H   UNL     1       5.160   6.506  17.204  0.00  0.00    +0.000 HD
ENDBRANCH  10  15
BRANCH   7  17
ATOM     17  C   UNL     1       1.421   2.180  18.292  0.00  0.00    +0.000 C 
BRANCH  17  18
ATOM     18  O   UNL     1       1.932   1.418  19.388  0.00  0.00    +0.000 OA
ATOM     19  H   UNL     1       2.496   2.013  19.909  0.00  0.00    +0.000 HD
ENDBRANCH  17  18
ENDBRANCH   7  17
ENDBRANCH   3   5
BRANCH   2  20
ATOM     20  C   UNL     1       1.739   9.095  18.958  0.00  0.00    +0.000 C 
ATOM     21  C   UNL     1       1.115   8.790  20.107  0.00  0.00    +0.000 C 
BRANCH  21  22
ATOM     22  C   UNL     1       0.411   9.804  20.881  0.00  0.00    +0.000 A 
ATOM     23  C   UNL     1      -0.024   9.490  22.168  0.00  0.00    +0.000 A 
ATOM     24  C   UNL     1      -0.740  10.425  22.920  0.00  0.00    +0.000 A 
ATOM     25  C   UNL     1      -1.032  11.707  22.420  0.00  0.00    +0.000 A 
ATOM     26  C   UNL     1      -0.559  12.012  21.129  0.00  0.00    +0.000 A 
ATOM     27  C   UNL     1       0.148  11.070  20.361  0.00  0.00    +0.000 A 
BRANCH  25  28
ATOM     28  C   UNL     1      -1.834  12.673  23.211  0.00  0.00    +0.000 A 
ATOM     29  C   UNL     1      -1.296  13.903  23.640  0.00  0.00    +0.000 A 
ATOM     30  C   UNL     1      -2.029  14.785  24.439  0.00  0.00    +0.000 A 
ATOM     31  C   UNL     1      -3.331  14.469  24.812  0.00  0.00    +0.000 A 
ATOM     32  C   UNL     1      -3.898  13.274  24.385  0.00  0.00    +0.000 A 
ATOM     33  C   UNL     1      -3.156  12.387  23.599  0.00  0.00    +0.000 A 
ENDBRANCH  25  28
ENDBRANCH  21  22
ENDBRANCH   2  20
TORSDOF 9
ENDMDL
MODEL 6
REMARK VINA RESULT:      -7.8      0.680      1.094
REMARK  Name = 
REMARK  9 active torsions:
REMARK  status: ('A' for Active; 'I' for Inactive)
REMARK    1  A    between atoms: C_2  and  C_3
REMARK    2  A    between atoms: C_4  and  C_5
REMARK    3  A    between atoms: C_8  and  C_9
REMARK    4  A    between atoms: N_17  and  C_18
REMARK    5  A    between atoms: C_20  and  C_21
REMARK    6  A    between atoms: C_21  and  O_22
REMARK    7  A    between atoms: C_23  and  O_24
REMARK    8  A    between atoms: C_25  and  O_26
REMARK    9  A    between atoms: C_27  and  O_28
REMARK                            x       y       z     vdW  Elec       q    Type
REMARK                         _______ _______ _______ _____ _____    ______ ____
ROOT
ATOM      1  O   UNL     1       1.945   4.720  20.932  0.00  0.00    +0.000 OA
ATOM      2  C   UNL     1       2.074   5.884  20.573  0.00  0.00    +0.000 C 
ATOM      3  N   UNL     1       3.091   6.326  19.781  0.00  0.00    +0.000 N 
ATOM      4  H   UNL     1       3.183   7.296  19.514  0.00  0.00    +0.000 HD
ENDROOT
BRANCH   3   5
ATOM      5  C   UNL     1       4.032   5.405  19.223  0.00  0.00    +0.000 C 
ATOM      6  O   UNL     1       5.301   6.021  19.397  0.00  0.00    +0.000 OA
ATOM      7  C   UNL     1       6.372   5.144  19.010  0.00  0.00    +0.000 C 
ATOM      8  C   UNL     1       6.294   4.883  17.503  0.00  0.00    +0.000 C 
ATOM      9  C   UNL     1       4.924   4.281  17.150  0.00  0.00    +0.000 C 
ATOM     10  C   UNL     1       3.774   5.132  17.716  0.00  0.00    +0.000 C 
BRANCH   8  11
ATOM     11  O   UNL     1       7.361   4.019  17.101  0.00  0.00    +0.000 OA
ATOM     12  H   UNL     1       7.005   3.361  16.475  0.00  0.00    +0.000 HD
ENDBRANCH   8  11
BRANCH   9  13
ATOM     13  O   UNL     1       4.831   4.134  15.726  0.00  0.00    +0.000 OA
ATOM     14  H   UNL     1       3.922   4.356  15.454  0.00  0.00    +0.000 HD
ENDBRANCH   9  13
BRANCH  10  15
ATOM     15  O   UNL     1       2.529   4.480  17.449  0.00  0.00    +0.000 OA
ATOM     16  H   UNL     1       2.622   3.934  16.645  0.00  0.00    +0.000 HD
ENDBRANCH  10  15
BRANCH   7  17
ATOM     17  C   UNL     1       7.713   5.778  19.392  0.00  0.00    +0.000 C 
BRANCH  17  18
ATOM     18  O   UNL     1       8.047   6.787  18.437  0.00  0.00    +0.000 OA
ATOM     19  H   UNL     1       7.221   7.038  17.989  0.00  0.00    +0.000 HD
ENDBRANCH  17  18
ENDBRANCH   7  17
ENDBRANCH   3   5
BRANCH   2  20
ATOM     20  C   UNL     1       1.112   6.956  20.937  0.00  0.00    +0.000 C 
ATOM     21  C   UNL     1       1.521   8.236  20.905  0.00  0.00    +0.000 C 
BRANCH  21  22
ATOM     22  C   UNL     1       0.667   9.316  21.378  0.00  0.00    +0.000 A 
ATOM     23  C   UNL     1       0.153   9.252  22.674  0.00  0.00    +0.000 A 
ATOM     24  C   UNL     1      -0.705  10.250  23.144  0.00  0.00    +0.000 A 
ATOM     25  C   UNL     1      -1.067  11.349  22.344  0.00  0.00    +0.000 A 
ATOM     26  C   UNL     1      -0.515  11.408  21.050  0.00  0.00    +0.000 A 
ATOM     27  C   UNL     1       0.337  10.399  20.566  0.00  0.00    +0.000 A 
BRANCH  25  28
ATOM     28  C   UNL     1      -2.016  12.377  22.840  0.00  0.00    +0.000 A 
ATOM     29  C   UNL     1      -3.133  12.032  23.627  0.00  0.00    +0.000 A 
ATOM     30  C   UNL     1      -4.062  12.991  24.040  0.00  0.00    +0.000 A 
ATOM     31  C   UNL     1      -3.886  14.326  23.695  0.00  0.00    +0.000 A 
ATOM     32  C   UNL     1      -2.781  14.701  22.940  0.00  0.00    +0.000 A 
ATOM     33  C   UNL     1      -1.862  13.737  22.515  0.00  0.00    +0.000 A 
ENDBRANCH  25  28
ENDBRANCH  21  22
ENDBRANCH   2  20
TORSDOF 9
ENDMDL
MODEL 7
REMARK VINA RESULT:      -7.8      1.802      3.245
REMARK  Name = 
REMARK  9 active torsions:
REMARK  status: ('A' for Active; 'I' for Inactive)
REMARK    1  A    between atoms: C_2  and  C_3
REMARK    2  A    between atoms: C_4  and  C_5
REMARK    3  A    between atoms: C_8  and  C_9
REMARK    4  A    between atoms: N_17  and  C_18
REMARK    5  A    between atoms: C_20  and  C_21
REMARK    6  A    between atoms: C_21  and  O_22
REMARK    7  A    between atoms: C_23  and  O_24
REMARK    8  A    between atoms: C_25  and  O_26
REMARK    9  A    between atoms: C_27  and  O_28
REMARK                            x       y       z     vdW  Elec       q    Type
REMARK                         _______ _______ _______ _____ _____    ______ ____
ROOT
ATOM      1  O   UNL     1       2.806   8.106  17.215  0.00  0.00    +0.000 OA
ATOM      2  C   UNL     1       2.205   7.947  18.270  0.00  0.00    +0.000 C 
ATOM      3  N   UNL     1       2.027   6.734  18.867  0.00  0.00    +0.000 N 
ATOM      4  H   UNL     1       1.512   6.629  19.730  0.00  0.00    +0.000 HD
ENDROOT
BRANCH   3   5
ATOM      5  C   UNL     1       2.645   5.562  18.330  0.00  0.00    +0.000 C 
ATOM      6  O   UNL     1       1.862   4.477  18.810  0.00  0.00    +0.000 OA
ATOM      7  C   UNL     1       2.278   3.228  18.234  0.00  0.00    +0.000 C 
ATOM      8  C   UNL     1       3.695   2.896  18.710  0.00  0.00    +0.000 C 
ATOM      9  C   UNL     1       4.652   4.036  18.325  0.00  0.00    +0.000 C 
ATOM     10  C   UNL     1       4.119   5.401  18.793  0.00  0.00    +0.000 C 
BRANCH   8  11
ATOM     11  O   UNL     1       4.119   1.650  18.153  0.00  0.00    +0.000 OA
ATOM     12  H   UNL     1       4.959   1.794  17.680  0.00  0.00    +0.000 HD
ENDBRANCH   8  11
BRANCH   9  13
ATOM     13  O   UNL     1       5.952   3.755  18.863  0.00  0.00    +0.000 OA
ATOM     14  H   UNL     1       5.845   3.451  19.782  0.00  0.00    +0.000 HD
ENDBRANCH   9  13
BRANCH  10  15
ATOM     15  O   UNL     1       4.991   6.434  18.325  0.00  0.00    +0.000 OA
ATOM     16  H   UNL     1       5.743   6.026  17.855  0.00  0.00    +0.000 HD
ENDBRANCH  10  15
BRANCH   7  17
ATOM     17  C   UNL     1       1.289   2.128  18.633  0.00  0.00    +0.000 C 
BRANCH  17  18
ATOM     18  O   UNL     1       0.341   2.662  19.560  0.00  0.00    +0.000 OA
ATOM     19  H   UNL     1      -0.152   1.908  19.928  0.00  0.00    +0.000 HD
ENDBRANCH  17  18
ENDBRANCH   7  17
ENDBRANCH   3   5
BRANCH   2  20
ATOM     20  C   UNL     1       1.618   9.068  19.047  0.00  0.00    +0.000 C 
ATOM     21  C   UNL     1       1.214   8.845  20.309  0.00  0.00    +0.000 C 
BRANCH  21  22
ATOM     22  C   UNL     1       0.510   9.867  21.072  0.00  0.00    +0.000 A 
ATOM     23  C   UNL     1      -0.207   9.488  22.206  0.00  0.00    +0.000 A 
ATOM     24  C   UNL     1      -0.929  10.437  22.935  0.00  0.00    +0.000 A 
ATOM     25  C   UNL     1      -0.948  11.794  22.566  0.00  0.00    +0.000 A 
ATOM     26  C   UNL     1      -0.195  12.158  21.433  0.00  0.00    +0.000 A 
ATOM     27  C   UNL     1       0.521  11.206  20.686  0.00  0.00    +0.000 A 
BRANCH  25  28
ATOM     28  C   UNL     1      -1.758  12.782  23.322  0.00  0.00    +0.000 A 
ATOM     29  C   UNL     1      -3.091  12.517  23.690  0.00  0.00    +0.000 A 
ATOM     30  C   UNL     1      -3.874  13.472  24.347  0.00  0.00    +0.000 A 
ATOM     31  C   UNL     1      -3.334  14.711  24.670  0.00  0.00    +0.000 A 
ATOM     32  C   UNL     1      -2.014  14.994  24.341  0.00  0.00    +0.000 A 
ATOM     33  C   UNL     1      -1.239  14.042  23.671  0.00  0.00    +0.000 A 
ENDBRANCH  25  28
ENDBRANCH  21  22
ENDBRANCH   2  20
TORSDOF 9
ENDMDL
MODEL 8
REMARK VINA RESULT:      -7.8      8.294     11.219
REMARK  Name = 
REMARK  9 active torsions:
REMARK  status: ('A' for Active; 'I' for Inactive)
REMARK    1  A    between atoms: C_2  and  C_3
REMARK    2  A    between atoms: C_4  and  C_5
REMARK    3  A    between atoms: C_8  and  C_9
REMARK    4  A    between atoms: N_17  and  C_18
REMARK    5  A    between atoms: C_20  and  C_21
REMARK    6  A    between atoms: C_21  and  O_22
REMARK    7  A    between atoms: C_23  and  O_24
REMARK    8  A    between atoms: C_25  and  O_26
REMARK    9  A    between atoms: C_27  and  O_28
REMARK                            x       y       z     vdW  Elec       q    Type
REMARK                         _______ _______ _______ _____ _____    ______ ____
ROOT
ATOM      1  O   UNL     1      11.238  11.449  19.459  0.00  0.00    +0.000 OA
ATOM      2  C   UNL     1      10.036  11.338  19.249  0.00  0.00    +0.000 C 
ATOM      3  N   UNL     1       9.214  12.389  18.976  0.00  0.00    +0.000 N 
ATOM      4  H   UNL     1       8.222  12.272  18.823  0.00  0.00    +0.000 HD
ENDROOT
BRANCH   3   5
ATOM      5  C   UNL     1       9.747  13.706  18.810  0.00  0.00    +0.000 C 
ATOM      6  O   UNL     1       8.676  14.583  19.136  0.00  0.00    +0.000 OA
ATOM      7  C   UNL     1       9.103  15.955  19.154  0.00  0.00    +0.000 C 
ATOM      8  C   UNL     1       9.506  16.380  17.739  0.00  0.00    +0.000 C 
ATOM      9  C   UNL     1      10.618  15.455  17.217  0.00  0.00    +0.000 C 
ATOM     10  C   UNL     1      10.230  13.973  17.358  0.00  0.00    +0.000 C 
BRANCH   8  11
ATOM     11  O   UNL     1       9.924  17.747  17.739  0.00  0.00    +0.000 OA
ATOM     12  H   UNL     1       9.149  18.306  17.544  0.00  0.00    +0.000 HD
ENDBRANCH   8  11
BRANCH   9  13
ATOM     13  O   UNL     1      10.915  15.804  15.857  0.00  0.00    +0.000 OA
ATOM     14  H   UNL     1      10.116  15.654  15.321  0.00  0.00    +0.000 HD
ENDBRANCH   9  13
BRANCH  10  15
ATOM     15  O   UNL     1      11.332  13.156  16.954  0.00  0.00    +0.000 OA
ATOM     16  H   UNL     1      11.426  12.415  17.582  0.00  0.00    +0.000 HD
ENDBRANCH  10  15
BRANCH   7  17
ATOM     17  C   UNL     1       7.970  16.834  19.693  0.00  0.00    +0.000 C 
BRANCH  17  18
ATOM     18  O   UNL     1       7.320  17.487  18.600  0.00  0.00    +0.000 OA
ATOM     19  H   UNL     1       6.746  18.173  18.980  0.00  0.00    +0.000 HD
ENDBRANCH  17  18
ENDBRANCH   7  17
ENDBRANCH   3   5
BRANCH   2  20
ATOM     20  C   UNL     1       9.332  10.030  19.237  0.00  0.00    +0.000 C 
ATOM     21  C   UNL     1       8.801   9.588  18.085  0.00  0.00    +0.000 C 
BRANCH  21  22
ATOM     22  C   UNL     1       7.985   8.381  18.041  0.00  0.00    +0.000 A 
ATOM     23  C   UNL     1       6.821   8.382  17.272  0.00  0.00    +0.000 A 
ATOM     24  C   UNL     1       5.993   7.257  17.243  0.00  0.00    +0.000 A 
ATOM     25  C   UNL     1       6.304   6.092  17.967  0.00  0.00    +0.000 A 
ATOM     26  C   UNL     1       7.498   6.104  18.714  0.00  0.00    +0.000 A 
ATOM     27  C   UNL     1       8.327   7.238  18.760  0.00  0.00    +0.000 A 
BRANCH  25  28
ATOM     28  C   UNL     1       5.392   4.922  17.964  0.00  0.00    +0.000 A 
ATOM     29  C   UNL     1       5.119   4.195  19.140  0.00  0.00    +0.000 A 
ATOM     30  C   UNL     1       4.310   3.055  19.126  0.00  0.00    +0.000 A 
ATOM     31  C   UNL     1       3.734   2.624  17.936  0.00  0.00    +0.000 A 
ATOM     32  C   UNL     1       3.965   3.333  16.764  0.00  0.00    +0.000 A 
ATOM     33  C   UNL     1       4.787   4.464  16.779  0.00  0.00    +0.000 A 
ENDBRANCH  25  28
ENDBRANCH  21  22
ENDBRANCH   2  20
TORSDOF 9
ENDMDL
MODEL 9
REMARK VINA RESULT:      -7.7      1.671      2.537
REMARK  Name = 
REMARK  9 active torsions:
REMARK  status: ('A' for Active; 'I' for Inactive)
REMARK    1  A    between atoms: C_2  and  C_3
REMARK    2  A    between atoms: C_4  and  C_5
REMARK    3  A    between atoms: C_8  and  C_9
REMARK    4  A    between atoms: N_17  and  C_18
REMARK    5  A    between atoms: C_20  and  C_21
REMARK    6  A    between atoms: C_21  and  O_22
REMARK    7  A    between atoms: C_23  and  O_24
REMARK    8  A    between atoms: C_25  and  O_26
REMARK    9  A    between atoms: C_27  and  O_28
REMARK                            x       y       z     vdW  Elec       q    Type
REMARK                         _______ _______ _______ _____ _____    ______ ____
ROOT
ATOM      1  O   UNL     1       2.951   6.971  18.504  0.00  0.00    +0.000 OA
ATOM      2  C   UNL     1       2.337   7.045  19.561  0.00  0.00    +0.000 C 
ATOM      3  N   UNL     1       2.114   5.983  20.385  0.00  0.00    +0.000 N 
ATOM      4  H   UNL     1       1.589   6.069  21.244  0.00  0.00    +0.000 HD
ENDROOT
BRANCH   3   5
ATOM      5  C   UNL     1       2.695   4.708  20.102  0.00  0.00    +0.000 C 
ATOM      6  O   UNL     1       3.636   4.952  19.064  0.00  0.00    +0.000 OA
ATOM      7  C   UNL     1       4.411   3.779  18.766  0.00  0.00    +0.000 C 
ATOM      8  C   UNL     1       3.494   2.700  18.183  0.00  0.00    +0.000 C 
ATOM      9  C   UNL     1       2.365   2.386  19.177  0.00  0.00    +0.000 C 
ATOM     10  C   UNL     1       1.644   3.666  19.632  0.00  0.00    +0.000 C 
BRANCH   8  11
ATOM     11  O   UNL     1       4.254   1.529  17.871  0.00  0.00    +0.000 OA
ATOM     12  H   UNL     1       4.874   1.360  18.605  0.00  0.00    +0.000 HD
ENDBRANCH   8  11
BRANCH   9  13
ATOM     13  O   UNL     1       1.462   1.446  18.577  0.00  0.00    +0.000 OA
ATOM     14  H   UNL     1       1.453   0.638  19.122  0.00  0.00    +0.000 HD
ENDBRANCH   9  13
BRANCH  10  15
ATOM     15  O   UNL     1       0.673   3.332  20.629  0.00  0.00    +0.000 OA
ATOM     16  H   UNL     1       1.065   2.694  21.254  0.00  0.00    +0.000 HD
ENDBRANCH  10  15
BRANCH   7  17
ATOM     17  C   UNL     1       5.530   4.144  17.784  0.00  0.00    +0.000 C 
BRANCH  17  18
ATOM     18  O   UNL     1       6.782   4.134  18.473  0.00  0.00    +0.000 OA
ATOM     19  H   UNL     1       7.321   3.430  18.074  0.00  0.00    +0.000 HD
ENDBRANCH  17  18
ENDBRANCH   7  17
ENDBRANCH   3   5
BRANCH   2  20
ATOM     20  C   UNL     1       1.783   8.318  20.089  0.00  0.00    +0.000 C 
ATOM     21  C   UNL     1       1.094   8.299  21.243  0.00  0.00    +0.000 C 
BRANCH  21  22
ATOM     22  C   UNL     1       0.414   9.488  21.740  0.00  0.00    +0.000 A 
ATOM     23  C   UNL     1      -0.429   9.370  22.845  0.00  0.00    +0.000 A 
ATOM     24  C   UNL     1      -1.130  10.482  23.319  0.00  0.00    +0.000 A 
ATOM     25  C   UNL     1      -1.003  11.747  22.718  0.00  0.00    +0.000 A 
ATOM     26  C   UNL     1      -0.125  11.848  21.622  0.00  0.00    +0.000 A 
ATOM     27  C   UNL     1       0.571  10.730  21.129  0.00  0.00    +0.000 A 
BRANCH  25  28
ATOM     28  C   UNL     1      -1.790  12.908  23.204  0.00  0.00    +0.000 A 
ATOM     29  C   UNL     1      -3.180  12.822  23.411  0.00  0.00    +0.000 A 
ATOM     30  C   UNL     1      -3.932  13.933  23.807  0.00  0.00    +0.000 A 
ATOM     31  C   UNL     1      -3.306  15.155  24.027  0.00  0.00    +0.000 A 
ATOM     32  C   UNL     1      -1.932  15.265  23.854  0.00  0.00    +0.000 A 
ATOM     33  C   UNL     1      -1.186  14.156  23.443  0.00  0.00    +0.000 A 
ENDBRANCH  25  28
ENDBRANCH  21  22
ENDBRANCH   2  20
TORSDOF 9
ENDMDL
