MODEL 1
REMARK VINA RESULT:      -7.1      0.000      0.000
REMARK  Name = 
REMARK  8 active torsions:
REMARK  status: ('A' for Active; 'I' for Inactive)
REMARK    1  A    between atoms: C_1  and  O_2
REMARK    2  A    between atoms: O_2  and  C_3
REMARK    3  A    between atoms: C_7  and  N_8
REMARK    4  A    between atoms: C_9  and  C_11
REMARK    5  A    between atoms: C_13  and  C_14
REMARK    6  A    between atoms: C_14  and  C_15
REMARK    7  A    between atoms: C_14  and  C_16
REMARK    8  A    between atoms: N_18  and  C_19
REMARK                            x       y       z     vdW  Elec       q    Type
REMARK                         _______ _______ _______ _____ _____    ______ ____
ROOT
ATOM      1  N   UNL     1       3.807   4.458  17.599  0.00  0.00    +0.000 N 
ATOM      2  C   UNL     1       4.340   5.608  17.052  0.00  0.00    +0.000 C 
ATOM      3  O   UNL     1       3.936   6.722  17.365  0.00  0.00    +0.000 OA
ATOM      4  H   UNL     1       4.248   3.569  17.415  0.00  0.00    +0.000 HD
ENDROOT
BRANCH   1   9
ATOM      5  C   UNL     1       2.974   3.425  19.695  0.00  0.00    +0.000 C 
ATOM      6  C   UNL     1       2.288   2.209  19.066  0.00  0.00    +0.000 C 
ATOM      7  N   UNL     1       1.098   2.719  18.357  0.00  0.00    +0.000 NA
ATOM      8  C   UNL     1       1.384   4.131  18.037  0.00  0.00    +0.000 C 
ATOM      9  C   UNL     1       2.763   4.492  18.615  0.00  0.00    +0.000 C 
ATOM     10  H   UNL     1       0.327   2.711  19.032  0.00  0.00    +0.000 HD
BRANCH   5  12
ATOM     11  C   UNL     1       1.933   2.611  21.670  0.00  0.00    +0.000 C 
ATOM     12  O   UNL     1       2.316   3.765  20.925  0.00  0.00    +0.000 OA
ENDBRANCH   5  12
ENDBRANCH   1   9
BRANCH   2  13
ATOM     13  C   UNL     1       5.422   5.371  16.123  0.00  0.00    +0.000 A 
ATOM     14  C   UNL     1       5.401   4.841  14.845  0.00  0.00    +0.000 A 
ATOM     15  C   UNL     1       6.740   4.809  14.406  0.00  0.00    +0.000 A 
ATOM     16  N   UNL     1       7.564   5.300  15.334  0.00  0.00    +0.000 NA
ATOM     17  N   UNL     1       6.750   5.645  16.357  0.00  0.00    +0.000 N 
ATOM     18  C   UNL     1       7.336   6.221  17.546  0.00  0.00    +0.000 C 
BRANCH  15  19
ATOM     19  C   UNL     1       7.243   4.286  13.092  0.00  0.00    +0.000 C 
ATOM     20  C   UNL     1       6.182   3.478  12.348  0.00  0.00    +0.000 C 
ATOM     21  C   UNL     1       7.796   5.406  12.211  0.00  0.00    +0.000 C 
ENDBRANCH  15  19
ENDBRANCH   2  13
TORSDOF 4
ENDMDL
MODEL 2
REMARK VINA RESULT:      -6.9      1.121      1.121
REMARK  Name = 
REMARK  8 active torsions:
REMARK  status: ('A' for Active; 'I' for Inactive)
REMARK    1  A    between atoms: C_1  and  O_2
REMARK    2  A    between atoms: O_2  and  C_3
REMARK    3  A    between atoms: C_7  and  N_8
REMARK    4  A    between atoms: C_9  and  C_11
REMARK    5  A    between atoms: C_13  and  C_14
REMARK    6  A    between atoms: C_14  and  C_15
REMARK    7  A    between atoms: C_14  and  C_16
REMARK    8  A    between atoms: N_18  and  C_19
REMARK                            x       y       z     vdW  Elec       q    Type
REMARK                         _______ _______ _______ _____ _____    ______ ____
ROOT
ATOM      1  N   UNL     1       3.776   4.369  17.839  0.00  0.00    +0.000 N 
ATOM      2  C   UNL     1       5.148   4.376  17.987  0.00  0.00    +0.000 C 
ATOM      3  O   UNL     1       5.683   4.193  19.075  0.00  0.00    +0.000 OA
ATOM      4  H   UNL     1       3.375   4.396  16.913  0.00  0.00    +0.000 HD
ENDROOT
BRANCH   1   9
ATOM      5  C   UNL     1       3.060   2.685  19.514  0.00  0.00    +0.000 C 
ATOM      6  C   UNL     1       2.142   1.866  18.603  0.00  0.00    +0.000 C 
ATOM      7  N   UNL     1       0.959   2.707  18.334  0.00  0.00    +0.000 NA
ATOM      8  C   UNL     1       1.400   4.105  18.512  0.00  0.00    +0.000 C 
ATOM      9  C   UNL     1       2.874   4.098  18.951  0.00  0.00    +0.000 C 
ATOM     10  H   UNL     1       0.280   2.506  19.074  0.00  0.00    +0.000 HD
BRANCH   5  12
ATOM     11  C   UNL     1       2.480   3.857  21.499  0.00  0.00    +0.000 C 
ATOM     12  O   UNL     1       2.606   2.582  20.873  0.00  0.00    +0.000 OA
ENDBRANCH   5  12
ENDBRANCH   1   9
BRANCH   2  13
ATOM     13  C   UNL     1       5.872   4.580  16.753  0.00  0.00    +0.000 A 
ATOM     14  C   UNL     1       5.798   3.898  15.551  0.00  0.00    +0.000 A 
ATOM     15  C   UNL     1       6.745   4.495  14.696  0.00  0.00    +0.000 A 
ATOM     16  N   UNL     1       7.375   5.503  15.302  0.00  0.00    +0.000 NA
ATOM     17  N   UNL     1       6.827   5.547  16.537  0.00  0.00    +0.000 N 
ATOM     18  C   UNL     1       7.295   6.549  17.468  0.00  0.00    +0.000 C 
BRANCH  15  19
ATOM     19  C   UNL     1       7.068   4.087  13.288  0.00  0.00    +0.000 C 
ATOM     20  C   UNL     1       5.853   3.517  12.559  0.00  0.00    +0.000 C 
ATOM     21  C   UNL     1       7.693   5.235  12.495  0.00  0.00    +0.000 C 
ENDBRANCH  15  19
ENDBRANCH   2  13
TORSDOF 4
ENDMDL
MODEL 3
REMARK VINA RESULT:      -6.8      0.953      1.062
REMARK  Name = 
REMARK  8 active torsions:
REMARK  status: ('A' for Active; 'I' for Inactive)
REMARK    1  A    between atoms: C_1  and  O_2
REMARK    2  A    between atoms: O_2  and  C_3
REMARK    3  A    between atoms: C_7  and  N_8
REMARK    4  A    between atoms: C_9  and  C_11
REMARK    5  A    between atoms: C_13  and  C_14
REMARK    6  A    between atoms: C_14  and  C_15
REMARK    7  A    between atoms: C_14  and  C_16
REMARK    8  A    between atoms: N_18  and  C_19
REMARK                            x       y       z     vdW  Elec       q    Type
REMARK                         _______ _______ _______ _____ _____    ______ ____
ROOT
ATOM      1  N   UNL     1       3.403   3.975  17.329  0.00  0.00    +0.000 N 
ATOM      2  C   UNL     1       4.179   5.092  17.094  0.00  0.00    +0.000 C 
ATOM      3  O   UNL     1       3.966   6.158  17.661  0.00  0.00    +0.000 OA
ATOM      4  H   UNL     1       3.683   3.086  16.944  0.00  0.00    +0.000 HD
ENDROOT
BRANCH   1   9
ATOM      5  C   UNL     1       2.819   3.842  19.736  0.00  0.00    +0.000 C 
ATOM      6  C   UNL     1       2.925   2.322  19.890  0.00  0.00    +0.000 C 
ATOM      7  N   UNL     1       1.781   1.746  19.156  0.00  0.00    +0.000 NA
ATOM      8  C   UNL     1       1.403   2.743  18.135  0.00  0.00    +0.000 C 
ATOM      9  C   UNL     1       2.313   3.973  18.296  0.00  0.00    +0.000 C 
ATOM     10  H   UNL     1       1.005   1.684  19.822  0.00  0.00    +0.000 HD
BRANCH   5  12
ATOM     11  C   UNL     1       1.832   5.782  20.690  0.00  0.00    +0.000 C 
ATOM     12  O   UNL     1       1.876   4.357  20.688  0.00  0.00    +0.000 OA
ENDBRANCH   5  12
ENDBRANCH   1   9
BRANCH   2  13
ATOM     13  C   UNL     1       5.262   4.873  16.164  0.00  0.00    +0.000 A 
ATOM     14  C   UNL     1       5.231   4.562  14.815  0.00  0.00    +0.000 A 
ATOM     15  C   UNL     1       6.573   4.430  14.407  0.00  0.00    +0.000 A 
ATOM     16  N   UNL     1       7.411   4.657  15.420  0.00  0.00    +0.000 NA
ATOM     17  N   UNL     1       6.602   4.934  16.468  0.00  0.00    +0.000 N 
ATOM     18  C   UNL     1       7.203   5.233  17.748  0.00  0.00    +0.000 C 
BRANCH  15  19
ATOM     19  C   UNL     1       7.065   4.066  13.036  0.00  0.00    +0.000 C 
ATOM     20  C   UNL     1       5.986   3.378  12.201  0.00  0.00    +0.000 C 
ATOM     21  C   UNL     1       7.639   5.276  12.300  0.00  0.00    +0.000 C 
ENDBRANCH  15  19
ENDBRANCH   2  13
TORSDOF 4
ENDMDL
MODEL 4
REMARK VINA RESULT:      -6.6      0.903      1.213
REMARK  Name = 
REMARK  8 active torsions:
REMARK  status: ('A' for Active; 'I' for Inactive)
REMARK    1  A    between atoms: C_1  and  O_2
REMARK    2  A    between atoms: O_2  and  C_3
REMARK    3  A    between atoms: C_7  and  N_8
REMARK    4  A    between atoms: C_9  and  C_11
REMARK    5  A    between atoms: C_13  and  C_14
REMARK    6  A    between atoms: C_14  and  C_15
REMARK    7  A    between atoms: C_14  and  C_16
REMARK    8  A    between atoms: N_18  and  C_19
REMARK                            x       y       z     vdW  Elec       q    Type
REMARK                         _______ _______ _______ _____ _____    ______ ____
ROOT
ATOM      1  N   UNL     1       3.645   4.082  17.558  0.00  0.00    +0.000 N 
ATOM      2  C   UNL     1       4.529   5.141  17.503  0.00  0.00    +0.000 C 
ATOM      3  O   UNL     1       4.501   6.051  18.324  0.00  0.00    +0.000 OA
ATOM      4  H   UNL     1       3.778   3.291  16.946  0.00  0.00    +0.000 HD
ENDROOT
BRANCH   1   9
ATOM      5  C   UNL     1       3.143   3.050  19.758  0.00  0.00    +0.000 C 
ATOM      6  C   UNL     1       2.745   1.662  19.247  0.00  0.00    +0.000 C 
ATOM      7  N   UNL     1       1.448   1.823  18.562  0.00  0.00    +0.000 NA
ATOM      8  C   UNL     1       1.383   3.234  18.132  0.00  0.00    +0.000 C 
ATOM      9  C   UNL     1       2.654   3.950  18.619  0.00  0.00    +0.000 C 
ATOM     10  H   UNL     1       0.722   1.688  19.272  0.00  0.00    +0.000 HD
BRANCH   5  12
ATOM     11  C   UNL     1       2.208   4.714  21.174  0.00  0.00    +0.000 C 
ATOM     12  O   UNL     1       2.461   3.322  20.991  0.00  0.00    +0.000 OA
ENDBRANCH   5  12
ENDBRANCH   1   9
BRANCH   2  13
ATOM     13  C   UNL     1       5.489   5.050  16.427  0.00  0.00    +0.000 A 
ATOM     14  C   UNL     1       5.310   5.158  15.058  0.00  0.00    +0.000 A 
ATOM     15  C   UNL     1       6.576   4.960  14.474  0.00  0.00    +0.000 A 
ATOM     16  N   UNL     1       7.511   4.755  15.405  0.00  0.00    +0.000 NA
ATOM     17  N   UNL     1       6.838   4.825  16.576  0.00  0.00    +0.000 N 
ATOM     18  C   UNL     1       7.571   4.643  17.809  0.00  0.00    +0.000 C 
BRANCH  15  19
ATOM     19  C   UNL     1       6.899   4.948  13.009  0.00  0.00    +0.000 C 
ATOM     20  C   UNL     1       8.301   5.483  12.722  0.00  0.00    +0.000 C 
ATOM     21  C   UNL     1       6.707   3.560  12.397  0.00  0.00    +0.000 C 
ENDBRANCH  15  19
ENDBRANCH   2  13
TORSDOF 4
ENDMDL
MODEL 5
REMARK VINA RESULT:      -6.6      1.528      1.633
REMARK  Name = 
REMARK  8 active torsions:
REMARK  status: ('A' for Active; 'I' for Inactive)
REMARK    1  A    between atoms: C_1  and  O_2
REMARK    2  A    between atoms: O_2  and  C_3
REMARK    3  A    between atoms: C_7  and  N_8
REMARK    4  A    between atoms: C_9  and  C_11
REMARK    5  A    between atoms: C_13  and  C_14
REMARK    6  A    between atoms: C_14  and  C_15
REMARK    7  A    between atoms: C_14  and  C_16
REMARK    8  A    between atoms: N_18  and  C_19
REMARK                            x       y       z     vdW  Elec       q    Type
REMARK                         _______ _______ _______ _____ _____    ______ ____
ROOT
ATOM      1  N   UNL     1       4.312   5.278  18.488  0.00  0.00    +0.000 N 
ATOM      2  C   UNL     1       5.550   4.694  18.311  0.00  0.00    +0.000 C 
ATOM      3  O   UNL     1       6.126   4.110  19.222  0.00  0.00    +0.000 OA
ATOM      4  H   UNL     1       3.813   5.638  17.688  0.00  0.00    +0.000 HD
ENDROOT
BRANCH   1   9
ATOM      5  C   UNL     1       2.919   3.836  19.950  0.00  0.00    +0.000 C 
ATOM      6  C   UNL     1       1.585   4.037  19.226  0.00  0.00    +0.000 C 
ATOM      7  N   UNL     1       1.166   5.425  19.497  0.00  0.00    +0.000 NA
ATOM      8  C   UNL     1       2.400   6.177  19.794  0.00  0.00    +0.000 C 
ATOM      9  C   UNL     1       3.588   5.200  19.751  0.00  0.00    +0.000 C 
ATOM     10  H   UNL     1       0.609   5.402  20.357  0.00  0.00    +0.000 HD
BRANCH   5  12
ATOM     11  C   UNL     1       1.692   2.536  21.516  0.00  0.00    +0.000 C 
ATOM     12  O   UNL     1       2.676   3.552  21.336  0.00  0.00    +0.000 OA
ENDBRANCH   5  12
ENDBRANCH   1   9
BRANCH   2  13
ATOM     13  C   UNL     1       6.067   4.807  16.967  0.00  0.00    +0.000 A 
ATOM     14  C   UNL     1       5.858   4.004  15.859  0.00  0.00    +0.000 A 
ATOM     15  C   UNL     1       6.627   4.556  14.816  0.00  0.00    +0.000 A 
ATOM     16  N   UNL     1       7.275   5.651  15.221  0.00  0.00    +0.000 NA
ATOM     17  N   UNL     1       6.915   5.793  16.517  0.00  0.00    +0.000 N 
ATOM     18  C   UNL     1       7.452   6.905  17.268  0.00  0.00    +0.000 C 
BRANCH  15  19
ATOM     19  C   UNL     1       6.762   4.025  13.419  0.00  0.00    +0.000 C 
ATOM     20  C   UNL     1       5.408   3.687  12.797  0.00  0.00    +0.000 C 
ATOM     21  C   UNL     1       7.554   4.978  12.524  0.00  0.00    +0.000 C 
ENDBRANCH  15  19
ENDBRANCH   2  13
TORSDOF 4
ENDMDL
MODEL 6
REMARK VINA RESULT:      -6.2      2.362      3.611
REMARK  Name = 
REMARK  8 active torsions:
REMARK  status: ('A' for Active; 'I' for Inactive)
REMARK    1  A    between atoms: C_1  and  O_2
REMARK    2  A    between atoms: O_2  and  C_3
REMARK    3  A    between atoms: C_7  and  N_8
REMARK    4  A    between atoms: C_9  and  C_11
REMARK    5  A    between atoms: C_13  and  C_14
REMARK    6  A    between atoms: C_14  and  C_15
REMARK    7  A    between atoms: C_14  and  C_16
REMARK    8  A    between atoms: N_18  and  C_19
REMARK                            x       y       z     vdW  Elec       q    Type
REMARK                         _______ _______ _______ _____ _____    ______ ____
ROOT
ATOM      1  N   UNL     1       5.550   5.128  16.104  0.00  0.00    +0.000 N 
ATOM      2  C   UNL     1       6.696   5.292  15.354  0.00  0.00    +0.000 C 
ATOM      3  O   UNL     1       7.688   5.855  15.803  0.00  0.00    +0.000 OA
ATOM      4  H   UNL     1       4.802   4.551  15.750  0.00  0.00    +0.000 HD
ENDROOT
BRANCH   1   9
ATOM      5  C   UNL     1       5.939   4.497  18.472  0.00  0.00    +0.000 C 
ATOM      6  C   UNL     1       4.667   3.670  18.676  0.00  0.00    +0.000 C 
ATOM      7  N   UNL     1       3.542   4.625  18.684  0.00  0.00    +0.000 NA
ATOM      8  C   UNL     1       3.999   5.804  17.923  0.00  0.00    +0.000 C 
ATOM      9  C   UNL     1       5.456   5.570  17.490  0.00  0.00    +0.000 C 
ATOM     10  H   UNL     1       3.415   4.922  19.657  0.00  0.00    +0.000 HD
BRANCH   5  12
ATOM     11  C   UNL     1       7.615   5.718  19.634  0.00  0.00    +0.000 C 
ATOM     12  O   UNL     1       6.352   5.061  19.726  0.00  0.00    +0.000 OA
ENDBRANCH   5  12
ENDBRANCH   1   9
BRANCH   2  13
ATOM     13  C   UNL     1       6.622   4.714  14.032  0.00  0.00    +0.000 A 
ATOM     14  C   UNL     1       5.704   3.829  13.495  0.00  0.00    +0.000 A 
ATOM     15  C   UNL     1       6.123   3.573  12.174  0.00  0.00    +0.000 A 
ATOM     16  N   UNL     1       7.228   4.260  11.877  0.00  0.00    +0.000 NA
ATOM     17  N   UNL     1       7.507   4.952  13.005  0.00  0.00    +0.000 N 
ATOM     18  C   UNL     1       8.666   5.814  13.021  0.00  0.00    +0.000 C 
BRANCH  15  19
ATOM     19  C   UNL     1       5.473   2.648  11.187  0.00  0.00    +0.000 C 
ATOM     20  C   UNL     1       5.901   1.196  11.390  0.00  0.00    +0.000 C 
ATOM     21  C   UNL     1       3.950   2.778  11.206  0.00  0.00    +0.000 C 
ENDBRANCH  15  19
ENDBRANCH   2  13
TORSDOF 4
ENDMDL
MODEL 7
REMARK VINA RESULT:      -6.2      4.702      7.489
REMARK  Name = 
REMARK  8 active torsions:
REMARK  status: ('A' for Active; 'I' for Inactive)
REMARK    1  A    between atoms: C_1  and  O_2
REMARK    2  A    between atoms: O_2  and  C_3
REMARK    3  A    between atoms: C_7  and  N_8
REMARK    4  A    between atoms: C_9  and  C_11
REMARK    5  A    between atoms: C_13  and  C_14
REMARK    6  A    between atoms: C_14  and  C_15
REMARK    7  A    between atoms: C_14  and  C_16
REMARK    8  A    between atoms: N_18  and  C_19
REMARK                            x       y       z     vdW  Elec       q    Type
REMARK                         _______ _______ _______ _____ _____    ______ ____
ROOT
ATOM      1  N   UNL     1       2.058   5.813  20.664  0.00  0.00    +0.000 N 
ATOM      2  C   UNL     1       2.407   6.856  19.829  0.00  0.00    +0.000 C 
ATOM      3  O   UNL     1       3.208   6.710  18.913  0.00  0.00    +0.000 OA
ATOM      4  H   UNL     1       1.305   5.936  21.324  0.00  0.00    +0.000 HD
ENDROOT
BRANCH   1   9
ATOM      5  C   UNL     1       1.963   3.764  19.268  0.00  0.00    +0.000 C 
ATOM      6  C   UNL     1       0.688   3.166  19.869  0.00  0.00    +0.000 C 
ATOM      7  N   UNL     1       1.036   2.720  21.232  0.00  0.00    +0.000 NA
ATOM      8  C   UNL     1       2.191   3.538  21.650  0.00  0.00    +0.000 C 
ATOM      9  C   UNL     1       2.579   4.464  20.484  0.00  0.00    +0.000 C 
ATOM     10  H   UNL     1       1.362   1.752  21.150  0.00  0.00    +0.000 HD
BRANCH   5  12
ATOM     11  C   UNL     1       3.737   3.176  17.800  0.00  0.00    +0.000 C 
ATOM     12  O   UNL     1       2.801   2.710  18.771  0.00  0.00    +0.000 OA
ENDBRANCH   5  12
ENDBRANCH   1   9
BRANCH   2  13
ATOM     13  C   UNL     1       1.723   8.095  20.117  0.00  0.00    +0.000 A 
ATOM     14  C   UNL     1       1.230   8.586  21.314  0.00  0.00    +0.000 A 
ATOM     15  C   UNL     1       0.630   9.826  21.018  0.00  0.00    +0.000 A 
ATOM     16  N   UNL     1       0.743  10.120  19.721  0.00  0.00    +0.000 NA
ATOM     17  N   UNL     1       1.415   9.071  19.197  0.00  0.00    +0.000 N 
ATOM     18  C   UNL     1       1.709   9.073  17.782  0.00  0.00    +0.000 C 
BRANCH  15  19
ATOM     19  C   UNL     1      -0.076  10.736  21.980  0.00  0.00    +0.000 C 
ATOM     20  C   UNL     1      -1.128  11.602  21.289  0.00  0.00    +0.000 C 
ATOM     21  C   UNL     1      -0.687   9.961  23.148  0.00  0.00    +0.000 C 
ENDBRANCH  15  19
ENDBRANCH   2  13
TORSDOF 4
ENDMDL
MODEL 8
REMARK VINA RESULT:      -6.2      1.576      1.964
REMARK  Name = 
REMARK  8 active torsions:
REMARK  status: ('A' for Active; 'I' for Inactive)
REMARK    1  A    between atoms: C_1  and  O_2
REMARK    2  A    between atoms: O_2  and  C_3
REMARK    3  A    between atoms: C_7  and  N_8
REMARK    4  A    between atoms: C_9  and  C_11
REMARK    5  A    between atoms: C_13  and  C_14
REMARK    6  A    between atoms: C_14  and  C_15
REMARK    7  A    between atoms: C_14  and  C_16
REMARK    8  A    between atoms: N_18  and  C_19
REMARK                            x       y       z     vdW  Elec       q    Type
REMARK                         _______ _______ _______ _____ _____    ______ ____
ROOT
ATOM      1  N   UNL     1       3.957   3.932  17.532  0.00  0.00    +0.000 N 
ATOM      2  C   UNL     1       5.301   4.212  17.678  0.00  0.00    +0.000 C 
ATOM      3  O   UNL     1       5.848   4.203  18.775  0.00  0.00    +0.000 OA
ATOM      4  H   UNL     1       3.570   3.823  16.607  0.00  0.00    +0.000 HD
ENDROOT
BRANCH   1   9
ATOM      5  C   UNL     1       1.798   4.351  18.680  0.00  0.00    +0.000 C 
ATOM      6  C   UNL     1       2.209   5.618  19.434  0.00  0.00    +0.000 C 
ATOM      7  N   UNL     1       3.157   5.194  20.482  0.00  0.00    +0.000 NA
ATOM      8  C   UNL     1       3.757   3.932  20.008  0.00  0.00    +0.000 C 
ATOM      9  C   UNL     1       3.111   3.563  18.660  0.00  0.00    +0.000 C 
ATOM     10  H   UNL     1       2.598   4.972  21.312  0.00  0.00    +0.000 HD
BRANCH   5  12
ATOM     11  C   UNL     1       0.612   2.315  18.990  0.00  0.00    +0.000 C 
ATOM     12  O   UNL     1       0.770   3.667  19.413  0.00  0.00    +0.000 OA
ENDBRANCH   5  12
ENDBRANCH   1   9
BRANCH   2  13
ATOM     13  C   UNL     1       5.987   4.473  16.434  0.00  0.00    +0.000 A 
ATOM     14  C   UNL     1       5.929   3.802  15.224  0.00  0.00    +0.000 A 
ATOM     15  C   UNL     1       6.822   4.464  14.359  0.00  0.00    +0.000 A 
ATOM     16  N   UNL     1       7.403   5.501  14.966  0.00  0.00    +0.000 NA
ATOM     17  N   UNL     1       6.877   5.497  16.212  0.00  0.00    +0.000 N 
ATOM     18  C   UNL     1       7.304   6.514  17.147  0.00  0.00    +0.000 C 
BRANCH  15  19
ATOM     19  C   UNL     1       7.140   4.094  12.940  0.00  0.00    +0.000 C 
ATOM     20  C   UNL     1       5.963   3.414  12.243  0.00  0.00    +0.000 C 
ATOM     21  C   UNL     1       7.631   5.298  12.136  0.00  0.00    +0.000 C 
ENDBRANCH  15  19
ENDBRANCH   2  13
TORSDOF 4
ENDMDL
MODEL 9
REMARK VINA RESULT:      -6.0      0.965      1.108
REMARK  Name = 
REMARK  8 active torsions:
REMARK  status: ('A' for Active; 'I' for Inactive)
REMARK    1  A    between atoms: C_1  and  O_2
REMARK    2  A    between atoms: O_2  and  C_3
REMARK    3  A    between atoms: C_7  and  N_8
REMARK    4  A    between atoms: C_9  and  C_11
REMARK    5  A    between atoms: C_13  and  C_14
REMARK    6  A    between atoms: C_14  and  C_15
REMARK    7  A    between atoms: C_14  and  C_16
REMARK    8  A    between atoms: N_18  and  C_19
REMARK                            x       y       z     vdW  Elec       q    Type
REMARK                         _______ _______ _______ _____ _____    ______ ____
ROOT
ATOM      1  N   UNL     1       4.712   4.523  18.499  0.00  0.00    +0.000 N 
ATOM      2  C   UNL     1       4.563   5.437  17.476  0.00  0.00    +0.000 C 
ATOM      3  O   UNL     1       3.738   6.342  17.532  0.00  0.00    +0.000 OA
ATOM      4  H   UNL     1       5.483   3.873  18.476  0.00  0.00    +0.000 HD
ENDROOT
BRANCH   1   9
ATOM      5  C   UNL     1       3.121   3.327  19.979  0.00  0.00    +0.000 C 
ATOM      6  C   UNL     1       1.844   3.617  19.185  0.00  0.00    +0.000 C 
ATOM      7  N   UNL     1       1.563   5.056  19.355  0.00  0.00    +0.000 NA
ATOM      8  C   UNL     1       2.857   5.694  19.663  0.00  0.00    +0.000 C 
ATOM      9  C   UNL     1       3.936   4.600  19.730  0.00  0.00    +0.000 C 
ATOM     10  H   UNL     1       0.974   5.144  20.189  0.00  0.00    +0.000 HD
BRANCH   5  12
ATOM     11  C   UNL     1       1.540   2.508  21.554  0.00  0.00    +0.000 C 
ATOM     12  O   UNL     1       2.796   3.157  21.367  0.00  0.00    +0.000 OA
ENDBRANCH   5  12
ENDBRANCH   1   9
BRANCH   2  13
ATOM     13  C   UNL     1       5.480   5.245  16.376  0.00  0.00    +0.000 A 
ATOM     14  C   UNL     1       5.326   4.532  15.199  0.00  0.00    +0.000 A 
ATOM     15  C   UNL     1       6.541   4.654  14.498  0.00  0.00    +0.000 A 
ATOM     16  N   UNL     1       7.413   5.408  15.170  0.00  0.00    +0.000 NA
ATOM     17  N   UNL     1       6.751   5.765  16.294  0.00  0.00    +0.000 N 
ATOM     18  C   UNL     1       7.425   6.602  17.260  0.00  0.00    +0.000 C 
BRANCH  15  19
ATOM     19  C   UNL     1       6.884   4.030  13.177  0.00  0.00    +0.000 C 
ATOM     20  C   UNL     1       5.668   3.396  12.505  0.00  0.00    +0.000 C 
ATOM     21  C   UNL     1       7.571   5.024  12.240  0.00  0.00    +0.000 C 
ENDBRANCH  15  19
ENDBRANCH   2  13
TORSDOF 4
ENDMDL
