MODEL 1
REMARK VINA RESULT:      -7.7      0.000      0.000
REMARK  Name = 
REMARK  7 active torsions:
REMARK  status: ('A' for Active; 'I' for Inactive)
REMARK    1  A    between atoms: C_1  and  C_2
REMARK    2  A    between atoms: C_2  and  C_3
REMARK    3  A    between atoms: C_3  and  C_9
REMARK    4  A    between atoms: N_4  and  N_5
REMARK    5  A    between atoms: C_15  and  O_16
REMARK    6  A    between atoms: O_16  and  C_17
REMARK    7  A    between atoms: C_17  and  C_18
REMARK                            x       y       z     vdW  Elec       q    Type
REMARK                         _______ _______ _______ _____ _____    ______ ____
ROOT
ATOM      1  C   UNL     1       4.246   4.656  17.205  0.00  0.00    +0.000 A 
ATOM      2  C   UNL     1       4.858   4.020  16.097  0.00  0.00    +0.000 A 
ATOM      3  C   UNL     1       5.555   4.736  15.130  0.00  0.00    +0.000 A 
ATOM      4 BR   UNL     1       6.322   3.848  13.652  0.00  0.00    +0.000 Br
ATOM      5  C   UNL     1       5.690   6.108  15.251  0.00  0.00    +0.000 A 
ATOM      6  C   UNL     1       5.114   6.754  16.341  0.00  0.00    +0.000 A 
ATOM      7  C   UNL     1       4.358   6.059  17.312  0.00  0.00    +0.000 A 
ENDROOT
BRANCH   1   8
ATOM      8  C   UNL     1       3.495   3.722  18.150  0.00  0.00    +0.000 C 
ATOM      9  N   UNL     1       3.984   3.607  19.357  0.00  0.00    +0.000 NA
BRANCH   9  10
ATOM     10  N   UNL     1       3.409   2.758  20.254  0.00  0.00    +0.000 N 
ATOM     11  C   UNL     1       2.512   3.200  21.186  0.00  0.00    +0.000 C 
ATOM     12  N   UNL     1       1.962   4.366  21.199  0.00  0.00    +0.000 NA
ATOM     13  N   UNL     1       2.199   2.302  22.144  0.00  0.00    +0.000 N 
ATOM     14  H   UNL     1       3.986   1.995  20.605  0.00  0.00    +0.000 HD
ATOM     15  H   UNL     1       2.369   4.843  20.382  0.00  0.00    +0.000 HD
ATOM     16  H   UNL     1       1.912   1.407  21.770  0.00  0.00    +0.000 HD
ATOM     17  H   UNL     1       1.452   2.692  22.711  0.00  0.00    +0.000 HD
ENDBRANCH   9  10
BRANCH   8  19
ATOM     18  C   UNL     1       1.021   3.917  17.676  0.00  0.00    +0.000 C 
ATOM     19  C   UNL     1       2.232   3.000  17.698  0.00  0.00    +0.000 C 
ENDBRANCH   8  19
ENDBRANCH   1   8
BRANCH   7  20
ATOM     20  O   UNL     1       3.725   6.729  18.338  0.00  0.00    +0.000 OA
BRANCH  20  21
ATOM     21  C   UNL     1       2.700   7.645  17.929  0.00  0.00    +0.000 C 
BRANCH  21  22
ATOM     22  C   UNL     1       1.918   8.287  19.052  0.00  0.00    +0.000 A 
ATOM     23  C   UNL     1       1.829   7.754  20.341  0.00  0.00    +0.000 A 
ATOM     24  C   UNL     1       1.094   8.415  21.332  0.00  0.00    +0.000 A 
ATOM     25  C   UNL     1       0.465   9.625  21.042  0.00  0.00    +0.000 A 
ATOM     26 CL   UNL     1      -0.414  10.449  22.271  0.00  0.00    +0.000 Cl
ATOM     27  C   UNL     1       0.553  10.176  19.772  0.00  0.00    +0.000 A 
ATOM     28  C   UNL     1       1.275   9.510  18.780  0.00  0.00    +0.000 A 
ENDBRANCH  21  22
ENDBRANCH  20  21
ENDBRANCH   7  20
TORSDOF 6
ENDMDL
MODEL 2
REMARK VINA RESULT:      -7.7      1.602      1.812
REMARK  Name = 
REMARK  7 active torsions:
REMARK  status: ('A' for Active; 'I' for Inactive)
REMARK    1  A    between atoms: C_1  and  C_2
REMARK    2  A    between atoms: C_2  and  C_3
REMARK    3  A    between atoms: C_3  and  C_9
REMARK    4  A    between atoms: N_4  and  N_5
REMARK    5  A    between atoms: C_15  and  O_16
REMARK    6  A    between atoms: O_16  and  C_17
REMARK    7  A    between atoms: C_17  and  C_18
REMARK                            x       y       z     vdW  Elec       q    Type
REMARK                         _______ _______ _______ _____ _____    ______ ____
ROOT
ATOM      1  C   UNL     1       3.546   5.591  18.379  0.00  0.00    +0.000 A 
ATOM      2  C   UNL     1       4.828   4.988  18.343  0.00  0.00    +0.000 A 
ATOM      3  C   UNL     1       5.897   5.573  17.673  0.00  0.00    +0.000 A 
ATOM      4 BR   UNL     1       7.577   4.712  17.622  0.00  0.00    +0.000 Br
ATOM      5  C   UNL     1       5.732   6.792  17.040  0.00  0.00    +0.000 A 
ATOM      6  C   UNL     1       4.487   7.414  17.078  0.00  0.00    +0.000 A 
ATOM      7  C   UNL     1       3.370   6.820  17.708  0.00  0.00    +0.000 A 
ENDROOT
BRANCH   1   8
ATOM      8  C   UNL     1       2.482   4.797  19.132  0.00  0.00    +0.000 C 
ATOM      9  N   UNL     1       2.500   4.898  20.435  0.00  0.00    +0.000 NA
BRANCH   9  10
ATOM     10  N   UNL     1       1.620   4.186  21.193  0.00  0.00    +0.000 N 
ATOM     11  C   UNL     1       1.955   2.976  21.732  0.00  0.00    +0.000 C 
ATOM     12  N   UNL     1       3.144   2.479  21.772  0.00  0.00    +0.000 NA
ATOM     13  N   UNL     1       0.924   2.286  22.264  0.00  0.00    +0.000 N 
ATOM     14  H   UNL     1       0.638   4.233  20.929  0.00  0.00    +0.000 HD
ATOM     15  H   UNL     1       3.727   3.188  21.304  0.00  0.00    +0.000 HD
ATOM     16  H   UNL     1       0.380   2.830  22.921  0.00  0.00    +0.000 HD
ATOM     17  H   UNL     1       1.299   1.463  22.727  0.00  0.00    +0.000 HD
ENDBRANCH   9  10
BRANCH   8  19
ATOM     18  C   UNL     1       1.952   2.571  18.061  0.00  0.00    +0.000 C 
ATOM     19  C   UNL     1       1.448   3.967  18.382  0.00  0.00    +0.000 C 
ENDBRANCH   8  19
ENDBRANCH   1   8
BRANCH   7  20
ATOM     20  O   UNL     1       2.126   7.413  17.662  0.00  0.00    +0.000 OA
BRANCH  20  21
ATOM     21  C   UNL     1       2.090   8.792  18.057  0.00  0.00    +0.000 C 
BRANCH  21  22
ATOM     22  C   UNL     1       1.377   9.076  19.358  0.00  0.00    +0.000 A 
ATOM     23  C   UNL     1       1.528   8.302  20.512  0.00  0.00    +0.000 A 
ATOM     24  C   UNL     1       0.841   8.637  21.685  0.00  0.00    +0.000 A 
ATOM     25  C   UNL     1       0.017   9.762  21.713  0.00  0.00    +0.000 A 
ATOM     26 CL   UNL     1      -0.803  10.186  23.164  0.00  0.00    +0.000 Cl
ATOM     27  C   UNL     1      -0.135  10.549  20.581  0.00  0.00    +0.000 A 
ATOM     28  C   UNL     1       0.540  10.207  19.407  0.00  0.00    +0.000 A 
ENDBRANCH  21  22
ENDBRANCH  20  21
ENDBRANCH   7  20
TORSDOF 6
ENDMDL
MODEL 3
REMARK VINA RESULT:      -7.5      1.206      1.676
REMARK  Name = 
REMARK  7 active torsions:
REMARK  status: ('A' for Active; 'I' for Inactive)
REMARK    1  A    between atoms: C_1  and  C_2
REMARK    2  A    between atoms: C_2  and  C_3
REMARK    3  A    between atoms: C_3  and  C_9
REMARK    4  A    between atoms: N_4  and  N_5
REMARK    5  A    between atoms: C_15  and  O_16
REMARK    6  A    between atoms: O_16  and  C_17
REMARK    7  A    between atoms: C_17  and  C_18
REMARK                            x       y       z     vdW  Elec       q    Type
REMARK                         _______ _______ _______ _____ _____    ______ ____
ROOT
ATOM      1  C   UNL     1       4.156   4.984  18.051  0.00  0.00    +0.000 A 
ATOM      2  C   UNL     1       5.085   4.506  17.094  0.00  0.00    +0.000 A 
ATOM      3  C   UNL     1       5.538   5.302  16.048  0.00  0.00    +0.000 A 
ATOM      4 BR   UNL     1       6.749   4.608  14.776  0.00  0.00    +0.000 Br
ATOM      5  C   UNL     1       5.102   6.610  15.936  0.00  0.00    +0.000 A 
ATOM      6  C   UNL     1       4.204   7.109  16.875  0.00  0.00    +0.000 A 
ATOM      7  C   UNL     1       3.688   6.309  17.920  0.00  0.00    +0.000 A 
ENDROOT
BRANCH   1   8
ATOM      8  C   UNL     1       3.743   3.967  19.112  0.00  0.00    +0.000 C 
ATOM      9  N   UNL     1       2.980   4.415  20.075  0.00  0.00    +0.000 NA
BRANCH   9  10
ATOM     10  N   UNL     1       2.603   3.591  21.093  0.00  0.00    +0.000 N 
ATOM     11  C   UNL     1       1.339   3.077  21.167  0.00  0.00    +0.000 C 
ATOM     12  N   UNL     1       0.456   3.126  20.228  0.00  0.00    +0.000 NA
ATOM     13  N   UNL     1       1.041   2.468  22.333  0.00  0.00    +0.000 N 
ATOM     14  H   UNL     1       2.997   3.781  22.012  0.00  0.00    +0.000 HD
ATOM     15  H   UNL     1       0.928   3.637  19.468  0.00  0.00    +0.000 HD
ATOM     16  H   UNL     1       1.724   1.773  22.604  0.00  0.00    +0.000 HD
ATOM     17  H   UNL     1       0.127   2.033  22.239  0.00  0.00    +0.000 HD
ENDBRANCH   9  10
BRANCH   8  19
ATOM     18  C   UNL     1       3.212   1.670  18.203  0.00  0.00    +0.000 C 
ATOM     19  C   UNL     1       4.182   2.512  19.015  0.00  0.00    +0.000 C 
ENDBRANCH   8  19
ENDBRANCH   1   8
BRANCH   7  20
ATOM     20  O   UNL     1       2.735   6.797  18.789  0.00  0.00    +0.000 OA
BRANCH  20  21
ATOM     21  C   UNL     1       2.216   8.094  18.461  0.00  0.00    +0.000 C 
BRANCH  21  22
ATOM     22  C   UNL     1       1.434   8.776  19.560  0.00  0.00    +0.000 A 
ATOM     23  C   UNL     1       0.649   9.915  19.361  0.00  0.00    +0.000 A 
ATOM     24  C   UNL     1      -0.057  10.484  20.429  0.00  0.00    +0.000 A 
ATOM     25  C   UNL     1       0.003   9.900  21.694  0.00  0.00    +0.000 A 
ATOM     26 CL   UNL     1      -0.888  10.585  22.996  0.00  0.00    +0.000 Cl
ATOM     27  C   UNL     1       0.768   8.762  21.906  0.00  0.00    +0.000 A 
ATOM     28  C   UNL     1       1.482   8.203  20.845  0.00  0.00    +0.000 A 
ENDBRANCH  21  22
ENDBRANCH  20  21
ENDBRANCH   7  20
TORSDOF 6
ENDMDL
MODEL 4
REMARK VINA RESULT:      -7.4      0.916      1.574
REMARK  Name = 
REMARK  7 active torsions:
REMARK  status: ('A' for Active; 'I' for Inactive)
REMARK    1  A    between atoms: C_1  and  C_2
REMARK    2  A    between atoms: C_2  and  C_3
REMARK    3  A    between atoms: C_3  and  C_9
REMARK    4  A    between atoms: N_4  and  N_5
REMARK    5  A    between atoms: C_15  and  O_16
REMARK    6  A    between atoms: O_16  and  C_17
REMARK    7  A    between atoms: C_17  and  C_18
REMARK                            x       y       z     vdW  Elec       q    Type
REMARK                         _______ _______ _______ _____ _____    ______ ____
ROOT
ATOM      1  C   UNL     1       3.984   4.678  17.378  0.00  0.00    +0.000 A 
ATOM      2  C   UNL     1       4.623   4.041  16.285  0.00  0.00    +0.000 A 
ATOM      3  C   UNL     1       5.331   4.758  15.328  0.00  0.00    +0.000 A 
ATOM      4 BR   UNL     1       6.135   3.868  13.869  0.00  0.00    +0.000 Br
ATOM      5  C   UNL     1       5.450   6.132  15.442  0.00  0.00    +0.000 A 
ATOM      6  C   UNL     1       4.847   6.779  16.517  0.00  0.00    +0.000 A 
ATOM      7  C   UNL     1       4.080   6.082  17.478  0.00  0.00    +0.000 A 
ENDROOT
BRANCH   1   8
ATOM      8  C   UNL     1       3.225   3.742  18.315  0.00  0.00    +0.000 C 
ATOM      9  N   UNL     1       2.160   4.238  18.889  0.00  0.00    +0.000 NA
BRANCH   9  10
ATOM     10  N   UNL     1       1.448   3.493  19.779  0.00  0.00    +0.000 N 
ATOM     11  C   UNL     1       1.656   3.596  21.126  0.00  0.00    +0.000 C 
ATOM     12  N   UNL     1       2.356   4.509  21.707  0.00  0.00    +0.000 NA
ATOM     13  N   UNL     1       1.047   2.647  21.869  0.00  0.00    +0.000 N 
ATOM     14  H   UNL     1       1.200   2.546  19.498  0.00  0.00    +0.000 HD
ATOM     15  H   UNL     1       2.704   5.088  20.929  0.00  0.00    +0.000 HD
ATOM     16  H   UNL     1       0.061   2.557  21.667  0.00  0.00    +0.000 HD
ATOM     17  H   UNL     1       1.177   2.881  22.849  0.00  0.00    +0.000 HD
ENDBRANCH   9  10
BRANCH   8  19
ATOM     18  C   UNL     1       4.575   2.161  19.750  0.00  0.00    +0.000 C 
ATOM     19  C   UNL     1       3.684   2.306  18.528  0.00  0.00    +0.000 C 
ENDBRANCH   8  19
ENDBRANCH   1   8
BRANCH   7  20
ATOM     20  O   UNL     1       3.421   6.752  18.488  0.00  0.00    +0.000 OA
BRANCH  20  21
ATOM     21  C   UNL     1       2.550   7.807  18.055  0.00  0.00    +0.000 C 
BRANCH  21  22
ATOM     22  C   UNL     1       1.763   8.489  19.150  0.00  0.00    +0.000 A 
ATOM     23  C   UNL     1       1.051   9.678  18.969  0.00  0.00    +0.000 A 
ATOM     24  C   UNL     1       0.335  10.243  20.031  0.00  0.00    +0.000 A 
ATOM     25  C   UNL     1       0.311   9.608  21.272  0.00  0.00    +0.000 A 
ATOM     26 CL   UNL     1      -0.593  10.291  22.566  0.00  0.00    +0.000 Cl
ATOM     27  C   UNL     1       1.002   8.420  21.466  0.00  0.00    +0.000 A 
ATOM     28  C   UNL     1       1.727   7.864  20.411  0.00  0.00    +0.000 A 
ENDBRANCH  21  22
ENDBRANCH  20  21
ENDBRANCH   7  20
TORSDOF 6
ENDMDL
MODEL 5
REMARK VINA RESULT:      -7.4      0.950      1.150
REMARK  Name = 
REMARK  7 active torsions:
REMARK  status: ('A' for Active; 'I' for Inactive)
REMARK    1  A    between atoms: C_1  and  C_2
REMARK    2  A    between atoms: C_2  and  C_3
REMARK    3  A    between atoms: C_3  and  C_9
REMARK    4  A    between atoms: N_4  and  N_5
REMARK    5  A    between atoms: C_15  and  O_16
REMARK    6  A    between atoms: O_16  and  C_17
REMARK    7  A    between atoms: C_17  and  C_18
REMARK                            x       y       z     vdW  Elec       q    Type
REMARK                         _______ _______ _______ _____ _____    ______ ____
ROOT
ATOM      1  C   UNL     1       4.123   4.786  17.338  0.00  0.00    +0.000 A 
ATOM      2  C   UNL     1       4.711   4.111  16.240  0.00  0.00    +0.000 A 
ATOM      3  C   UNL     1       5.379   4.794  15.230  0.00  0.00    +0.000 A 
ATOM      4 BR   UNL     1       6.115   3.853  13.767  0.00  0.00    +0.000 Br
ATOM      5  C   UNL     1       5.507   6.170  15.293  0.00  0.00    +0.000 A 
ATOM      6  C   UNL     1       4.953   6.854  16.373  0.00  0.00    +0.000 A 
ATOM      7  C   UNL     1       4.227   6.192  17.388  0.00  0.00    +0.000 A 
ENDROOT
BRANCH   1   8
ATOM      8  C   UNL     1       3.403   3.884  18.338  0.00  0.00    +0.000 C 
ATOM      9  N   UNL     1       2.167   4.204  18.619  0.00  0.00    +0.000 NA
BRANCH   9  10
ATOM     10  N   UNL     1       1.462   3.487  19.538  0.00  0.00    +0.000 N 
ATOM     11  C   UNL     1       1.622   3.690  20.880  0.00  0.00    +0.000 C 
ATOM     12  N   UNL     1       2.260   4.674  21.417  0.00  0.00    +0.000 NA
ATOM     13  N   UNL     1       1.035   2.765  21.668  0.00  0.00    +0.000 N 
ATOM     14  H   UNL     1       1.268   2.513  19.316  0.00  0.00    +0.000 HD
ATOM     15  H   UNL     1       2.606   5.215  20.611  0.00  0.00    +0.000 HD
ATOM     16  H   UNL     1       0.060   2.614  21.445  0.00  0.00    +0.000 HD
ATOM     17  H   UNL     1       1.122   3.070  22.634  0.00  0.00    +0.000 HD
ENDBRANCH   9  10
BRANCH   8  19
ATOM     18  C   UNL     1       3.616   1.367  18.316  0.00  0.00    +0.000 C 
ATOM     19  C   UNL     1       4.097   2.667  18.936  0.00  0.00    +0.000 C 
ENDBRANCH   8  19
ENDBRANCH   1   8
BRANCH   7  20
ATOM     20  O   UNL     1       3.616   6.897  18.404  0.00  0.00    +0.000 OA
BRANCH  20  21
ATOM     21  C   UNL     1       2.587   7.805  17.984  0.00  0.00    +0.000 C 
BRANCH  21  22
ATOM     22  C   UNL     1       1.785   8.437  19.098  0.00  0.00    +0.000 A 
ATOM     23  C   UNL     1       1.696   7.906  20.388  0.00  0.00    +0.000 A 
ATOM     24  C   UNL     1       0.941   8.558  21.371  0.00  0.00    +0.000 A 
ATOM     25  C   UNL     1       0.292   9.755  21.072  0.00  0.00    +0.000 A 
ATOM     26 CL   UNL     1      -0.611  10.567  22.291  0.00  0.00    +0.000 Cl
ATOM     27  C   UNL     1       0.379  10.303  19.800  0.00  0.00    +0.000 A 
ATOM     28  C   UNL     1       1.121   9.646  18.817  0.00  0.00    +0.000 A 
ENDBRANCH  21  22
ENDBRANCH  20  21
ENDBRANCH   7  20
TORSDOF 6
ENDMDL
MODEL 6
REMARK VINA RESULT:      -7.3      2.690      3.700
REMARK  Name = 
REMARK  7 active torsions:
REMARK  status: ('A' for Active; 'I' for Inactive)
REMARK    1  A    between atoms: C_1  and  C_2
REMARK    2  A    between atoms: C_2  and  C_3
REMARK    3  A    between atoms: C_3  and  C_9
REMARK    4  A    between atoms: N_4  and  N_5
REMARK    5  A    between atoms: C_15  and  O_16
REMARK    6  A    between atoms: O_16  and  C_17
REMARK    7  A    between atoms: C_17  and  C_18
REMARK                            x       y       z     vdW  Elec       q    Type
REMARK                         _______ _______ _______ _____ _____    ______ ____
ROOT
ATOM      1  C   UNL     1       5.523   5.277  16.941  0.00  0.00    +0.000 A 
ATOM      2  C   UNL     1       5.955   4.442  15.880  0.00  0.00    +0.000 A 
ATOM      3  C   UNL     1       5.834   4.823  14.549  0.00  0.00    +0.000 A 
ATOM      4 BR   UNL     1       6.390   3.660  13.169  0.00  0.00    +0.000 Br
ATOM      5  C   UNL     1       5.305   6.061  14.230  0.00  0.00    +0.000 A 
ATOM      6  C   UNL     1       4.892   6.908  15.255  0.00  0.00    +0.000 A 
ATOM      7  C   UNL     1       4.956   6.528  16.614  0.00  0.00    +0.000 A 
ENDROOT
BRANCH   1   8
ATOM      8  C   UNL     1       5.701   4.689  18.338  0.00  0.00    +0.000 C 
ATOM      9  N   UNL     1       5.115   3.542  18.560  0.00  0.00    +0.000 NA
BRANCH   9  10
ATOM     10  N   UNL     1       5.178   2.965  19.793  0.00  0.00    +0.000 N 
ATOM     11  C   UNL     1       4.724   1.694  20.013  0.00  0.00    +0.000 C 
ATOM     12  N   UNL     1       4.396   0.849  19.096  0.00  0.00    +0.000 NA
ATOM     13  N   UNL     1       4.641   1.338  21.312  0.00  0.00    +0.000 N 
ATOM     14  H   UNL     1       5.030   3.572  20.597  0.00  0.00    +0.000 HD
ATOM     15  H   UNL     1       4.544   1.365  18.217  0.00  0.00    +0.000 HD
ATOM     16  H   UNL     1       5.496   1.503  21.824  0.00  0.00    +0.000 HD
ATOM     17  H   UNL     1       4.401   0.351  21.354  0.00  0.00    +0.000 HD
ENDBRANCH   9  10
BRANCH   8  19
ATOM     18  C   UNL     1       7.829   5.970  18.803  0.00  0.00    +0.000 C 
ATOM     19  C   UNL     1       6.547   5.402  19.386  0.00  0.00    +0.000 C 
ENDBRANCH   8  19
ENDBRANCH   1   8
BRANCH   7  20
ATOM     20  O   UNL     1       4.464   7.347  17.609  0.00  0.00    +0.000 OA
BRANCH  20  21
ATOM     21  C   UNL     1       3.041   7.303  17.788  0.00  0.00    +0.000 C 
BRANCH  21  22
ATOM     22  C   UNL     1       2.520   6.111  18.557  0.00  0.00    +0.000 A 
ATOM     23  C   UNL     1       1.928   4.998  17.955  0.00  0.00    +0.000 A 
ATOM     24  C   UNL     1       1.480   3.925  18.736  0.00  0.00    +0.000 A 
ATOM     25  C   UNL     1       1.645   3.954  20.120  0.00  0.00    +0.000 A 
ATOM     26 CL   UNL     1       1.119   2.621  21.072  0.00  0.00    +0.000 Cl
ATOM     27  C   UNL     1       2.243   5.045  20.733  0.00  0.00    +0.000 A 
ATOM     28  C   UNL     1       2.677   6.121  19.956  0.00  0.00    +0.000 A 
ENDBRANCH  21  22
ENDBRANCH  20  21
ENDBRANCH   7  20
TORSDOF 6
ENDMDL
MODEL 7
REMARK VINA RESULT:      -7.3      1.075      1.509
REMARK  Name = 
REMARK  7 active torsions:
REMARK  status: ('A' for Active; 'I' for Inactive)
REMARK    1  A    between atoms: C_1  and  C_2
REMARK    2  A    between atoms: C_2  and  C_3
REMARK    3  A    between atoms: C_3  and  C_9
REMARK    4  A    between atoms: N_4  and  N_5
REMARK    5  A    between atoms: C_15  and  O_16
REMARK    6  A    between atoms: O_16  and  C_17
REMARK    7  A    between atoms: C_17  and  C_18
REMARK                            x       y       z     vdW  Elec       q    Type
REMARK                         _______ _______ _______ _____ _____    ______ ____
ROOT
ATOM      1  C   UNL     1       4.295   4.622  17.602  0.00  0.00    +0.000 A 
ATOM      2  C   UNL     1       4.953   4.052  16.485  0.00  0.00    +0.000 A 
ATOM      3  C   UNL     1       5.469   4.834  15.457  0.00  0.00    +0.000 A 
ATOM      4 BR   UNL     1       6.304   4.025  13.969  0.00  0.00    +0.000 Br
ATOM      5  C   UNL     1       5.371   6.212  15.523  0.00  0.00    +0.000 A 
ATOM      6  C   UNL     1       4.746   6.798  16.621  0.00  0.00    +0.000 A 
ATOM      7  C   UNL     1       4.169   6.026  17.655  0.00  0.00    +0.000 A 
ENDROOT
BRANCH   1   8
ATOM      8  C   UNL     1       3.764   3.615  18.620  0.00  0.00    +0.000 C 
ATOM      9  N   UNL     1       3.482   4.087  19.806  0.00  0.00    +0.000 NA
BRANCH   9  10
ATOM     10  N   UNL     1       3.050   3.253  20.793  0.00  0.00    +0.000 N 
ATOM     11  C   UNL     1       1.734   3.195  21.156  0.00  0.00    +0.000 C 
ATOM     12  N   UNL     1       0.755   3.730  20.508  0.00  0.00    +0.000 NA
ATOM     13  N   UNL     1       1.486   2.501  22.287  0.00  0.00    +0.000 N 
ATOM     14  H   UNL     1       3.675   3.107  21.583  0.00  0.00    +0.000 HD
ATOM     15  H   UNL     1       1.210   4.193  19.708  0.00  0.00    +0.000 HD
ATOM     16  H   UNL     1       1.895   1.576  22.282  0.00  0.00    +0.000 HD
ATOM     17  H   UNL     1       0.479   2.431  22.401  0.00  0.00    +0.000 HD
ENDBRANCH   9  10
BRANCH   8  19
ATOM     18  C   UNL     1       2.168   1.902  17.670  0.00  0.00    +0.000 C 
ATOM     19  C   UNL     1       3.553   2.155  18.240  0.00  0.00    +0.000 C 
ENDBRANCH   8  19
ENDBRANCH   1   8
BRANCH   7  20
ATOM     20  O   UNL     1       3.481   6.622  18.691  0.00  0.00    +0.000 OA
BRANCH  20  21
ATOM     21  C   UNL     1       2.139   7.026  18.382  0.00  0.00    +0.000 C 
BRANCH  21  22
ATOM     22  C   UNL     1       1.767   8.425  18.815  0.00  0.00    +0.000 A 
ATOM     23  C   UNL     1       1.862   9.546  17.985  0.00  0.00    +0.000 A 
ATOM     24  C   UNL     1       1.486  10.809  18.456  0.00  0.00    +0.000 A 
ATOM     25  C   UNL     1       0.991  10.951  19.751  0.00  0.00    +0.000 A 
ATOM     26 CL   UNL     1       0.502  12.501  20.316  0.00  0.00    +0.000 Cl
ATOM     27  C   UNL     1       0.877   9.848  20.585  0.00  0.00    +0.000 A 
ATOM     28  C   UNL     1       1.266   8.590  20.120  0.00  0.00    +0.000 A 
ENDBRANCH  21  22
ENDBRANCH  20  21
ENDBRANCH   7  20
TORSDOF 6
ENDMDL
MODEL 8
REMARK VINA RESULT:      -7.2      3.336      5.067
REMARK  Name = 
REMARK  7 active torsions:
REMARK  status: ('A' for Active; 'I' for Inactive)
REMARK    1  A    between atoms: C_1  and  C_2
REMARK    2  A    between atoms: C_2  and  C_3
REMARK    3  A    between atoms: C_3  and  C_9
REMARK    4  A    between atoms: N_4  and  N_5
REMARK    5  A    between atoms: C_15  and  O_16
REMARK    6  A    between atoms: O_16  and  C_17
REMARK    7  A    between atoms: C_17  and  C_18
REMARK                            x       y       z     vdW  Elec       q    Type
REMARK                         _______ _______ _______ _____ _____    ______ ____
ROOT
ATOM      1  C   UNL     1       4.211   5.983  18.040  0.00  0.00    +0.000 A 
ATOM      2  C   UNL     1       4.281   4.700  18.637  0.00  0.00    +0.000 A 
ATOM      3  C   UNL     1       3.363   4.284  19.594  0.00  0.00    +0.000 A 
ATOM      4 BR   UNL     1       3.520   2.578  20.388  0.00  0.00    +0.000 Br
ATOM      5  C   UNL     1       2.327   5.121  19.968  0.00  0.00    +0.000 A 
ATOM      6  C   UNL     1       2.225   6.380  19.381  0.00  0.00    +0.000 A 
ATOM      7  C   UNL     1       3.172   6.849  18.443  0.00  0.00    +0.000 A 
ENDROOT
BRANCH   1   8
ATOM      8  C   UNL     1       5.317   6.286  17.032  0.00  0.00    +0.000 C 
ATOM      9  N   UNL     1       5.175   5.762  15.843  0.00  0.00    +0.000 NA
BRANCH   9  10
ATOM     10  N   UNL     1       6.137   5.937  14.894  0.00  0.00    +0.000 N 
ATOM     11  C   UNL     1       6.774   4.874  14.317  0.00  0.00    +0.000 C 
ATOM     12  N   UNL     1       6.420   3.639  14.429  0.00  0.00    +0.000 NA
ATOM     13  N   UNL     1       7.849   5.196  13.567  0.00  0.00    +0.000 N 
ATOM     14  H   UNL     1       6.748   6.744  14.998  0.00  0.00    +0.000 HD
ATOM     15  H   UNL     1       5.594   3.672  15.044  0.00  0.00    +0.000 HD
ATOM     16  H   UNL     1       7.653   5.911  12.879  0.00  0.00    +0.000 HD
ATOM     17  H   UNL     1       8.175   4.353  13.103  0.00  0.00    +0.000 HD
ENDBRANCH   9  10
BRANCH   8  19
ATOM     18  C   UNL     1       7.543   6.440  18.216  0.00  0.00    +0.000 C 
ATOM     19  C   UNL     1       6.493   7.179  17.406  0.00  0.00    +0.000 C 
ENDBRANCH   8  19
ENDBRANCH   1   8
BRANCH   7  20
ATOM     20  O   UNL     1       3.100   8.130  17.937  0.00  0.00    +0.000 OA
BRANCH  20  21
ATOM     21  C   UNL     1       1.775   8.666  17.814  0.00  0.00    +0.000 C 
BRANCH  21  22
ATOM     22  C   UNL     1       1.486   9.883  18.662  0.00  0.00    +0.000 A 
ATOM     23  C   UNL     1       1.898  11.176  18.329  0.00  0.00    +0.000 A 
ATOM     24  C   UNL     1       1.581  12.257  19.162  0.00  0.00    +0.000 A 
ATOM     25  C   UNL     1       0.831  12.048  20.318  0.00  0.00    +0.000 A 
ATOM     26 CL   UNL     1       0.419  13.383  21.323  0.00  0.00    +0.000 Cl
ATOM     27  C   UNL     1       0.403  10.773  20.658  0.00  0.00    +0.000 A 
ATOM     28  C   UNL     1       0.731   9.694  19.835  0.00  0.00    +0.000 A 
ENDBRANCH  21  22
ENDBRANCH  20  21
ENDBRANCH   7  20
TORSDOF 6
ENDMDL
MODEL 9
REMARK VINA RESULT:      -7.2      5.574      8.485
REMARK  Name = 
REMARK  7 active torsions:
REMARK  status: ('A' for Active; 'I' for Inactive)
REMARK    1  A    between atoms: C_1  and  C_2
REMARK    2  A    between atoms: C_2  and  C_3
REMARK    3  A    between atoms: C_3  and  C_9
REMARK    4  A    between atoms: N_4  and  N_5
REMARK    5  A    between atoms: C_15  and  O_16
REMARK    6  A    between atoms: O_16  and  C_17
REMARK    7  A    between atoms: C_17  and  C_18
REMARK                            x       y       z     vdW  Elec       q    Type
REMARK                         _______ _______ _______ _____ _____    ______ ____
ROOT
ATOM      1  C   UNL     1      -0.472  10.224  20.440  0.00  0.00    +0.000 A 
ATOM      2  C   UNL     1      -0.903  11.397  21.107  0.00  0.00    +0.000 A 
ATOM      3  C   UNL     1      -0.990  11.465  22.492  0.00  0.00    +0.000 A 
ATOM      4 BR   UNL     1      -1.607  13.040  23.333  0.00  0.00    +0.000 Br
ATOM      5  C   UNL     1      -0.623  10.376  23.262  0.00  0.00    +0.000 A 
ATOM      6  C   UNL     1      -0.177   9.218  22.631  0.00  0.00    +0.000 A 
ATOM      7  C   UNL     1      -0.125   9.103  21.224  0.00  0.00    +0.000 A 
ENDROOT
BRANCH   1   8
ATOM      8  C   UNL     1      -0.467  10.313  18.916  0.00  0.00    +0.000 C 
ATOM      9  N   UNL     1      -1.617  10.130  18.323  0.00  0.00    +0.000 NA
BRANCH   9  10
ATOM     10  N   UNL     1      -1.700  10.142  16.963  0.00  0.00    +0.000 N 
ATOM     11  C   UNL     1      -2.670  10.851  16.311  0.00  0.00    +0.000 C 
ATOM     12  N   UNL     1      -3.453  11.720  16.854  0.00  0.00    +0.000 NA
ATOM     13  N   UNL     1      -2.770  10.594  14.990  0.00  0.00    +0.000 N 
ATOM     14  H   UNL     1      -1.458   9.282  16.476  0.00  0.00    +0.000 HD
ATOM     15  H   UNL     1      -3.176  11.720  17.847  0.00  0.00    +0.000 HD
ATOM     16  H   UNL     1      -1.887  10.669  14.503  0.00  0.00    +0.000 HD
ATOM     17  H   UNL     1      -3.439  11.247  14.591  0.00  0.00    +0.000 HD
ENDBRANCH   9  10
BRANCH   8  19
ATOM     18  C   UNL     1       1.616   9.383  17.830  0.00  0.00    +0.000 C 
ATOM     19  C   UNL     1       0.814  10.631  18.155  0.00  0.00    +0.000 C 
ENDBRANCH   8  19
ENDBRANCH   1   8
BRANCH   7  20
ATOM     20  O   UNL     1       0.239   7.918  20.618  0.00  0.00    +0.000 OA
BRANCH  20  21
ATOM     21  C   UNL     1       1.532   7.416  20.985  0.00  0.00    +0.000 C 
BRANCH  21  22
ATOM     22  C   UNL     1       1.932   6.113  20.332  0.00  0.00    +0.000 A 
ATOM     23  C   UNL     1       1.729   4.859  20.913  0.00  0.00    +0.000 A 
ATOM     24  C   UNL     1       2.117   3.695  20.238  0.00  0.00    +0.000 A 
ATOM     25  C   UNL     1       2.688   3.782  18.970  0.00  0.00    +0.000 A 
ATOM     26 CL   UNL     1       3.137   2.348  18.132  0.00  0.00    +0.000 Cl
ATOM     27  C   UNL     1       2.886   5.018  18.372  0.00  0.00    +0.000 A 
ATOM     28  C   UNL     1       2.511   6.180  19.050  0.00  0.00    +0.000 A 
ENDBRANCH  21  22
ENDBRANCH  20  21
ENDBRANCH   7  20
TORSDOF 6
ENDMDL
