MODEL 1
REMARK VINA RESULT:      -6.8      0.000      0.000
REMARK  Name = 
REMARK  15 active torsions:
REMARK  status: ('A' for Active; 'I' for Inactive)
REMARK    1  A    between atoms: C_1  and  C_2
REMARK    2  A    between atoms: C_2  and  C_3
REMARK    3  A    between atoms: C_3  and  C_4
REMARK    4  A    between atoms: C_4  and  C_5
REMARK    5  A    between atoms: C_5  and  C_6
REMARK    6  A    between atoms: C_6  and  S_7
REMARK    7  A    between atoms: S_7  and  C_8
REMARK    8  A    between atoms: C_8  and  C_9
REMARK    9  A    between atoms: C_15  and  C_16
REMARK   10  A    between atoms: C_16  and  C_17
REMARK   11  A    between atoms: C_18  and  C_19
REMARK   12  A    between atoms: C_19  and  C_20
REMARK   13  A    between atoms: C_20  and  C_21
REMARK   14  A    between atoms: C_21  and  C_22
REMARK   15  A    between atoms: C_22  and  O_24
REMARK                            x       y       z     vdW  Elec       q    Type
REMARK                         _______ _______ _______ _____ _____    ______ ____
ROOT
ATOM      1  C   UNL     1       3.402   3.980  17.208  0.00  0.00    +0.000 C 
ATOM      2  C   UNL     1       2.748   2.721  17.801  0.00  0.00    +0.000 C 
ATOM      3  C   UNL     1       2.966   2.540  19.309  0.00  0.00    +0.000 C 
ATOM      4  C   UNL     1       1.966   3.528  19.899  0.00  0.00    +0.000 C 
ATOM      5  C   UNL     1       1.480   4.265  18.661  0.00  0.00    +0.000 C 
ATOM      6  O   UNL     1       1.350   3.124  17.769  0.00  0.00    +0.000 OA
ATOM      7  C   UNL     1       2.538   5.093  17.888  0.00  0.00    +0.000 C 
ENDROOT
BRANCH   1   8
ATOM      8  C   UNL     1       4.931   4.031  17.254  0.00  0.00    +0.000 C 
BRANCH   8   9
ATOM      9  S   UNL     1       5.657   5.204  16.030  0.00  0.00    +0.000 S 
BRANCH   9  10
ATOM     10  C   UNL     1       6.284   4.032  14.755  0.00  0.00    +0.000 C 
BRANCH  10  11
ATOM     11  C   UNL     1       5.436   3.997  13.482  0.00  0.00    +0.000 C 
BRANCH  11  12
ATOM     12  C   UNL     1       6.134   3.306  12.306  0.00  0.00    +0.000 C 
BRANCH  12  13
ATOM     13  C   UNL     1       5.123   2.635  11.376  0.00  0.00    +0.000 C 
BRANCH  13  15
ATOM     14  C   UNL     1       3.319   3.738  10.000  0.00  0.00    +0.000 C 
ATOM     15  C   UNL     1       3.777   3.363  11.401  0.00  0.00    +0.000 C 
ENDBRANCH  13  15
ENDBRANCH  12  13
ENDBRANCH  11  12
ENDBRANCH  10  11
ENDBRANCH   9  10
ENDBRANCH   8   9
ENDBRANCH   1   8
BRANCH   7  16
ATOM     16  C   UNL     1       3.179   6.233  18.666  0.00  0.00    +0.000 C 
BRANCH  16  17
ATOM     17  C   UNL     1       2.473   7.571  18.578  0.00  0.00    +0.000 C 
ATOM     18  C   UNL     1       1.753   8.159  19.505  0.00  0.00    +0.000 C 
BRANCH  18  19
ATOM     19  C   UNL     1       1.568   7.636  20.882  0.00  0.00    +0.000 C 
BRANCH  19  20
ATOM     20  C   UNL     1       0.250   8.146  21.432  0.00  0.00    +0.000 C 
BRANCH  20  21
ATOM     21  C   UNL     1       0.185   9.656  21.327  0.00  0.00    +0.000 C 
BRANCH  21  22
ATOM     22  C   UNL     1      -0.182  10.265  22.643  0.00  0.00    +0.000 C 
ATOM     23  O   UNL     1      -0.918  11.229  22.804  0.00  0.00    +0.000 OA
BRANCH  22  24
ATOM     24  O   UNL     1       0.400   9.635  23.683  0.00  0.00    +0.000 OA
ATOM     25  H   UNL     1       0.949  10.227  24.241  0.00  0.00    +0.000 HD
ENDBRANCH  22  24
ENDBRANCH  21  22
ENDBRANCH  20  21
ENDBRANCH  19  20
ENDBRANCH  18  19
ENDBRANCH  16  17
ENDBRANCH   7  16
TORSDOF 14
ENDMDL
MODEL 2
REMARK VINA RESULT:      -6.7      3.441      4.732
REMARK  Name = 
REMARK  15 active torsions:
REMARK  status: ('A' for Active; 'I' for Inactive)
REMARK    1  A    between atoms: C_1  and  C_2
REMARK    2  A    between atoms: C_2  and  C_3
REMARK    3  A    between atoms: C_3  and  C_4
REMARK    4  A    between atoms: C_4  and  C_5
REMARK    5  A    between atoms: C_5  and  C_6
REMARK    6  A    between atoms: C_6  and  S_7
REMARK    7  A    between atoms: S_7  and  C_8
REMARK    8  A    between atoms: C_8  and  C_9
REMARK    9  A    between atoms: C_15  and  C_16
REMARK   10  A    between atoms: C_16  and  C_17
REMARK   11  A    between atoms: C_18  and  C_19
REMARK   12  A    between atoms: C_19  and  C_20
REMARK   13  A    between atoms: C_20  and  C_21
REMARK   14  A    between atoms: C_21  and  C_22
REMARK   15  A    between atoms: C_22  and  O_24
REMARK                            x       y       z     vdW  Elec       q    Type
REMARK                         _______ _______ _______ _____ _____    ______ ____
ROOT
ATOM      1  C   UNL     1       6.528   4.666  16.366  0.00  0.00    +0.000 C 
ATOM      2  C   UNL     1       7.583   4.661  17.485  0.00  0.00    +0.000 C 
ATOM      3  C   UNL     1       7.666   5.966  18.288  0.00  0.00    +0.000 C 
ATOM      4  C   UNL     1       6.458   5.852  19.211  0.00  0.00    +0.000 C 
ATOM      5  C   UNL     1       5.756   4.618  18.665  0.00  0.00    +0.000 C 
ATOM      6  O   UNL     1       6.928   3.785  18.445  0.00  0.00    +0.000 OA
ATOM      7  C   UNL     1       5.216   4.713  17.216  0.00  0.00    +0.000 C 
ENDROOT
BRANCH   1   8
ATOM      8  C   UNL     1       6.763   5.655  15.222  0.00  0.00    +0.000 C 
BRANCH   8   9
ATOM      9  S   UNL     1       7.394   4.856  13.686  0.00  0.00    +0.000 S 
BRANCH   9  10
ATOM     10  C   UNL     1       6.019   3.687  13.313  0.00  0.00    +0.000 C 
BRANCH  10  11
ATOM     11  C   UNL     1       6.006   3.196  11.863  0.00  0.00    +0.000 C 
BRANCH  11  12
ATOM     12  C   UNL     1       4.673   2.567  11.447  0.00  0.00    +0.000 C 
BRANCH  12  13
ATOM     13  C   UNL     1       3.627   3.637  11.133  0.00  0.00    +0.000 C 
BRANCH  13  15
ATOM     14  C   UNL     1       2.325   4.780   9.300  0.00  0.00    +0.000 C 
ATOM     15  C   UNL     1       3.469   3.832   9.624  0.00  0.00    +0.000 C 
ENDBRANCH  13  15
ENDBRANCH  12  13
ENDBRANCH  11  12
ENDBRANCH  10  11
ENDBRANCH   9  10
ENDBRANCH   8   9
ENDBRANCH   1   8
BRANCH   7  16
ATOM     16  C   UNL     1       4.152   5.775  16.978  0.00  0.00    +0.000 C 
BRANCH  16  17
ATOM     17  C   UNL     1       3.143   5.961  18.093  0.00  0.00    +0.000 C 
ATOM     18  C   UNL     1       2.089   5.222  18.352  0.00  0.00    +0.000 C 
BRANCH  18  19
ATOM     19  C   UNL     1       1.737   3.979  17.621  0.00  0.00    +0.000 C 
BRANCH  19  20
ATOM     20  C   UNL     1       1.258   2.939  18.616  0.00  0.00    +0.000 C 
BRANCH  20  21
ATOM     21  C   UNL     1       2.400   2.502  19.510  0.00  0.00    +0.000 C 
BRANCH  21  22
ATOM     22  C   UNL     1       2.045   2.681  20.952  0.00  0.00    +0.000 C 
ATOM     23  O   UNL     1       2.805   2.536  21.899  0.00  0.00    +0.000 OA
BRANCH  22  24
ATOM     24  O   UNL     1       0.753   3.026  21.126  0.00  0.00    +0.000 OA
ATOM     25  H   UNL     1       0.301   3.278  20.292  0.00  0.00    +0.000 HD
ENDBRANCH  22  24
ENDBRANCH  21  22
ENDBRANCH  20  21
ENDBRANCH  19  20
ENDBRANCH  18  19
ENDBRANCH  16  17
ENDBRANCH   7  16
TORSDOF 14
ENDMDL
MODEL 3
REMARK VINA RESULT:      -6.6      3.410      4.810
REMARK  Name = 
REMARK  15 active torsions:
REMARK  status: ('A' for Active; 'I' for Inactive)
REMARK    1  A    between atoms: C_1  and  C_2
REMARK    2  A    between atoms: C_2  and  C_3
REMARK    3  A    between atoms: C_3  and  C_4
REMARK    4  A    between atoms: C_4  and  C_5
REMARK    5  A    between atoms: C_5  and  C_6
REMARK    6  A    between atoms: C_6  and  S_7
REMARK    7  A    between atoms: S_7  and  C_8
REMARK    8  A    between atoms: C_8  and  C_9
REMARK    9  A    between atoms: C_15  and  C_16
REMARK   10  A    between atoms: C_16  and  C_17
REMARK   11  A    between atoms: C_18  and  C_19
REMARK   12  A    between atoms: C_19  and  C_20
REMARK   13  A    between atoms: C_20  and  C_21
REMARK   14  A    between atoms: C_21  and  C_22
REMARK   15  A    between atoms: C_22  and  O_24
REMARK                            x       y       z     vdW  Elec       q    Type
REMARK                         _______ _______ _______ _____ _____    ______ ____
ROOT
ATOM      1  C   UNL     1       3.377   3.800  17.419  0.00  0.00    +0.000 C 
ATOM      2  C   UNL     1       2.849   2.507  18.064  0.00  0.00    +0.000 C 
ATOM      3  C   UNL     1       2.984   2.456  19.591  0.00  0.00    +0.000 C 
ATOM      4  C   UNL     1       1.829   3.340  20.046  0.00  0.00    +0.000 C 
ATOM      5  C   UNL     1       1.339   3.925  18.730  0.00  0.00    +0.000 C 
ATOM      6  O   UNL     1       1.417   2.721  17.919  0.00  0.00    +0.000 OA
ATOM      7  C   UNL     1       2.334   4.832  17.963  0.00  0.00    +0.000 C 
ENDROOT
BRANCH   1   8
ATOM      8  C   UNL     1       4.880   4.053  17.551  0.00  0.00    +0.000 C 
BRANCH   8   9
ATOM      9  S   UNL     1       5.744   4.174  15.927  0.00  0.00    +0.000 S 
BRANCH   9  10
ATOM     10  C   UNL     1       6.981   5.491  16.288  0.00  0.00    +0.000 C 
BRANCH  10  11
ATOM     11  C   UNL     1       6.612   6.368  17.487  0.00  0.00    +0.000 C 
BRANCH  11  12
ATOM     12  C   UNL     1       7.824   7.035  18.147  0.00  0.00    +0.000 C 
BRANCH  12  13
ATOM     13  C   UNL     1       7.968   8.490  17.702  0.00  0.00    +0.000 C 
BRANCH  13  15
ATOM     14  C   UNL     1       9.093  10.693  18.199  0.00  0.00    +0.000 C 
ATOM     15  C   UNL     1       8.751   9.310  18.730  0.00  0.00    +0.000 C 
ENDBRANCH  13  15
ENDBRANCH  12  13
ENDBRANCH  11  12
ENDBRANCH  10  11
ENDBRANCH   9  10
ENDBRANCH   8   9
ENDBRANCH   1   8
BRANCH   7  16
ATOM     16  C   UNL     1       2.772   6.095  18.691  0.00  0.00    +0.000 C 
BRANCH  16  17
ATOM     17  C   UNL     1       3.078   7.290  17.812  0.00  0.00    +0.000 C 
ATOM     18  C   UNL     1       2.455   8.446  17.785  0.00  0.00    +0.000 C 
BRANCH  18  19
ATOM     19  C   UNL     1       1.355   8.827  18.705  0.00  0.00    +0.000 C 
BRANCH  19  20
ATOM     20  C   UNL     1       0.696  10.093  18.190  0.00  0.00    +0.000 C 
BRANCH  20  21
ATOM     21  C   UNL     1      -0.603  10.346  18.927  0.00  0.00    +0.000 C 
BRANCH  21  22
ATOM     22  C   UNL     1      -1.537  11.165  18.093  0.00  0.00    +0.000 C 
ATOM     23  O   UNL     1      -2.676  10.849  17.776  0.00  0.00    +0.000 OA
BRANCH  22  24
ATOM     24  O   UNL     1      -0.988  12.331  17.698  0.00  0.00    +0.000 OA
ATOM     25  H   UNL     1      -0.711  12.333  16.756  0.00  0.00    +0.000 HD
ENDBRANCH  22  24
ENDBRANCH  21  22
ENDBRANCH  20  21
ENDBRANCH  19  20
ENDBRANCH  18  19
ENDBRANCH  16  17
ENDBRANCH   7  16
TORSDOF 14
ENDMDL
MODEL 4
REMARK VINA RESULT:      -6.5      3.800      5.068
REMARK  Name = 
REMARK  15 active torsions:
REMARK  status: ('A' for Active; 'I' for Inactive)
REMARK    1  A    between atoms: C_1  and  C_2
REMARK    2  A    between atoms: C_2  and  C_3
REMARK    3  A    between atoms: C_3  and  C_4
REMARK    4  A    between atoms: C_4  and  C_5
REMARK    5  A    between atoms: C_5  and  C_6
REMARK    6  A    between atoms: C_6  and  S_7
REMARK    7  A    between atoms: S_7  and  C_8
REMARK    8  A    between atoms: C_8  and  C_9
REMARK    9  A    between atoms: C_15  and  C_16
REMARK   10  A    between atoms: C_16  and  C_17
REMARK   11  A    between atoms: C_18  and  C_19
REMARK   12  A    between atoms: C_19  and  C_20
REMARK   13  A    between atoms: C_20  and  C_21
REMARK   14  A    between atoms: C_21  and  C_22
REMARK   15  A    between atoms: C_22  and  O_24
REMARK                            x       y       z     vdW  Elec       q    Type
REMARK                         _______ _______ _______ _____ _____    ______ ____
ROOT
ATOM      1  C   UNL     1       3.462   3.674  18.169  0.00  0.00    +0.000 C 
ATOM      2  C   UNL     1       2.663   2.489  18.735  0.00  0.00    +0.000 C 
ATOM      3  C   UNL     1       2.210   2.664  20.191  0.00  0.00    +0.000 C 
ATOM      4  C   UNL     1       1.017   3.602  20.045  0.00  0.00    +0.000 C 
ATOM      5  C   UNL     1       1.091   3.985  18.575  0.00  0.00    +0.000 C 
ATOM      6  O   UNL     1       1.404   2.675  18.028  0.00  0.00    +0.000 OA
ATOM      7  C   UNL     1       2.349   4.772  18.127  0.00  0.00    +0.000 C 
ENDROOT
BRANCH   1   8
ATOM      8  C   UNL     1       4.817   3.949  18.826  0.00  0.00    +0.000 C 
BRANCH   8   9
ATOM      9  S   UNL     1       5.903   5.052  17.824  0.00  0.00    +0.000 S 
BRANCH   9  10
ATOM     10  C   UNL     1       7.084   5.639  19.110  0.00  0.00    +0.000 C 
BRANCH  10  11
ATOM     11  C   UNL     1       8.045   6.722  18.614  0.00  0.00    +0.000 C 
BRANCH  11  12
ATOM     12  C   UNL     1       7.418   7.662  17.580  0.00  0.00    +0.000 C 
BRANCH  12  13
ATOM     13  C   UNL     1       8.073   9.043  17.615  0.00  0.00    +0.000 C 
BRANCH  13  15
ATOM     14  C   UNL     1       9.320  10.697  19.056  0.00  0.00    +0.000 C 
ATOM     15  C   UNL     1       8.841   9.260  18.921  0.00  0.00    +0.000 C 
ENDBRANCH  13  15
ENDBRANCH  12  13
ENDBRANCH  11  12
ENDBRANCH  10  11
ENDBRANCH   9  10
ENDBRANCH   8   9
ENDBRANCH   1   8
BRANCH   7  16
ATOM     16  C   UNL     1       2.546   6.130  18.786  0.00  0.00    +0.000 C 
BRANCH  16  17
ATOM     17  C   UNL     1       2.820   7.286  17.846  0.00  0.00    +0.000 C 
ATOM     18  C   UNL     1       2.275   8.480  17.863  0.00  0.00    +0.000 C 
BRANCH  18  19
ATOM     19  C   UNL     1       1.322   8.952  18.899  0.00  0.00    +0.000 C 
BRANCH  19  20
ATOM     20  C   UNL     1       0.799  10.320  18.503  0.00  0.00    +0.000 C 
BRANCH  20  21
ATOM     21  C   UNL     1      -0.716  10.331  18.532  0.00  0.00    +0.000 C 
BRANCH  21  22
ATOM     22  C   UNL     1      -1.241  11.720  18.348  0.00  0.00    +0.000 C 
ATOM     23  O   UNL     1      -1.290  12.586  19.210  0.00  0.00    +0.000 OA
BRANCH  22  24
ATOM     24  O   UNL     1      -1.680  11.942  17.092  0.00  0.00    +0.000 OA
ATOM     25  H   UNL     1      -1.902  11.119  16.605  0.00  0.00    +0.000 HD
ENDBRANCH  22  24
ENDBRANCH  21  22
ENDBRANCH  20  21
ENDBRANCH  19  20
ENDBRANCH  18  19
ENDBRANCH  16  17
ENDBRANCH   7  16
TORSDOF 14
ENDMDL
MODEL 5
REMARK VINA RESULT:      -6.5      1.166      1.786
REMARK  Name = 
REMARK  15 active torsions:
REMARK  status: ('A' for Active; 'I' for Inactive)
REMARK    1  A    between atoms: C_1  and  C_2
REMARK    2  A    between atoms: C_2  and  C_3
REMARK    3  A    between atoms: C_3  and  C_4
REMARK    4  A    between atoms: C_4  and  C_5
REMARK    5  A    between atoms: C_5  and  C_6
REMARK    6  A    between atoms: C_6  and  S_7
REMARK    7  A    between atoms: S_7  and  C_8
REMARK    8  A    between atoms: C_8  and  C_9
REMARK    9  A    between atoms: C_15  and  C_16
REMARK   10  A    between atoms: C_16  and  C_17
REMARK   11  A    between atoms: C_18  and  C_19
REMARK   12  A    between atoms: C_19  and  C_20
REMARK   13  A    between atoms: C_20  and  C_21
REMARK   14  A    between atoms: C_21  and  C_22
REMARK   15  A    between atoms: C_22  and  O_24
REMARK                            x       y       z     vdW  Elec       q    Type
REMARK                         _______ _______ _______ _____ _____    ______ ____
ROOT
ATOM      1  C   UNL     1       4.004   3.831  17.972  0.00  0.00    +0.000 C 
ATOM      2  C   UNL     1       2.902   2.787  18.220  0.00  0.00    +0.000 C 
ATOM      3  C   UNL     1       2.149   2.959  19.545  0.00  0.00    +0.000 C 
ATOM      4  C   UNL     1       1.204   4.113  19.231  0.00  0.00    +0.000 C 
ATOM      5  C   UNL     1       1.694   4.561  17.862  0.00  0.00    +0.000 C 
ATOM      6  O   UNL     1       1.901   3.249  17.269  0.00  0.00    +0.000 OA
ATOM      7  C   UNL     1       3.137   5.120  17.792  0.00  0.00    +0.000 C 
ENDROOT
BRANCH   1   8
ATOM      8  C   UNL     1       5.187   3.806  18.943  0.00  0.00    +0.000 C 
BRANCH   8   9
ATOM      9  S   UNL     1       6.465   5.081  18.569  0.00  0.00    +0.000 S 
BRANCH   9  10
ATOM     10  C   UNL     1       6.873   4.661  16.822  0.00  0.00    +0.000 C 
BRANCH  10  11
ATOM     11  C   UNL     1       6.297   5.647  15.802  0.00  0.00    +0.000 C 
BRANCH  11  12
ATOM     12  C   UNL     1       5.550   4.965  14.652  0.00  0.00    +0.000 C 
BRANCH  12  13
ATOM     13  C   UNL     1       6.310   3.739  14.145  0.00  0.00    +0.000 C 
BRANCH  13  15
ATOM     14  C   UNL     1       5.006   3.252  12.041  0.00  0.00    +0.000 C 
ATOM     15  C   UNL     1       6.341   3.700  12.616  0.00  0.00    +0.000 C 
ENDBRANCH  13  15
ENDBRANCH  12  13
ENDBRANCH  11  12
ENDBRANCH  10  11
ENDBRANCH   9  10
ENDBRANCH   8   9
ENDBRANCH   1   8
BRANCH   7  16
ATOM     16  C   UNL     1       3.398   6.375  18.613  0.00  0.00    +0.000 C 
BRANCH  16  17
ATOM     17  C   UNL     1       2.471   7.543  18.346  0.00  0.00    +0.000 C 
ATOM     18  C   UNL     1       1.695   8.163  19.204  0.00  0.00    +0.000 C 
BRANCH  18  19
ATOM     19  C   UNL     1       1.653   7.873  20.659  0.00  0.00    +0.000 C 
BRANCH  19  20
ATOM     20  C   UNL     1       0.367   8.432  21.238  0.00  0.00    +0.000 C 
BRANCH  20  21
ATOM     21  C   UNL     1       0.154   9.856  20.765  0.00  0.00    +0.000 C 
BRANCH  21  22
ATOM     22  C   UNL     1       0.210  10.812  21.914  0.00  0.00    +0.000 C 
ATOM     23  O   UNL     1      -0.154  10.578  23.058  0.00  0.00    +0.000 OA
BRANCH  22  24
ATOM     24  O   UNL     1       0.715  12.012  21.561  0.00  0.00    +0.000 OA
ATOM     25  H   UNL     1       1.596  11.953  21.131  0.00  0.00    +0.000 HD
ENDBRANCH  22  24
ENDBRANCH  21  22
ENDBRANCH  20  21
ENDBRANCH  19  20
ENDBRANCH  18  19
ENDBRANCH  16  17
ENDBRANCH   7  16
TORSDOF 14
ENDMDL
MODEL 6
REMARK VINA RESULT:      -6.4      1.042      1.294
REMARK  Name = 
REMARK  15 active torsions:
REMARK  status: ('A' for Active; 'I' for Inactive)
REMARK    1  A    between atoms: C_1  and  C_2
REMARK    2  A    between atoms: C_2  and  C_3
REMARK    3  A    between atoms: C_3  and  C_4
REMARK    4  A    between atoms: C_4  and  C_5
REMARK    5  A    between atoms: C_5  and  C_6
REMARK    6  A    between atoms: C_6  and  S_7
REMARK    7  A    between atoms: S_7  and  C_8
REMARK    8  A    between atoms: C_8  and  C_9
REMARK    9  A    between atoms: C_15  and  C_16
REMARK   10  A    between atoms: C_16  and  C_17
REMARK   11  A    between atoms: C_18  and  C_19
REMARK   12  A    between atoms: C_19  and  C_20
REMARK   13  A    between atoms: C_20  and  C_21
REMARK   14  A    between atoms: C_21  and  C_22
REMARK   15  A    between atoms: C_22  and  O_24
REMARK                            x       y       z     vdW  Elec       q    Type
REMARK                         _______ _______ _______ _____ _____    ______ ____
ROOT
ATOM      1  C   UNL     1       4.322   4.976  17.602  0.00  0.00    +0.000 C 
ATOM      2  C   UNL     1       3.742   3.633  18.075  0.00  0.00    +0.000 C 
ATOM      3  C   UNL     1       3.352   3.594  19.558  0.00  0.00    +0.000 C 
ATOM      4  C   UNL     1       2.026   4.347  19.562  0.00  0.00    +0.000 C 
ATOM      5  C   UNL     1       1.958   4.878  18.138  0.00  0.00    +0.000 C 
ATOM      6  O   UNL     1       2.431   3.690  17.444  0.00  0.00    +0.000 OA
ATOM      7  C   UNL     1       3.057   5.888  17.723  0.00  0.00    +0.000 C 
ENDROOT
BRANCH   1   8
ATOM      8  C   UNL     1       5.656   5.391  18.228  0.00  0.00    +0.000 C 
BRANCH   8   9
ATOM      9  S   UNL     1       7.121   4.754  17.308  0.00  0.00    +0.000 S 
BRANCH   9  10
ATOM     10  C   UNL     1       6.688   5.240  15.585  0.00  0.00    +0.000 C 
BRANCH  10  11
ATOM     11  C   UNL     1       6.595   4.057  14.618  0.00  0.00    +0.000 C 
BRANCH  11  12
ATOM     12  C   UNL     1       5.364   4.113  13.707  0.00  0.00    +0.000 C 
BRANCH  12  13
ATOM     13  C   UNL     1       5.704   3.669  12.285  0.00  0.00    +0.000 C 
BRANCH  13  15
ATOM     14  C   UNL     1       3.786   3.719  10.647  0.00  0.00    +0.000 C 
ATOM     15  C   UNL     1       4.551   2.881  11.659  0.00  0.00    +0.000 C 
ENDBRANCH  13  15
ENDBRANCH  12  13
ENDBRANCH  11  12
ENDBRANCH  10  11
ENDBRANCH   9  10
ENDBRANCH   8   9
ENDBRANCH   1   8
BRANCH   7  16
ATOM     16  C   UNL     1       3.087   7.190  18.511  0.00  0.00    +0.000 C 
BRANCH  16  17
ATOM     17  C   UNL     1       2.201   8.301  17.984  0.00  0.00    +0.000 C 
ATOM     18  C   UNL     1       1.323   9.011  18.654  0.00  0.00    +0.000 C 
BRANCH  18  19
ATOM     19  C   UNL     1       1.098   8.904  20.117  0.00  0.00    +0.000 C 
BRANCH  19  20
ATOM     20  C   UNL     1      -0.124   9.722  20.490  0.00  0.00    +0.000 C 
BRANCH  20  21
ATOM     21  C   UNL     1       0.243  10.780  21.510  0.00  0.00    +0.000 C 
BRANCH  21  22
ATOM     22  C   UNL     1      -0.455  10.531  22.809  0.00  0.00    +0.000 C 
ATOM     23  O   UNL     1      -1.568  10.937  23.113  0.00  0.00    +0.000 OA
BRANCH  22  24
ATOM     24  O   UNL     1       0.286   9.790  23.658  0.00  0.00    +0.000 OA
ATOM     25  H   UNL     1      -0.032   8.865  23.749  0.00  0.00    +0.000 HD
ENDBRANCH  22  24
ENDBRANCH  21  22
ENDBRANCH  20  21
ENDBRANCH  19  20
ENDBRANCH  18  19
ENDBRANCH  16  17
ENDBRANCH   7  16
TORSDOF 14
ENDMDL
MODEL 7
REMARK VINA RESULT:      -6.4      2.049      2.580
REMARK  Name = 
REMARK  15 active torsions:
REMARK  status: ('A' for Active; 'I' for Inactive)
REMARK    1  A    between atoms: C_1  and  C_2
REMARK    2  A    between atoms: C_2  and  C_3
REMARK    3  A    between atoms: C_3  and  C_4
REMARK    4  A    between atoms: C_4  and  C_5
REMARK    5  A    between atoms: C_5  and  C_6
REMARK    6  A    between atoms: C_6  and  S_7
REMARK    7  A    between atoms: S_7  and  C_8
REMARK    8  A    between atoms: C_8  and  C_9
REMARK    9  A    between atoms: C_15  and  C_16
REMARK   10  A    between atoms: C_16  and  C_17
REMARK   11  A    between atoms: C_18  and  C_19
REMARK   12  A    between atoms: C_19  and  C_20
REMARK   13  A    between atoms: C_20  and  C_21
REMARK   14  A    between atoms: C_21  and  C_22
REMARK   15  A    between atoms: C_22  and  O_24
REMARK                            x       y       z     vdW  Elec       q    Type
REMARK                         _______ _______ _______ _____ _____    ______ ____
ROOT
ATOM      1  C   UNL     1       4.208   4.771  18.102  0.00  0.00    +0.000 C 
ATOM      2  C   UNL     1       3.502   3.420  18.304  0.00  0.00    +0.000 C 
ATOM      3  C   UNL     1       2.653   3.330  19.579  0.00  0.00    +0.000 C 
ATOM      4  C   UNL     1       1.400   4.105  19.185  0.00  0.00    +0.000 C 
ATOM      5  C   UNL     1       1.798   4.692  17.840  0.00  0.00    +0.000 C 
ATOM      6  O   UNL     1       2.466   3.524  17.287  0.00  0.00    +0.000 OA
ATOM      7  C   UNL     1       2.975   5.699  17.845  0.00  0.00    +0.000 C 
ENDROOT
BRANCH   1   8
ATOM      8  C   UNL     1       5.269   5.138  19.142  0.00  0.00    +0.000 C 
BRANCH   8   9
ATOM      9  S   UNL     1       6.819   5.805  18.397  0.00  0.00    +0.000 S 
BRANCH   9  10
ATOM     10  C   UNL     1       6.362   5.834  16.613  0.00  0.00    +0.000 C 
BRANCH  10  11
ATOM     11  C   UNL     1       6.969   4.686  15.803  0.00  0.00    +0.000 C 
BRANCH  11  12
ATOM     12  C   UNL     1       6.715   4.804  14.297  0.00  0.00    +0.000 C 
BRANCH  12  13
ATOM     13  C   UNL     1       5.662   3.799  13.830  0.00  0.00    +0.000 C 
BRANCH  13  15
ATOM     14  C   UNL     1       4.654   3.254  11.583  0.00  0.00    +0.000 C 
ATOM     15  C   UNL     1       5.935   3.334  12.398  0.00  0.00    +0.000 C 
ENDBRANCH  13  15
ENDBRANCH  12  13
ENDBRANCH  11  12
ENDBRANCH  10  11
ENDBRANCH   9  10
ENDBRANCH   8   9
ENDBRANCH   1   8
BRANCH   7  16
ATOM     16  C   UNL     1       2.754   6.968  18.655  0.00  0.00    +0.000 C 
BRANCH  16  17
ATOM     17  C   UNL     1       2.190   8.148  17.890  0.00  0.00    +0.000 C 
ATOM     18  C   UNL     1       1.450   9.127  18.358  0.00  0.00    +0.000 C 
BRANCH  18  19
ATOM     19  C   UNL     1       1.096   9.300  19.789  0.00  0.00    +0.000 C 
BRANCH  19  20
ATOM     20  C   UNL     1      -0.256   9.982  19.884  0.00  0.00    +0.000 C 
BRANCH  20  21
ATOM     21  C   UNL     1      -0.601  10.650  18.569  0.00  0.00    +0.000 C 
BRANCH  21  22
ATOM     22  C   UNL     1      -0.648  12.137  18.725  0.00  0.00    +0.000 C 
ATOM     23  O   UNL     1      -1.311  12.749  19.551  0.00  0.00    +0.000 OA
BRANCH  22  24
ATOM     24  O   UNL     1       0.135  12.774  17.831  0.00  0.00    +0.000 OA
ATOM     25  H   UNL     1       0.301  13.714  18.058  0.00  0.00    +0.000 HD
ENDBRANCH  22  24
ENDBRANCH  21  22
ENDBRANCH  20  21
ENDBRANCH  19  20
ENDBRANCH  18  19
ENDBRANCH  16  17
ENDBRANCH   7  16
TORSDOF 14
ENDMDL
MODEL 8
REMARK VINA RESULT:      -6.4      2.771      5.367
REMARK  Name = 
REMARK  15 active torsions:
REMARK  status: ('A' for Active; 'I' for Inactive)
REMARK    1  A    between atoms: C_1  and  C_2
REMARK    2  A    between atoms: C_2  and  C_3
REMARK    3  A    between atoms: C_3  and  C_4
REMARK    4  A    between atoms: C_4  and  C_5
REMARK    5  A    between atoms: C_5  and  C_6
REMARK    6  A    between atoms: C_6  and  S_7
REMARK    7  A    between atoms: S_7  and  C_8
REMARK    8  A    between atoms: C_8  and  C_9
REMARK    9  A    between atoms: C_15  and  C_16
REMARK   10  A    between atoms: C_16  and  C_17
REMARK   11  A    between atoms: C_18  and  C_19
REMARK   12  A    between atoms: C_19  and  C_20
REMARK   13  A    between atoms: C_20  and  C_21
REMARK   14  A    between atoms: C_21  and  C_22
REMARK   15  A    between atoms: C_22  and  O_24
REMARK                            x       y       z     vdW  Elec       q    Type
REMARK                         _______ _______ _______ _____ _____    ______ ____
ROOT
ATOM      1  C   UNL     1       4.138   4.806  17.986  0.00  0.00    +0.000 C 
ATOM      2  C   UNL     1       5.407   4.786  17.117  0.00  0.00    +0.000 C 
ATOM      3  C   UNL     1       5.194   5.241  15.667  0.00  0.00    +0.000 C 
ATOM      4  C   UNL     1       5.127   6.757  15.812  0.00  0.00    +0.000 C 
ATOM      5  C   UNL     1       5.103   6.931  17.323  0.00  0.00    +0.000 C 
ATOM      6  O   UNL     1       6.107   5.937  17.669  0.00  0.00    +0.000 OA
ATOM      7  C   UNL     1       3.877   6.346  18.068  0.00  0.00    +0.000 C 
ENDROOT
BRANCH   1   8
ATOM      8  C   UNL     1       3.026   3.838  17.576  0.00  0.00    +0.000 C 
BRANCH   8   9
ATOM      9  S   UNL     1       3.443   2.071  17.898  0.00  0.00    +0.000 S 
BRANCH   9  10
ATOM     10  C   UNL     1       2.048   1.580  18.997  0.00  0.00    +0.000 C 
BRANCH  10  11
ATOM     11  C   UNL     1       0.795   2.441  18.822  0.00  0.00    +0.000 C 
BRANCH  11  12
ATOM     12  C   UNL     1       0.425   3.237  20.078  0.00  0.00    +0.000 C 
BRANCH  12  13
ATOM     13  C   UNL     1       1.430   2.997  21.205  0.00  0.00    +0.000 C 
BRANCH  13  15
ATOM     14  C   UNL     1       1.748   5.480  20.894  0.00  0.00    +0.000 C 
ATOM     15  C   UNL     1       2.389   4.180  21.353  0.00  0.00    +0.000 C 
ENDBRANCH  13  15
ENDBRANCH  12  13
ENDBRANCH  11  12
ENDBRANCH  10  11
ENDBRANCH   9  10
ENDBRANCH   8   9
ENDBRANCH   1   8
BRANCH   7  16
ATOM     16  C   UNL     1       2.529   6.945  17.690  0.00  0.00    +0.000 C 
BRANCH  16  17
ATOM     17  C   UNL     1       2.453   8.458  17.701  0.00  0.00    +0.000 C 
ATOM     18  C   UNL     1       1.861   9.225  18.588  0.00  0.00    +0.000 C 
BRANCH  18  19
ATOM     19  C   UNL     1       1.210   8.727  19.825  0.00  0.00    +0.000 C 
BRANCH  19  20
ATOM     20  C   UNL     1       1.058   9.879  20.801  0.00  0.00    +0.000 C 
BRANCH  20  21
ATOM     21  C   UNL     1      -0.387  10.008  21.239  0.00  0.00    +0.000 C 
BRANCH  21  22
ATOM     22  C   UNL     1      -0.479  10.197  22.720  0.00  0.00    +0.000 C 
ATOM     23  O   UNL     1      -1.437  10.660  23.323  0.00  0.00    +0.000 OA
BRANCH  22  24
ATOM     24  O   UNL     1       0.639   9.799  23.360  0.00  0.00    +0.000 OA
ATOM     25  H   UNL     1       0.529   9.736  24.334  0.00  0.00    +0.000 HD
ENDBRANCH  22  24
ENDBRANCH  21  22
ENDBRANCH  20  21
ENDBRANCH  19  20
ENDBRANCH  18  19
ENDBRANCH  16  17
ENDBRANCH   7  16
TORSDOF 14
ENDMDL
MODEL 9
REMARK VINA RESULT:      -6.3      2.191      2.811
REMARK  Name = 
REMARK  15 active torsions:
REMARK  status: ('A' for Active; 'I' for Inactive)
REMARK    1  A    between atoms: C_1  and  C_2
REMARK    2  A    between atoms: C_2  and  C_3
REMARK    3  A    between atoms: C_3  and  C_4
REMARK    4  A    between atoms: C_4  and  C_5
REMARK    5  A    between atoms: C_5  and  C_6
REMARK    6  A    between atoms: C_6  and  S_7
REMARK    7  A    between atoms: S_7  and  C_8
REMARK    8  A    between atoms: C_8  and  C_9
REMARK    9  A    between atoms: C_15  and  C_16
REMARK   10  A    between atoms: C_16  and  C_17
REMARK   11  A    between atoms: C_18  and  C_19
REMARK   12  A    between atoms: C_19  and  C_20
REMARK   13  A    between atoms: C_20  and  C_21
REMARK   14  A    between atoms: C_21  and  C_22
REMARK   15  A    between atoms: C_22  and  O_24
REMARK                            x       y       z     vdW  Elec       q    Type
REMARK                         _______ _______ _______ _____ _____    ______ ____
ROOT
ATOM      1  C   UNL     1       3.846   4.095  18.560  0.00  0.00    +0.000 C 
ATOM      2  C   UNL     1       3.167   2.867  19.189  0.00  0.00    +0.000 C 
ATOM      3  C   UNL     1       2.612   3.099  20.601  0.00  0.00    +0.000 C 
ATOM      4  C   UNL     1       1.324   3.863  20.318  0.00  0.00    +0.000 C 
ATOM      5  C   UNL     1       1.435   4.133  18.825  0.00  0.00    +0.000 C 
ATOM      6  O   UNL     1       1.938   2.834  18.410  0.00  0.00    +0.000 OA
ATOM      7  C   UNL     1       2.610   5.035  18.371  0.00  0.00    +0.000 C 
ENDROOT
BRANCH   1   8
ATOM      8  C   UNL     1       5.116   4.592  19.255  0.00  0.00    +0.000 C 
BRANCH   8   9
ATOM      9  S   UNL     1       6.556   4.748  18.115  0.00  0.00    +0.000 S 
BRANCH   9  10
ATOM     10  C   UNL     1       6.070   6.236  17.142  0.00  0.00    +0.000 C 
BRANCH  10  11
ATOM     11  C   UNL     1       5.534   5.910  15.746  0.00  0.00    +0.000 C 
BRANCH  11  12
ATOM     12  C   UNL     1       6.306   4.786  15.047  0.00  0.00    +0.000 C 
BRANCH  12  13
ATOM     13  C   UNL     1       5.461   4.128  13.955  0.00  0.00    +0.000 C 
BRANCH  13  15
ATOM     14  C   UNL     1       5.560   2.771  11.831  0.00  0.00    +0.000 C 
ATOM     15  C   UNL     1       6.329   3.680  12.777  0.00  0.00    +0.000 C 
ENDBRANCH  13  15
ENDBRANCH  12  13
ENDBRANCH  11  12
ENDBRANCH  10  11
ENDBRANCH   9  10
ENDBRANCH   8   9
ENDBRANCH   1   8
BRANCH   7  16
ATOM     16  C   UNL     1       2.601   6.456  18.918  0.00  0.00    +0.000 C 
BRANCH  16  17
ATOM     17  C   UNL     1       2.718   7.560  17.887  0.00  0.00    +0.000 C 
ATOM     18  C   UNL     1       2.098   8.717  17.878  0.00  0.00    +0.000 C 
BRANCH  18  19
ATOM     19  C   UNL     1       1.204   9.198  18.960  0.00  0.00    +0.000 C 
BRANCH  19  20
ATOM     20  C   UNL     1       0.736  10.602  18.627  0.00  0.00    +0.000 C 
BRANCH  20  21
ATOM     21  C   UNL     1      -0.505  10.945  19.426  0.00  0.00    +0.000 C 
BRANCH  21  22
ATOM     22  C   UNL     1      -1.682  11.137  18.523  0.00  0.00    +0.000 C 
ATOM     23  O   UNL     1      -1.780  10.721  17.377  0.00  0.00    +0.000 OA
BRANCH  22  24
ATOM     24  O   UNL     1      -2.670  11.844  19.107  0.00  0.00    +0.000 OA
ATOM     25  H   UNL     1      -2.343  12.551  19.705  0.00  0.00    +0.000 HD
ENDBRANCH  22  24
ENDBRANCH  21  22
ENDBRANCH  20  21
ENDBRANCH  19  20
ENDBRANCH  18  19
ENDBRANCH  16  17
ENDBRANCH   7  16
TORSDOF 14
ENDMDL
