MODEL 1
REMARK VINA RESULT:      -8.2      0.000      0.000
REMARK  Name = 
REMARK  11 active torsions:
REMARK  status: ('A' for Active; 'I' for Inactive)
REMARK    1  A    between atoms: C_1  and  N_2
REMARK    2  A    between atoms: N_2  and  C_3
REMARK    3  A    between atoms: C_3  and  C_4
REMARK    4  A    between atoms: C_4  and  N_5
REMARK    5  A    between atoms: N_5  and  C_6
REMARK    6  A    between atoms: N_5  and  C_7
REMARK    7  A    between atoms: C_7  and  C_8
REMARK    8  A    between atoms: C_11  and  C_12
REMARK    9  A    between atoms: N_14  and  C_15
REMARK   10  A    between atoms: C_17  and  C_18
REMARK   11  A    between atoms: C_26  and  O_27
REMARK                            x       y       z     vdW  Elec       q    Type
REMARK                         _______ _______ _______ _____ _____    ______ ____
ROOT
ATOM      1  C   UNL     1       7.717   7.710  18.073  0.00  0.00    +0.000 C 
ATOM      2  O   UNL     1       8.195   6.778  18.721  0.00  0.00    +0.000 OA
ATOM      3  N   UNL     1       6.700   7.585  17.137  0.00  0.00    +0.000 N 
ATOM      4  H   UNL     1       6.526   8.323  16.466  0.00  0.00    +0.000 HD
ENDROOT
BRANCH   1   8
ATOM      5  C   UNL     1       9.273  11.681  18.603  0.00  0.00    +0.000 A 
ATOM      6  C   UNL     1       8.397  11.372  17.559  0.00  0.00    +0.000 A 
ATOM      7  C   UNL     1       7.928  10.073  17.410  0.00  0.00    +0.000 A 
ATOM      8  C   UNL     1       8.330   9.051  18.289  0.00  0.00    +0.000 A 
ATOM      9  C   UNL     1       9.254   9.345  19.295  0.00  0.00    +0.000 A 
ATOM     10  C   UNL     1       9.719  10.655  19.451  0.00  0.00    +0.000 A 
BRANCH   5  11
ATOM     11  C   UNL     1       9.636  13.125  18.865  0.00  0.00    +0.000 C 
BRANCH  11  12
ATOM     12  N   UNL     1      11.038  13.427  18.501  0.00  0.00    +0.000 NA
ATOM     13  C   UNL     1      11.619  14.314  19.510  0.00  0.00    +0.000 C 
BRANCH  12  14
ATOM     14  C   UNL     1      11.128  14.012  17.143  0.00  0.00    +0.000 C 
BRANCH  14  15
ATOM     15  C   UNL     1      11.925  15.333  17.076  0.00  0.00    +0.000 C 
BRANCH  15  17
ATOM     16  C   UNL     1      10.053  16.826  17.253  0.00  0.00    +0.000 C 
ATOM     17  N   UNL     1      11.149  16.384  16.401  0.00  0.00    +0.000 NA
ATOM     18  H   UNL     1      11.760  17.177  16.205  0.00  0.00    +0.000 HD
ENDBRANCH  15  17
ENDBRANCH  14  15
ENDBRANCH  12  14
ENDBRANCH  11  12
ENDBRANCH   5  11
ENDBRANCH   1   8
BRANCH   3  19
ATOM     19  C   UNL     1       6.029   6.373  16.845  0.00  0.00    +0.000 A 
ATOM     20  C   UNL     1       4.844   6.012  17.482  0.00  0.00    +0.000 A 
ATOM     21  C   UNL     1       4.264   4.740  17.352  0.00  0.00    +0.000 A 
ATOM     22  C   UNL     1       4.842   3.869  16.418  0.00  0.00    +0.000 A 
ATOM     23  C   UNL     1       5.983   4.244  15.689  0.00  0.00    +0.000 A 
ATOM     24  C   UNL     1       6.578   5.486  15.919  0.00  0.00    +0.000 A 
BRANCH  21  25
ATOM     25  C   UNL     1       3.131   4.377  18.235  0.00  0.00    +0.000 A 
ATOM     26  C   UNL     1       2.215   3.364  17.918  0.00  0.00    +0.000 A 
ATOM     27  C   UNL     1       1.133   3.083  18.763  0.00  0.00    +0.000 A 
ATOM     28  C   UNL     1       0.945   3.806  19.941  0.00  0.00    +0.000 A 
ATOM     29  C   UNL     1       1.845   4.807  20.284  0.00  0.00    +0.000 A 
ATOM     30  C   UNL     1       2.929   5.074  19.447  0.00  0.00    +0.000 A 
ENDBRANCH  21  25
BRANCH  24  31
ATOM     31  O   UNL     1       7.728   5.843  15.265  0.00  0.00    +0.000 OA
ATOM     32  H   UNL     1       8.383   6.112  15.931  0.00  0.00    +0.000 HD
ENDBRANCH  24  31
ENDBRANCH   3  19
TORSDOF 9
ENDMDL
MODEL 2
REMARK VINA RESULT:      -8.1      0.941      1.699
REMARK  Name = 
REMARK  11 active torsions:
REMARK  status: ('A' for Active; 'I' for Inactive)
REMARK    1  A    between atoms: C_1  and  N_2
REMARK    2  A    between atoms: N_2  and  C_3
REMARK    3  A    between atoms: C_3  and  C_4
REMARK    4  A    between atoms: C_4  and  N_5
REMARK    5  A    between atoms: N_5  and  C_6
REMARK    6  A    between atoms: N_5  and  C_7
REMARK    7  A    between atoms: C_7  and  C_8
REMARK    8  A    between atoms: C_11  and  C_12
REMARK    9  A    between atoms: N_14  and  C_15
REMARK   10  A    between atoms: C_17  and  C_18
REMARK   11  A    between atoms: C_26  and  O_27
REMARK                            x       y       z     vdW  Elec       q    Type
REMARK                         _______ _______ _______ _____ _____    ______ ____
ROOT
ATOM      1  C   UNL     1       7.693   7.883  18.032  0.00  0.00    +0.000 C 
ATOM      2  O   UNL     1       8.220   6.975  18.675  0.00  0.00    +0.000 OA
ATOM      3  N   UNL     1       6.644   7.717  17.139  0.00  0.00    +0.000 N 
ATOM      4  H   UNL     1       6.425   8.438  16.464  0.00  0.00    +0.000 HD
ENDROOT
BRANCH   1   8
ATOM      5  C   UNL     1       9.592  11.695  18.616  0.00  0.00    +0.000 A 
ATOM      6  C   UNL     1       9.835  10.618  19.471  0.00  0.00    +0.000 A 
ATOM      7  C   UNL     1       9.191   9.405  19.261  0.00  0.00    +0.000 A 
ATOM      8  C   UNL     1       8.279   9.242  18.202  0.00  0.00    +0.000 A 
ATOM      9  C   UNL     1       7.988  10.336  17.382  0.00  0.00    +0.000 A 
ATOM     10  C   UNL     1       8.644  11.555  17.589  0.00  0.00    +0.000 A 
BRANCH   5  11
ATOM     11  C   UNL     1      10.427  12.948  18.742  0.00  0.00    +0.000 C 
BRANCH  11  12
ATOM     12  N   UNL     1      10.713  13.567  17.429  0.00  0.00    +0.000 NA
ATOM     13  C   UNL     1      12.052  13.171  16.990  0.00  0.00    +0.000 C 
BRANCH  12  14
ATOM     14  C   UNL     1      10.571  15.041  17.485  0.00  0.00    +0.000 C 
BRANCH  14  15
ATOM     15  C   UNL     1       9.165  15.524  17.903  0.00  0.00    +0.000 C 
BRANCH  15  17
ATOM     16  C   UNL     1       8.059  17.406  18.904  0.00  0.00    +0.000 C 
ATOM     17  N   UNL     1       9.252  16.569  18.934  0.00  0.00    +0.000 NA
ATOM     18  H   UNL     1       9.327  16.128  19.851  0.00  0.00    +0.000 HD
ENDBRANCH  15  17
ENDBRANCH  14  15
ENDBRANCH  12  14
ENDBRANCH  11  12
ENDBRANCH   5  11
ENDBRANCH   1   8
BRANCH   3  19
ATOM     19  C   UNL     1       5.994   6.483  16.893  0.00  0.00    +0.000 A 
ATOM     20  C   UNL     1       4.802   6.137  17.527  0.00  0.00    +0.000 A 
ATOM     21  C   UNL     1       4.241   4.852  17.447  0.00  0.00    +0.000 A 
ATOM     22  C   UNL     1       4.847   3.946  16.566  0.00  0.00    +0.000 A 
ATOM     23  C   UNL     1       5.995   4.302  15.839  0.00  0.00    +0.000 A 
ATOM     24  C   UNL     1       6.570   5.561  16.020  0.00  0.00    +0.000 A 
BRANCH  21  25
ATOM     25  C   UNL     1       3.097   4.516  18.326  0.00  0.00    +0.000 A 
ATOM     26  C   UNL     1       2.887   5.131  19.568  0.00  0.00    +0.000 A 
ATOM     27  C   UNL     1       1.815   4.751  20.388  0.00  0.00    +0.000 A 
ATOM     28  C   UNL     1       0.932   3.751  19.983  0.00  0.00    +0.000 A 
ATOM     29  C   UNL     1       1.110   3.133  18.751  0.00  0.00    +0.000 A 
ATOM     30  C   UNL     1       2.170   3.525  17.933  0.00  0.00    +0.000 A 
ENDBRANCH  21  25
BRANCH  24  31
ATOM     31  O   UNL     1       7.728   5.902  15.370  0.00  0.00    +0.000 OA
ATOM     32  H   UNL     1       8.375   5.192  15.513  0.00  0.00    +0.000 HD
ENDBRANCH  24  31
ENDBRANCH   3  19
TORSDOF 9
ENDMDL
MODEL 3
REMARK VINA RESULT:      -8.0      0.964      1.486
REMARK  Name = 
REMARK  11 active torsions:
REMARK  status: ('A' for Active; 'I' for Inactive)
REMARK    1  A    between atoms: C_1  and  N_2
REMARK    2  A    between atoms: N_2  and  C_3
REMARK    3  A    between atoms: C_3  and  C_4
REMARK    4  A    between atoms: C_4  and  N_5
REMARK    5  A    between atoms: N_5  and  C_6
REMARK    6  A    between atoms: N_5  and  C_7
REMARK    7  A    between atoms: C_7  and  C_8
REMARK    8  A    between atoms: C_11  and  C_12
REMARK    9  A    between atoms: N_14  and  C_15
REMARK   10  A    between atoms: C_17  and  C_18
REMARK   11  A    between atoms: C_26  and  O_27
REMARK                            x       y       z     vdW  Elec       q    Type
REMARK                         _______ _______ _______ _____ _____    ______ ____
ROOT
ATOM      1  C   UNL     1       7.667   7.763  17.983  0.00  0.00    +0.000 C 
ATOM      2  O   UNL     1       8.211   6.849  18.603  0.00  0.00    +0.000 OA
ATOM      3  N   UNL     1       6.631   7.598  17.074  0.00  0.00    +0.000 N 
ATOM      4  H   UNL     1       6.401   8.333  16.418  0.00  0.00    +0.000 HD
ENDROOT
BRANCH   1   8
ATOM      5  C   UNL     1       9.463  11.602  18.701  0.00  0.00    +0.000 A 
ATOM      6  C   UNL     1       9.714  10.509  19.535  0.00  0.00    +0.000 A 
ATOM      7  C   UNL     1       9.102   9.288  19.280  0.00  0.00    +0.000 A 
ATOM      8  C   UNL     1       8.218   9.131  18.198  0.00  0.00    +0.000 A 
ATOM      9  C   UNL     1       7.918  10.238  17.400  0.00  0.00    +0.000 A 
ATOM     10  C   UNL     1       8.541  11.465  17.651  0.00  0.00    +0.000 A 
BRANCH   5  11
ATOM     11  C   UNL     1      10.266  12.870  18.877  0.00  0.00    +0.000 C 
BRANCH  11  12
ATOM     12  N   UNL     1      10.482  13.580  17.597  0.00  0.00    +0.000 NA
ATOM     13  C   UNL     1      11.825  13.279  17.098  0.00  0.00    +0.000 C 
BRANCH  12  14
ATOM     14  C   UNL     1      10.269  15.038  17.746  0.00  0.00    +0.000 C 
BRANCH  14  15
ATOM     15  C   UNL     1       9.518  15.438  19.034  0.00  0.00    +0.000 C 
BRANCH  15  17
ATOM     16  C   UNL     1      11.650  16.413  19.551  0.00  0.00    +0.000 C 
ATOM     17  N   UNL     1      10.209  16.534  19.729  0.00  0.00    +0.000 NA
ATOM     18  H   UNL     1       9.898  17.425  19.340  0.00  0.00    +0.000 HD
ENDBRANCH  15  17
ENDBRANCH  14  15
ENDBRANCH  12  14
ENDBRANCH  11  12
ENDBRANCH   5  11
ENDBRANCH   1   8
BRANCH   3  19
ATOM     19  C   UNL     1       6.014   6.356  16.785  0.00  0.00    +0.000 A 
ATOM     20  C   UNL     1       4.834   5.955  17.408  0.00  0.00    +0.000 A 
ATOM     21  C   UNL     1       4.308   4.659  17.283  0.00  0.00    +0.000 A 
ATOM     22  C   UNL     1       4.936   3.802  16.369  0.00  0.00    +0.000 A 
ATOM     23  C   UNL     1       6.072   4.216  15.653  0.00  0.00    +0.000 A 
ATOM     24  C   UNL     1       6.612   5.483  15.878  0.00  0.00    +0.000 A 
BRANCH  21  25
ATOM     25  C   UNL     1       3.177   4.260  18.152  0.00  0.00    +0.000 A 
ATOM     26  C   UNL     1       2.329   3.185  17.851  0.00  0.00    +0.000 A 
ATOM     27  C   UNL     1       1.244   2.869  18.680  0.00  0.00    +0.000 A 
ATOM     28  C   UNL     1       0.985   3.619  19.827  0.00  0.00    +0.000 A 
ATOM     29  C   UNL     1       1.816   4.683  20.155  0.00  0.00    +0.000 A 
ATOM     30  C   UNL     1       2.903   4.985  19.334  0.00  0.00    +0.000 A 
ENDBRANCH  21  25
BRANCH  24  31
ATOM     31  O   UNL     1       7.758   5.879  15.239  0.00  0.00    +0.000 OA
ATOM     32  H   UNL     1       8.516   5.495  15.710  0.00  0.00    +0.000 HD
ENDBRANCH  24  31
ENDBRANCH   3  19
TORSDOF 9
ENDMDL
MODEL 4
REMARK VINA RESULT:      -7.9      1.508      2.730
REMARK  Name = 
REMARK  11 active torsions:
REMARK  status: ('A' for Active; 'I' for Inactive)
REMARK    1  A    between atoms: C_1  and  N_2
REMARK    2  A    between atoms: N_2  and  C_3
REMARK    3  A    between atoms: C_3  and  C_4
REMARK    4  A    between atoms: C_4  and  N_5
REMARK    5  A    between atoms: N_5  and  C_6
REMARK    6  A    between atoms: N_5  and  C_7
REMARK    7  A    between atoms: C_7  and  C_8
REMARK    8  A    between atoms: C_11  and  C_12
REMARK    9  A    between atoms: N_14  and  C_15
REMARK   10  A    between atoms: C_17  and  C_18
REMARK   11  A    between atoms: C_26  and  O_27
REMARK                            x       y       z     vdW  Elec       q    Type
REMARK                         _______ _______ _______ _____ _____    ______ ____
ROOT
ATOM      1  C   UNL     1       7.662   7.660  18.022  0.00  0.00    +0.000 C 
ATOM      2  O   UNL     1       8.162   6.736  18.663  0.00  0.00    +0.000 OA
ATOM      3  N   UNL     1       6.640   7.518  17.093  0.00  0.00    +0.000 N 
ATOM      4  H   UNL     1       6.447   8.253  16.425  0.00  0.00    +0.000 HD
ENDROOT
BRANCH   1   8
ATOM      5  C   UNL     1       9.555  11.448  18.755  0.00  0.00    +0.000 A 
ATOM      6  C   UNL     1       9.694  10.377  19.641  0.00  0.00    +0.000 A 
ATOM      7  C   UNL     1       9.054   9.172  19.379  0.00  0.00    +0.000 A 
ATOM      8  C   UNL     1       8.250   9.012  18.236  0.00  0.00    +0.000 A 
ATOM      9  C   UNL     1       8.060  10.101  17.381  0.00  0.00    +0.000 A 
ATOM     10  C   UNL     1       8.713  11.311  17.640  0.00  0.00    +0.000 A 
BRANCH   5  11
ATOM     11  C   UNL     1      10.395  12.690  18.953  0.00  0.00    +0.000 C 
BRANCH  11  12
ATOM     12  N   UNL     1       9.643  13.775  19.620  0.00  0.00    +0.000 NA
ATOM     13  C   UNL     1       9.927  15.044  18.946  0.00  0.00    +0.000 C 
BRANCH  12  14
ATOM     14  C   UNL     1       9.961  13.842  21.065  0.00  0.00    +0.000 C 
BRANCH  14  15
ATOM     15  C   UNL     1       8.809  13.388  21.988  0.00  0.00    +0.000 C 
BRANCH  15  17
ATOM     16  C   UNL     1       7.960  11.560  23.292  0.00  0.00    +0.000 C 
ATOM     17  N   UNL     1       9.150  12.139  22.683  0.00  0.00    +0.000 NA
ATOM     18  H   UNL     1       9.536  11.476  22.010  0.00  0.00    +0.000 HD
ENDBRANCH  15  17
ENDBRANCH  14  15
ENDBRANCH  12  14
ENDBRANCH  11  12
ENDBRANCH   5  11
ENDBRANCH   1   8
BRANCH   3  19
ATOM     19  C   UNL     1       5.990   6.293  16.803  0.00  0.00    +0.000 A 
ATOM     20  C   UNL     1       4.812   5.912  17.443  0.00  0.00    +0.000 A 
ATOM     21  C   UNL     1       4.255   4.630  17.315  0.00  0.00    +0.000 A 
ATOM     22  C   UNL     1       4.847   3.768  16.381  0.00  0.00    +0.000 A 
ATOM     23  C   UNL     1       5.980   4.163  15.649  0.00  0.00    +0.000 A 
ATOM     24  C   UNL     1       6.553   5.416  15.877  0.00  0.00    +0.000 A 
BRANCH  21  25
ATOM     25  C   UNL     1       3.130   4.247  18.200  0.00  0.00    +0.000 A 
ATOM     26  C   UNL     1       2.343   3.109  17.979  0.00  0.00    +0.000 A 
ATOM     27  C   UNL     1       1.261   2.808  18.818  0.00  0.00    +0.000 A 
ATOM     28  C   UNL     1       0.945   3.638  19.894  0.00  0.00    +0.000 A 
ATOM     29  C   UNL     1       1.716   4.767  20.142  0.00  0.00    +0.000 A 
ATOM     30  C   UNL     1       2.801   5.054  19.312  0.00  0.00    +0.000 A 
ENDBRANCH  21  25
BRANCH  24  31
ATOM     31  O   UNL     1       7.696   5.793  15.221  0.00  0.00    +0.000 OA
ATOM     32  H   UNL     1       8.446   5.334  15.634  0.00  0.00    +0.000 HD
ENDBRANCH  24  31
ENDBRANCH   3  19
TORSDOF 9
ENDMDL
MODEL 5
REMARK VINA RESULT:      -7.9      1.374      1.762
REMARK  Name = 
REMARK  11 active torsions:
REMARK  status: ('A' for Active; 'I' for Inactive)
REMARK    1  A    between atoms: C_1  and  N_2
REMARK    2  A    between atoms: N_2  and  C_3
REMARK    3  A    between atoms: C_3  and  C_4
REMARK    4  A    between atoms: C_4  and  N_5
REMARK    5  A    between atoms: N_5  and  C_6
REMARK    6  A    between atoms: N_5  and  C_7
REMARK    7  A    between atoms: C_7  and  C_8
REMARK    8  A    between atoms: C_11  and  C_12
REMARK    9  A    between atoms: N_14  and  C_15
REMARK   10  A    between atoms: C_17  and  C_18
REMARK   11  A    between atoms: C_26  and  O_27
REMARK                            x       y       z     vdW  Elec       q    Type
REMARK                         _______ _______ _______ _____ _____    ______ ____
ROOT
ATOM      1  C   UNL     1       7.710   7.530  18.011  0.00  0.00    +0.000 C 
ATOM      2  O   UNL     1       8.110   6.621  18.739  0.00  0.00    +0.000 OA
ATOM      3  N   UNL     1       6.804   7.371  16.972  0.00  0.00    +0.000 N 
ATOM      4  H   UNL     1       6.707   8.085  16.261  0.00  0.00    +0.000 HD
ENDROOT
BRANCH   1   8
ATOM      5  C   UNL     1       9.189  11.521  18.607  0.00  0.00    +0.000 A 
ATOM      6  C   UNL     1       8.307  11.215  17.568  0.00  0.00    +0.000 A 
ATOM      7  C   UNL     1       7.863   9.910  17.396  0.00  0.00    +0.000 A 
ATOM      8  C   UNL     1       8.297   8.878  18.248  0.00  0.00    +0.000 A 
ATOM      9  C   UNL     1       9.227   9.170  19.250  0.00  0.00    +0.000 A 
ATOM     10  C   UNL     1       9.667  10.487  19.428  0.00  0.00    +0.000 A 
BRANCH   5  11
ATOM     11  C   UNL     1       9.525  12.966  18.896  0.00  0.00    +0.000 C 
BRANCH  11  12
ATOM     12  N   UNL     1       9.751  13.748  17.660  0.00  0.00    +0.000 NA
ATOM     13  C   UNL     1      11.071  13.422  17.117  0.00  0.00    +0.000 C 
BRANCH  12  14
ATOM     14  C   UNL     1       9.606  15.201  17.907  0.00  0.00    +0.000 C 
BRANCH  14  15
ATOM     15  C   UNL     1       8.149  15.710  17.851  0.00  0.00    +0.000 C 
BRANCH  15  17
ATOM     16  C   UNL     1       5.996  14.652  17.947  0.00  0.00    +0.000 C 
ATOM     17  N   UNL     1       7.265  14.710  17.234  0.00  0.00    +0.000 NA
ATOM     18  H   UNL     1       7.090  14.973  16.263  0.00  0.00    +0.000 HD
ENDBRANCH  15  17
ENDBRANCH  14  15
ENDBRANCH  12  14
ENDBRANCH  11  12
ENDBRANCH   5  11
ENDBRANCH   1   8
BRANCH   3  19
ATOM     19  C   UNL     1       6.167   6.148  16.648  0.00  0.00    +0.000 A 
ATOM     20  C   UNL     1       5.032   5.704  17.323  0.00  0.00    +0.000 A 
ATOM     21  C   UNL     1       4.497   4.417  17.153  0.00  0.00    +0.000 A 
ATOM     22  C   UNL     1       5.061   3.621  16.145  0.00  0.00    +0.000 A 
ATOM     23  C   UNL     1       6.146   4.083  15.381  0.00  0.00    +0.000 A 
ATOM     24  C   UNL     1       6.702   5.336  15.649  0.00  0.00    +0.000 A 
BRANCH  21  25
ATOM     25  C   UNL     1       3.428   3.960  18.070  0.00  0.00    +0.000 A 
ATOM     26  C   UNL     1       3.693   3.406  19.330  0.00  0.00    +0.000 A 
ATOM     27  C   UNL     1       2.652   2.947  20.149  0.00  0.00    +0.000 A 
ATOM     28  C   UNL     1       1.326   3.033  19.725  0.00  0.00    +0.000 A 
ATOM     29  C   UNL     1       1.034   3.588  18.485  0.00  0.00    +0.000 A 
ATOM     30  C   UNL     1       2.074   4.057  17.681  0.00  0.00    +0.000 A 
ENDBRANCH  21  25
BRANCH  24  31
ATOM     31  O   UNL     1       7.801   5.775  14.959  0.00  0.00    +0.000 OA
ATOM     32  H   UNL     1       7.676   6.718  14.760  0.00  0.00    +0.000 HD
ENDBRANCH  24  31
ENDBRANCH   3  19
TORSDOF 9
ENDMDL
MODEL 6
REMARK VINA RESULT:      -7.8      0.906      1.048
REMARK  Name = 
REMARK  11 active torsions:
REMARK  status: ('A' for Active; 'I' for Inactive)
REMARK    1  A    between atoms: C_1  and  N_2
REMARK    2  A    between atoms: N_2  and  C_3
REMARK    3  A    between atoms: C_3  and  C_4
REMARK    4  A    between atoms: C_4  and  N_5
REMARK    5  A    between atoms: N_5  and  C_6
REMARK    6  A    between atoms: N_5  and  C_7
REMARK    7  A    between atoms: C_7  and  C_8
REMARK    8  A    between atoms: C_11  and  C_12
REMARK    9  A    between atoms: N_14  and  C_15
REMARK   10  A    between atoms: C_17  and  C_18
REMARK   11  A    between atoms: C_26  and  O_27
REMARK                            x       y       z     vdW  Elec       q    Type
REMARK                         _______ _______ _______ _____ _____    ______ ____
ROOT
ATOM      1  C   UNL     1       7.733   7.799  18.078  0.00  0.00    +0.000 C 
ATOM      2  O   UNL     1       8.216   6.884  18.744  0.00  0.00    +0.000 OA
ATOM      3  N   UNL     1       6.707   7.651  17.154  0.00  0.00    +0.000 N 
ATOM      4  H   UNL     1       6.528   8.372  16.466  0.00  0.00    +0.000 HD
ENDROOT
BRANCH   1   8
ATOM      5  C   UNL     1       9.291  11.783  18.503  0.00  0.00    +0.000 A 
ATOM      6  C   UNL     1       8.367  11.461  17.506  0.00  0.00    +0.000 A 
ATOM      7  C   UNL     1       7.898  10.158  17.389  0.00  0.00    +0.000 A 
ATOM      8  C   UNL     1       8.348   9.145  18.254  0.00  0.00    +0.000 A 
ATOM      9  C   UNL     1       9.318   9.451  19.212  0.00  0.00    +0.000 A 
ATOM     10  C   UNL     1       9.783  10.765  19.336  0.00  0.00    +0.000 A 
BRANCH   5  11
ATOM     11  C   UNL     1       9.658  13.230  18.738  0.00  0.00    +0.000 C 
BRANCH  11  12
ATOM     12  N   UNL     1      10.461  13.792  17.630  0.00  0.00    +0.000 NA
ATOM     13  C   UNL     1      11.853  13.362  17.776  0.00  0.00    +0.000 C 
BRANCH  12  14
ATOM     14  C   UNL     1      10.349  15.268  17.577  0.00  0.00    +0.000 C 
BRANCH  14  15
ATOM     15  C   UNL     1       9.531  15.882  18.735  0.00  0.00    +0.000 C 
BRANCH  15  17
ATOM     16  C   UNL     1       8.856  18.180  18.894  0.00  0.00    +0.000 C 
ATOM     17  N   UNL     1       9.974  17.254  19.023  0.00  0.00    +0.000 NA
ATOM     18  H   UNL     1      10.333  17.295  19.977  0.00  0.00    +0.000 HD
ENDBRANCH  15  17
ENDBRANCH  14  15
ENDBRANCH  12  14
ENDBRANCH  11  12
ENDBRANCH   5  11
ENDBRANCH   1   8
BRANCH   3  19
ATOM     19  C   UNL     1       6.033   6.432  16.899  0.00  0.00    +0.000 A 
ATOM     20  C   UNL     1       4.853   6.089  17.554  0.00  0.00    +0.000 A 
ATOM     21  C   UNL     1       4.271   4.814  17.462  0.00  0.00    +0.000 A 
ATOM     22  C   UNL     1       4.842   3.919  16.546  0.00  0.00    +0.000 A 
ATOM     23  C   UNL     1       5.977   4.275  15.798  0.00  0.00    +0.000 A 
ATOM     24  C   UNL     1       6.574   5.522  15.992  0.00  0.00    +0.000 A 
BRANCH  21  25
ATOM     25  C   UNL     1       3.146   4.475  18.362  0.00  0.00    +0.000 A 
ATOM     26  C   UNL     1       2.160   3.537  18.026  0.00  0.00    +0.000 A 
ATOM     27  C   UNL     1       1.087   3.278  18.892  0.00  0.00    +0.000 A 
ATOM     28  C   UNL     1       0.980   3.949  20.109  0.00  0.00    +0.000 A 
ATOM     29  C   UNL     1       1.950   4.876  20.472  0.00  0.00    +0.000 A 
ATOM     30  C   UNL     1       3.023   5.119  19.614  0.00  0.00    +0.000 A 
ENDBRANCH  21  25
BRANCH  24  31
ATOM     31  O   UNL     1       7.720   5.861  15.320  0.00  0.00    +0.000 OA
ATOM     32  H   UNL     1       7.846   6.821  15.404  0.00  0.00    +0.000 HD
ENDBRANCH  24  31
ENDBRANCH   3  19
TORSDOF 9
ENDMDL
MODEL 7
REMARK VINA RESULT:      -7.8      1.549      2.591
REMARK  Name = 
REMARK  11 active torsions:
REMARK  status: ('A' for Active; 'I' for Inactive)
REMARK    1  A    between atoms: C_1  and  N_2
REMARK    2  A    between atoms: N_2  and  C_3
REMARK    3  A    between atoms: C_3  and  C_4
REMARK    4  A    between atoms: C_4  and  N_5
REMARK    5  A    between atoms: N_5  and  C_6
REMARK    6  A    between atoms: N_5  and  C_7
REMARK    7  A    between atoms: C_7  and  C_8
REMARK    8  A    between atoms: C_11  and  C_12
REMARK    9  A    between atoms: N_14  and  C_15
REMARK   10  A    between atoms: C_17  and  C_18
REMARK   11  A    between atoms: C_26  and  O_27
REMARK                            x       y       z     vdW  Elec       q    Type
REMARK                         _______ _______ _______ _____ _____    ______ ____
ROOT
ATOM      1  C   UNL     1       7.711   7.791  18.041  0.00  0.00    +0.000 C 
ATOM      2  O   UNL     1       8.191   6.883  18.720  0.00  0.00    +0.000 OA
ATOM      3  N   UNL     1       6.698   7.631  17.106  0.00  0.00    +0.000 N 
ATOM      4  H   UNL     1       6.522   8.345  16.411  0.00  0.00    +0.000 HD
ENDROOT
BRANCH   1   8
ATOM      5  C   UNL     1       9.238  11.785  18.474  0.00  0.00    +0.000 A 
ATOM      6  C   UNL     1       8.263  11.473  17.523  0.00  0.00    +0.000 A 
ATOM      7  C   UNL     1       7.805  10.167  17.401  0.00  0.00    +0.000 A 
ATOM      8  C   UNL     1       8.317   9.140  18.215  0.00  0.00    +0.000 A 
ATOM      9  C   UNL     1       9.337   9.438  19.124  0.00  0.00    +0.000 A 
ATOM     10  C   UNL     1       9.790  10.755  19.252  0.00  0.00    +0.000 A 
BRANCH   5  11
ATOM     11  C   UNL     1       9.598  13.232  18.722  0.00  0.00    +0.000 C 
BRANCH  11  12
ATOM     12  N   UNL     1       8.646  13.899  19.637  0.00  0.00    +0.000 NA
ATOM     13  C   UNL     1       7.999  15.009  18.936  0.00  0.00    +0.000 C 
BRANCH  12  14
ATOM     14  C   UNL     1       9.318  14.354  20.877  0.00  0.00    +0.000 C 
BRANCH  14  15
ATOM     15  C   UNL     1       9.445  13.265  21.964  0.00  0.00    +0.000 C 
BRANCH  15  17
ATOM     16  C   UNL     1       8.089  11.841  23.341  0.00  0.00    +0.000 C 
ATOM     17  N   UNL     1       8.237  12.429  22.016  0.00  0.00    +0.000 NA
ATOM     18  H   UNL     1       7.421  13.008  21.815  0.00  0.00    +0.000 HD
ENDBRANCH  15  17
ENDBRANCH  14  15
ENDBRANCH  12  14
ENDBRANCH  11  12
ENDBRANCH   5  11
ENDBRANCH   1   8
BRANCH   3  19
ATOM     19  C   UNL     1       6.032   6.407  16.852  0.00  0.00    +0.000 A 
ATOM     20  C   UNL     1       4.854   6.056  17.507  0.00  0.00    +0.000 A 
ATOM     21  C   UNL     1       4.281   4.777  17.415  0.00  0.00    +0.000 A 
ATOM     22  C   UNL     1       4.860   3.884  16.502  0.00  0.00    +0.000 A 
ATOM     23  C   UNL     1       5.993   4.247  15.755  0.00  0.00    +0.000 A 
ATOM     24  C   UNL     1       6.581   5.499  15.947  0.00  0.00    +0.000 A 
BRANCH  21  25
ATOM     25  C   UNL     1       3.157   4.431  18.315  0.00  0.00    +0.000 A 
ATOM     26  C   UNL     1       2.173   3.493  17.975  0.00  0.00    +0.000 A 
ATOM     27  C   UNL     1       1.102   3.227  18.840  0.00  0.00    +0.000 A 
ATOM     28  C   UNL     1       0.994   3.893  20.061  0.00  0.00    +0.000 A 
ATOM     29  C   UNL     1       1.961   4.819  20.427  0.00  0.00    +0.000 A 
ATOM     30  C   UNL     1       3.033   5.069  19.570  0.00  0.00    +0.000 A 
ENDBRANCH  21  25
BRANCH  24  31
ATOM     31  O   UNL     1       7.725   5.845  15.277  0.00  0.00    +0.000 OA
ATOM     32  H   UNL     1       7.488   6.486  14.586  0.00  0.00    +0.000 HD
ENDBRANCH  24  31
ENDBRANCH   3  19
TORSDOF 9
ENDMDL
MODEL 8
REMARK VINA RESULT:      -7.8      1.354      2.107
REMARK  Name = 
REMARK  11 active torsions:
REMARK  status: ('A' for Active; 'I' for Inactive)
REMARK    1  A    between atoms: C_1  and  N_2
REMARK    2  A    between atoms: N_2  and  C_3
REMARK    3  A    between atoms: C_3  and  C_4
REMARK    4  A    between atoms: C_4  and  N_5
REMARK    5  A    between atoms: N_5  and  C_6
REMARK    6  A    between atoms: N_5  and  C_7
REMARK    7  A    between atoms: C_7  and  C_8
REMARK    8  A    between atoms: C_11  and  C_12
REMARK    9  A    between atoms: N_14  and  C_15
REMARK   10  A    between atoms: C_17  and  C_18
REMARK   11  A    between atoms: C_26  and  O_27
REMARK                            x       y       z     vdW  Elec       q    Type
REMARK                         _______ _______ _______ _____ _____    ______ ____
ROOT
ATOM      1  C   UNL     1       7.679   7.874  18.022  0.00  0.00    +0.000 C 
ATOM      2  O   UNL     1       8.189   6.972  18.686  0.00  0.00    +0.000 OA
ATOM      3  N   UNL     1       6.647   7.700  17.110  0.00  0.00    +0.000 N 
ATOM      4  H   UNL     1       6.444   8.414  16.422  0.00  0.00    +0.000 HD
ENDROOT
BRANCH   1   8
ATOM      5  C   UNL     1       9.587  11.684  18.584  0.00  0.00    +0.000 A 
ATOM      6  C   UNL     1       9.845  10.604  19.432  0.00  0.00    +0.000 A 
ATOM      7  C   UNL     1       9.197   9.392  19.229  0.00  0.00    +0.000 A 
ATOM      8  C   UNL     1       8.268   9.233  18.185  0.00  0.00    +0.000 A 
ATOM      9  C   UNL     1       7.962  10.329  17.374  0.00  0.00    +0.000 A 
ATOM     10  C   UNL     1       8.622  11.547  17.573  0.00  0.00    +0.000 A 
BRANCH   5  11
ATOM     11  C   UNL     1      10.424  12.938  18.700  0.00  0.00    +0.000 C 
BRANCH  11  12
ATOM     12  N   UNL     1       9.612  14.168  18.584  0.00  0.00    +0.000 NA
ATOM     13  C   UNL     1      10.341  15.155  17.785  0.00  0.00    +0.000 C 
BRANCH  12  14
ATOM     14  C   UNL     1       9.251  14.704  19.917  0.00  0.00    +0.000 C 
BRANCH  14  15
ATOM     15  C   UNL     1       7.788  15.185  20.030  0.00  0.00    +0.000 C 
BRANCH  15  17
ATOM     16  C   UNL     1       7.241  17.162  18.783  0.00  0.00    +0.000 C 
ATOM     17  N   UNL     1       7.716  16.653  20.063  0.00  0.00    +0.000 NA
ATOM     18  H   UNL     1       7.068  16.940  20.797  0.00  0.00    +0.000 HD
ENDBRANCH  15  17
ENDBRANCH  14  15
ENDBRANCH  12  14
ENDBRANCH  11  12
ENDBRANCH   5  11
ENDBRANCH   1   8
BRANCH   3  19
ATOM     19  C   UNL     1       5.995   6.466  16.868  0.00  0.00    +0.000 A 
ATOM     20  C   UNL     1       4.806   6.121  17.505  0.00  0.00    +0.000 A 
ATOM     21  C   UNL     1       4.244   4.836  17.428  0.00  0.00    +0.000 A 
ATOM     22  C   UNL     1       4.848   3.929  16.546  0.00  0.00    +0.000 A 
ATOM     23  C   UNL     1       5.994   4.284  15.815  0.00  0.00    +0.000 A 
ATOM     24  C   UNL     1       6.569   5.544  15.994  0.00  0.00    +0.000 A 
BRANCH  21  25
ATOM     25  C   UNL     1       3.104   4.500  18.312  0.00  0.00    +0.000 A 
ATOM     26  C   UNL     1       2.884   5.134  19.542  0.00  0.00    +0.000 A 
ATOM     27  C   UNL     1       1.815   4.755  20.366  0.00  0.00    +0.000 A 
ATOM     28  C   UNL     1       0.945   3.737  19.977  0.00  0.00    +0.000 A 
ATOM     29  C   UNL     1       1.134   3.099  18.757  0.00  0.00    +0.000 A 
ATOM     30  C   UNL     1       2.191   3.490  17.934  0.00  0.00    +0.000 A 
ENDBRANCH  21  25
BRANCH  24  31
ATOM     31  O   UNL     1       7.725   5.885  15.340  0.00  0.00    +0.000 OA
ATOM     32  H   UNL     1       7.576   5.774  14.386  0.00  0.00    +0.000 HD
ENDBRANCH  24  31
ENDBRANCH   3  19
TORSDOF 9
ENDMDL
MODEL 9
REMARK VINA RESULT:      -7.7      1.845      2.245
REMARK  Name = 
REMARK  11 active torsions:
REMARK  status: ('A' for Active; 'I' for Inactive)
REMARK    1  A    between atoms: C_1  and  N_2
REMARK    2  A    between atoms: N_2  and  C_3
REMARK    3  A    between atoms: C_3  and  C_4
REMARK    4  A    between atoms: C_4  and  N_5
REMARK    5  A    between atoms: N_5  and  C_6
REMARK    6  A    between atoms: N_5  and  C_7
REMARK    7  A    between atoms: C_7  and  C_8
REMARK    8  A    between atoms: C_11  and  C_12
REMARK    9  A    between atoms: N_14  and  C_15
REMARK   10  A    between atoms: C_17  and  C_18
REMARK   11  A    between atoms: C_26  and  O_27
REMARK                            x       y       z     vdW  Elec       q    Type
REMARK                         _______ _______ _______ _____ _____    ______ ____
ROOT
ATOM      1  C   UNL     1       7.739   7.791  18.084  0.00  0.00    +0.000 C 
ATOM      2  O   UNL     1       8.222   6.870  18.744  0.00  0.00    +0.000 OA
ATOM      3  N   UNL     1       6.713   7.651  17.160  0.00  0.00    +0.000 N 
ATOM      4  H   UNL     1       6.534   8.377  16.478  0.00  0.00    +0.000 HD
ENDROOT
BRANCH   1   8
ATOM      5  C   UNL     1       9.306  11.768  18.533  0.00  0.00    +0.000 A 
ATOM      6  C   UNL     1       8.394  11.450  17.523  0.00  0.00    +0.000 A 
ATOM      7  C   UNL     1       7.921  10.150  17.399  0.00  0.00    +0.000 A 
ATOM      8  C   UNL     1       8.357   9.134  18.269  0.00  0.00    +0.000 A 
ATOM      9  C   UNL     1       9.316   9.436  19.240  0.00  0.00    +0.000 A 
ATOM     10  C   UNL     1       9.784  10.748  19.371  0.00  0.00    +0.000 A 
BRANCH   5  11
ATOM     11  C   UNL     1       9.675  13.215  18.773  0.00  0.00    +0.000 C 
BRANCH  11  12
ATOM     12  N   UNL     1       8.741  14.150  18.107  0.00  0.00    +0.000 NA
ATOM     13  C   UNL     1       9.460  15.373  17.745  0.00  0.00    +0.000 C 
BRANCH  12  14
ATOM     14  C   UNL     1       7.567  14.441  18.963  0.00  0.00    +0.000 C 
BRANCH  14  15
ATOM     15  C   UNL     1       6.467  15.270  18.265  0.00  0.00    +0.000 C 
BRANCH  15  17
ATOM     16  C   UNL     1       4.102  14.880  18.123  0.00  0.00    +0.000 C 
ATOM     17  N   UNL     1       5.205  15.210  19.017  0.00  0.00    +0.000 NA
ATOM     18  H   UNL     1       5.278  14.490  19.736  0.00  0.00    +0.000 HD
ENDBRANCH  15  17
ENDBRANCH  14  15
ENDBRANCH  12  14
ENDBRANCH  11  12
ENDBRANCH   5  11
ENDBRANCH   1   8
BRANCH   3  19
ATOM     19  C   UNL     1       6.037   6.435  16.897  0.00  0.00    +0.000 A 
ATOM     20  C   UNL     1       4.855   6.090  17.550  0.00  0.00    +0.000 A 
ATOM     21  C   UNL     1       4.271   4.817  17.449  0.00  0.00    +0.000 A 
ATOM     22  C   UNL     1       4.841   3.926  16.529  0.00  0.00    +0.000 A 
ATOM     23  C   UNL     1       5.977   4.285  15.783  0.00  0.00    +0.000 A 
ATOM     24  C   UNL     1       6.576   5.529  15.985  0.00  0.00    +0.000 A 
BRANCH  21  25
ATOM     25  C   UNL     1       3.145   4.474  18.347  0.00  0.00    +0.000 A 
ATOM     26  C   UNL     1       2.138   3.567  17.991  0.00  0.00    +0.000 A 
ATOM     27  C   UNL     1       1.066   3.304  18.855  0.00  0.00    +0.000 A 
ATOM     28  C   UNL     1       0.980   3.941  20.093  0.00  0.00    +0.000 A 
ATOM     29  C   UNL     1       1.970   4.837  20.476  0.00  0.00    +0.000 A 
ATOM     30  C   UNL     1       3.043   5.084  19.617  0.00  0.00    +0.000 A 
ENDBRANCH  21  25
BRANCH  24  31
ATOM     31  O   UNL     1       7.723   5.871  15.316  0.00  0.00    +0.000 OA
ATOM     32  H   UNL     1       8.363   6.207  15.965  0.00  0.00    +0.000 HD
ENDBRANCH  24  31
ENDBRANCH   3  19
TORSDOF 9
ENDMDL
