MODEL 1
REMARK VINA RESULT:      -6.8      0.000      0.000
REMARK  Name = 
REMARK  5 active torsions:
REMARK  status: ('A' for Active; 'I' for Inactive)
REMARK    1  A    between atoms: C_1  and  C_2
REMARK    2  A    between atoms: C_5  and  N_6
REMARK    3  A    between atoms: C_7  and  S_8
REMARK    4  A    between atoms: N_9  and  C_10
REMARK    5  A    between atoms: C_20  and  C_21
REMARK                            x       y       z     vdW  Elec       q    Type
REMARK                         _______ _______ _______ _____ _____    ______ ____
ROOT
ATOM      1  N   UNL     1      -1.703  10.943  18.618  0.00  0.00    +0.000 NA
ATOM      2  C   UNL     1      -0.583  11.594  18.683  0.00  0.00    +0.000 C 
ATOM      3  N   UNL     1       0.630  11.017  18.964  0.00  0.00    +0.000 N 
ATOM      4  H   UNL     1       1.419  11.647  18.935  0.00  0.00    +0.000 HD
ENDROOT
BRANCH   3   5
ATOM      5  C   UNL     1       0.871   9.840  19.708  0.00  0.00    +0.000 A 
ATOM      6  C   UNL     1       0.296   9.660  20.978  0.00  0.00    +0.000 A 
ATOM      7  C   UNL     1       0.537   8.512  21.727  0.00  0.00    +0.000 A 
ATOM      8  C   UNL     1       1.353   7.513  21.212  0.00  0.00    +0.000 A 
ATOM      9  C   UNL     1       1.919   7.640  19.935  0.00  0.00    +0.000 A 
ATOM     10  C   UNL     1       2.716   6.634  19.385  0.00  0.00    +0.000 A 
ATOM     11  N   UNL     1       3.277   6.678  18.156  0.00  0.00    +0.000 NA
ATOM     12  C   UNL     1       3.021   7.777  17.424  0.00  0.00    +0.000 A 
ATOM     13  C   UNL     1       2.248   8.841  17.868  0.00  0.00    +0.000 A 
ATOM     14  C   UNL     1       1.678   8.800  19.160  0.00  0.00    +0.000 A 
ENDBRANCH   3   5
BRANCH   1  19
ATOM     15  C   UNL     1      -6.989  12.683  17.204  0.00  0.00    +0.000 C 
ATOM     16  C   UNL     1      -5.593  12.273  17.567  0.00  0.00    +0.000 A 
ATOM     17  C   UNL     1      -5.099  12.498  18.849  0.00  0.00    +0.000 A 
ATOM     18  C   UNL     1      -3.821  12.056  19.203  0.00  0.00    +0.000 A 
ATOM     19  C   UNL     1      -2.972  11.437  18.278  0.00  0.00    +0.000 A 
ATOM     20  C   UNL     1      -3.482  11.179  16.988  0.00  0.00    +0.000 A 
ATOM     21  C   UNL     1      -2.713  10.397  15.955  0.00  0.00    +0.000 C 
ATOM     22  C   UNL     1      -4.786  11.599  16.646  0.00  0.00    +0.000 A 
ENDBRANCH   1  19
BRANCH   2  23
ATOM     23  S   UNL     1      -0.370  13.317  18.402  0.00  0.00    +0.000 S 
ATOM     24  H   UNL     1      -1.631  13.640  18.726  0.00  0.00    +0.000 HD
ENDBRANCH   2  23
TORSDOF 3
ENDMDL
MODEL 2
REMARK VINA RESULT:      -6.8      3.122      4.725
REMARK  Name = 
REMARK  5 active torsions:
REMARK  status: ('A' for Active; 'I' for Inactive)
REMARK    1  A    between atoms: C_1  and  C_2
REMARK    2  A    between atoms: C_5  and  N_6
REMARK    3  A    between atoms: C_7  and  S_8
REMARK    4  A    between atoms: N_9  and  C_10
REMARK    5  A    between atoms: C_20  and  C_21
REMARK                            x       y       z     vdW  Elec       q    Type
REMARK                         _______ _______ _______ _____ _____    ______ ____
ROOT
ATOM      1  N   UNL     1       1.371   9.527  19.810  0.00  0.00    +0.000 NA
ATOM      2  C   UNL     1       1.066   8.642  20.707  0.00  0.00    +0.000 C 
ATOM      3  N   UNL     1       1.634   7.395  20.784  0.00  0.00    +0.000 N 
ATOM      4  H   UNL     1       1.325   6.833  21.565  0.00  0.00    +0.000 HD
ENDROOT
BRANCH   3   5
ATOM      5  C   UNL     1       2.201   6.640  19.732  0.00  0.00    +0.000 A 
ATOM      6  C   UNL     1       2.999   7.256  18.753  0.00  0.00    +0.000 A 
ATOM      7  C   UNL     1       3.552   6.528  17.704  0.00  0.00    +0.000 A 
ATOM      8  C   UNL     1       3.325   5.161  17.621  0.00  0.00    +0.000 A 
ATOM      9  C   UNL     1       2.561   4.502  18.597  0.00  0.00    +0.000 A 
ATOM     10  C   UNL     1       2.346   3.124  18.550  0.00  0.00    +0.000 A 
ATOM     11  N   UNL     1       1.640   2.420  19.464  0.00  0.00    +0.000 NA
ATOM     12  C   UNL     1       1.129   3.123  20.490  0.00  0.00    +0.000 A 
ATOM     13  C   UNL     1       1.273   4.496  20.637  0.00  0.00    +0.000 A 
ATOM     14  C   UNL     1       1.996   5.231  19.672  0.00  0.00    +0.000 A 
ENDBRANCH   3   5
BRANCH   1  19
ATOM     15  C   UNL     1      -0.852  14.809  19.450  0.00  0.00    +0.000 C 
ATOM     16  C   UNL     1      -0.235  13.444  19.516  0.00  0.00    +0.000 A 
ATOM     17  C   UNL     1       0.802  13.178  20.407  0.00  0.00    +0.000 A 
ATOM     18  C   UNL     1       1.329  11.888  20.512  0.00  0.00    +0.000 A 
ATOM     19  C   UNL     1       0.890  10.841  19.693  0.00  0.00    +0.000 A 
ATOM     20  C   UNL     1      -0.182  11.101  18.814  0.00  0.00    +0.000 A 
ATOM     21  C   UNL     1      -0.830  10.021  17.987  0.00  0.00    +0.000 C 
ATOM     22  C   UNL     1      -0.733  12.398  18.735  0.00  0.00    +0.000 A 
ENDBRANCH   1  19
BRANCH   2  23
ATOM     23  S   UNL     1      -0.096   8.846  22.011  0.00  0.00    +0.000 S 
ATOM     24  H   UNL     1      -0.075  10.187  21.970  0.00  0.00    +0.000 HD
ENDBRANCH   2  23
TORSDOF 3
ENDMDL
MODEL 3
REMARK VINA RESULT:      -6.7      4.016      6.726
REMARK  Name = 
REMARK  5 active torsions:
REMARK  status: ('A' for Active; 'I' for Inactive)
REMARK    1  A    between atoms: C_1  and  C_2
REMARK    2  A    between atoms: C_5  and  N_6
REMARK    3  A    between atoms: C_7  and  S_8
REMARK    4  A    between atoms: N_9  and  C_10
REMARK    5  A    between atoms: C_20  and  C_21
REMARK                            x       y       z     vdW  Elec       q    Type
REMARK                         _______ _______ _______ _____ _____    ______ ____
ROOT
ATOM      1  N   UNL     1       3.095   6.740  19.616  0.00  0.00    +0.000 NA
ATOM      2  C   UNL     1       2.921   5.478  19.371  0.00  0.00    +0.000 C 
ATOM      3  N   UNL     1       3.942   4.584  19.169  0.00  0.00    +0.000 N 
ATOM      4  H   UNL     1       3.650   3.626  19.034  0.00  0.00    +0.000 HD
ENDROOT
BRANCH   3   5
ATOM      5  C   UNL     1       5.240   4.855  18.681  0.00  0.00    +0.000 A 
ATOM      6  C   UNL     1       6.253   5.308  19.542  0.00  0.00    +0.000 A 
ATOM      7  C   UNL     1       7.532   5.592  19.072  0.00  0.00    +0.000 A 
ATOM      8  C   UNL     1       7.826   5.416  17.726  0.00  0.00    +0.000 A 
ATOM      9  C   UNL     1       6.850   4.934  16.840  0.00  0.00    +0.000 A 
ATOM     10  C   UNL     1       7.132   4.720  15.489  0.00  0.00    +0.000 A 
ATOM     11  N   UNL     1       6.252   4.239  14.583  0.00  0.00    +0.000 NA
ATOM     12  C   UNL     1       5.025   3.941  15.046  0.00  0.00    +0.000 A 
ATOM     13  C   UNL     1       4.631   4.117  16.365  0.00  0.00    +0.000 A 
ATOM     14  C   UNL     1       5.547   4.636  17.306  0.00  0.00    +0.000 A 
ENDBRANCH   3   5
BRANCH   1  19
ATOM     15  C   UNL     1      -1.071  10.580  20.551  0.00  0.00    +0.000 C 
ATOM     16  C   UNL     1       0.047   9.604  20.333  0.00  0.00    +0.000 A 
ATOM     17  C   UNL     1       0.362   8.659  21.306  0.00  0.00    +0.000 A 
ATOM     18  C   UNL     1       1.360   7.709  21.072  0.00  0.00    +0.000 A 
ATOM     19  C   UNL     1       2.118   7.709  19.895  0.00  0.00    +0.000 A 
ATOM     20  C   UNL     1       1.779   8.645  18.896  0.00  0.00    +0.000 A 
ATOM     21  C   UNL     1       2.430   8.649  17.536  0.00  0.00    +0.000 C 
ATOM     22  C   UNL     1       0.748   9.581  19.124  0.00  0.00    +0.000 A 
ENDBRANCH   1  19
BRANCH   2  23
ATOM     23  S   UNL     1       1.376   4.646  19.274  0.00  0.00    +0.000 S 
ATOM     24  H   UNL     1       1.312   4.374  20.587  0.00  0.00    +0.000 HD
ENDBRANCH   2  23
TORSDOF 3
ENDMDL
MODEL 4
REMARK VINA RESULT:      -6.7      4.322      6.821
REMARK  Name = 
REMARK  5 active torsions:
REMARK  status: ('A' for Active; 'I' for Inactive)
REMARK    1  A    between atoms: C_1  and  C_2
REMARK    2  A    between atoms: C_5  and  N_6
REMARK    3  A    between atoms: C_7  and  S_8
REMARK    4  A    between atoms: N_9  and  C_10
REMARK    5  A    between atoms: C_20  and  C_21
REMARK                            x       y       z     vdW  Elec       q    Type
REMARK                         _______ _______ _______ _____ _____    ______ ____
ROOT
ATOM      1  N   UNL     1       2.695   6.457  19.459  0.00  0.00    +0.000 NA
ATOM      2  C   UNL     1       2.438   5.198  19.631  0.00  0.00    +0.000 C 
ATOM      3  N   UNL     1       3.249   4.179  19.200  0.00  0.00    +0.000 N 
ATOM      4  H   UNL     1       2.937   3.250  19.447  0.00  0.00    +0.000 HD
ENDROOT
BRANCH   3   5
ATOM      5  C   UNL     1       4.159   4.201  18.119  0.00  0.00    +0.000 A 
ATOM      6  C   UNL     1       3.760   3.796  16.834  0.00  0.00    +0.000 A 
ATOM      7  C   UNL     1       4.650   3.799  15.763  0.00  0.00    +0.000 A 
ATOM      8  C   UNL     1       5.958   4.222  15.957  0.00  0.00    +0.000 A 
ATOM      9  C   UNL     1       6.386   4.666  17.218  0.00  0.00    +0.000 A 
ATOM     10  C   UNL     1       7.688   5.124  17.428  0.00  0.00    +0.000 A 
ATOM     11  N   UNL     1       8.165   5.585  18.606  0.00  0.00    +0.000 NA
ATOM     12  C   UNL     1       7.295   5.605  19.631  0.00  0.00    +0.000 A 
ATOM     13  C   UNL     1       5.980   5.169  19.541  0.00  0.00    +0.000 A 
ATOM     14  C   UNL     1       5.491   4.672  18.314  0.00  0.00    +0.000 A 
ENDBRANCH   3   5
BRANCH   1  19
ATOM     15  C   UNL     1      -0.532  10.899  21.141  0.00  0.00    +0.000 C 
ATOM     16  C   UNL     1       0.347   9.758  20.726  0.00  0.00    +0.000 A 
ATOM     17  C   UNL     1       0.574   8.688  21.588  0.00  0.00    +0.000 A 
ATOM     18  C   UNL     1       1.340   7.595  21.173  0.00  0.00    +0.000 A 
ATOM     19  C   UNL     1       1.958   7.561  19.917  0.00  0.00    +0.000 A 
ATOM     20  C   UNL     1       1.703   8.628  19.031  0.00  0.00    +0.000 A 
ATOM     21  C   UNL     1       2.198   8.634  17.607  0.00  0.00    +0.000 C 
ATOM     22  C   UNL     1       0.901   9.714  19.444  0.00  0.00    +0.000 A 
ENDBRANCH   1  19
BRANCH   2  23
ATOM     23  S   UNL     1       1.037   4.531  20.460  0.00  0.00    +0.000 S 
ATOM     24  H   UNL     1       0.998   3.407  19.726  0.00  0.00    +0.000 HD
ENDBRANCH   2  23
TORSDOF 3
ENDMDL
MODEL 5
REMARK VINA RESULT:      -6.5      2.789      7.581
REMARK  Name = 
REMARK  5 active torsions:
REMARK  status: ('A' for Active; 'I' for Inactive)
REMARK    1  A    between atoms: C_1  and  C_2
REMARK    2  A    between atoms: C_5  and  N_6
REMARK    3  A    between atoms: C_7  and  S_8
REMARK    4  A    between atoms: N_9  and  C_10
REMARK    5  A    between atoms: C_20  and  C_21
REMARK                            x       y       z     vdW  Elec       q    Type
REMARK                         _______ _______ _______ _____ _____    ______ ____
ROOT
ATOM      1  N   UNL     1      -0.471  10.723  20.199  0.00  0.00    +0.000 NA
ATOM      2  C   UNL     1      -0.278  11.922  20.652  0.00  0.00    +0.000 C 
ATOM      3  N   UNL     1      -1.253  12.695  21.229  0.00  0.00    +0.000 N 
ATOM      4  H   UNL     1      -0.940  13.591  21.575  0.00  0.00    +0.000 HD
ENDROOT
BRANCH   3   5
ATOM      5  C   UNL     1      -2.647  12.631  21.006  0.00  0.00    +0.000 A 
ATOM      6  C   UNL     1      -3.163  12.542  19.702  0.00  0.00    +0.000 A 
ATOM      7  C   UNL     1      -4.534  12.493  19.466  0.00  0.00    +0.000 A 
ATOM      8  C   UNL     1      -5.418  12.520  20.537  0.00  0.00    +0.000 A 
ATOM      9  C   UNL     1      -4.941  12.576  21.856  0.00  0.00    +0.000 A 
ATOM     10  C   UNL     1      -5.811  12.573  22.948  0.00  0.00    +0.000 A 
ATOM     11  N   UNL     1      -5.425  12.604  24.244  0.00  0.00    +0.000 NA
ATOM     12  C   UNL     1      -4.099  12.626  24.468  0.00  0.00    +0.000 A 
ATOM     13  C   UNL     1      -3.142  12.636  23.462  0.00  0.00    +0.000 A 
ATOM     14  C   UNL     1      -3.549  12.622  22.110  0.00  0.00    +0.000 A 
ENDBRANCH   3   5
BRANCH   1  19
ATOM     15  C   UNL     1       3.211   6.896  18.013  0.00  0.00    +0.000 C 
ATOM     16  C   UNL     1       2.285   7.928  18.585  0.00  0.00    +0.000 A 
ATOM     17  C   UNL     1       1.695   8.885  17.762  0.00  0.00    +0.000 A 
ATOM     18  C   UNL     1       0.782   9.803  18.287  0.00  0.00    +0.000 A 
ATOM     19  C   UNL     1       0.476   9.841  19.653  0.00  0.00    +0.000 A 
ATOM     20  C   UNL     1       1.048   8.854  20.482  0.00  0.00    +0.000 A 
ATOM     21  C   UNL     1       0.685   8.710  21.938  0.00  0.00    +0.000 C 
ATOM     22  C   UNL     1       1.944   7.908  19.940  0.00  0.00    +0.000 A 
ENDBRANCH   1  19
BRANCH   2  23
ATOM     23  S   UNL     1       1.249  12.795  20.655  0.00  0.00    +0.000 S 
ATOM     24  H   UNL     1       0.750  13.896  20.073  0.00  0.00    +0.000 HD
ENDBRANCH   2  23
TORSDOF 3
ENDMDL
MODEL 6
REMARK VINA RESULT:      -6.4      3.749      6.693
REMARK  Name = 
REMARK  5 active torsions:
REMARK  status: ('A' for Active; 'I' for Inactive)
REMARK    1  A    between atoms: C_1  and  C_2
REMARK    2  A    between atoms: C_5  and  N_6
REMARK    3  A    between atoms: C_7  and  S_8
REMARK    4  A    between atoms: N_9  and  C_10
REMARK    5  A    between atoms: C_20  and  C_21
REMARK                            x       y       z     vdW  Elec       q    Type
REMARK                         _______ _______ _______ _____ _____    ______ ____
ROOT
ATOM      1  N   UNL     1       2.980   6.970  18.835  0.00  0.00    +0.000 NA
ATOM      2  C   UNL     1       2.809   5.700  18.639  0.00  0.00    +0.000 C 
ATOM      3  N   UNL     1       3.819   4.772  18.668  0.00  0.00    +0.000 N 
ATOM      4  H   UNL     1       3.524   3.815  18.540  0.00  0.00    +0.000 HD
ENDROOT
BRANCH   3   5
ATOM      5  C   UNL     1       5.190   4.983  18.395  0.00  0.00    +0.000 A 
ATOM      6  C   UNL     1       6.084   5.326  19.423  0.00  0.00    +0.000 A 
ATOM      7  C   UNL     1       7.434   5.550  19.167  0.00  0.00    +0.000 A 
ATOM      8  C   UNL     1       7.918   5.423  17.872  0.00  0.00    +0.000 A 
ATOM      9  C   UNL     1       7.063   5.051  16.822  0.00  0.00    +0.000 A 
ATOM     10  C   UNL     1       7.535   4.887  15.519  0.00  0.00    +0.000 A 
ATOM     11  N   UNL     1       6.778   4.511  14.464  0.00  0.00    +0.000 NA
ATOM     12  C   UNL     1       5.480   4.270  14.721  0.00  0.00    +0.000 A 
ATOM     13  C   UNL     1       4.900   4.405  15.974  0.00  0.00    +0.000 A 
ATOM     14  C   UNL     1       5.689   4.815  17.070  0.00  0.00    +0.000 A 
ENDBRANCH   3   5
BRANCH   1  19
ATOM     15  C   UNL     1      -0.833  11.248  19.207  0.00  0.00    +0.000 C 
ATOM     16  C   UNL     1       0.128  10.103  19.092  0.00  0.00    +0.000 A 
ATOM     17  C   UNL     1       0.736   9.808  17.874  0.00  0.00    +0.000 A 
ATOM     18  C   UNL     1       1.682   8.782  17.786  0.00  0.00    +0.000 A 
ATOM     19  C   UNL     1       2.002   7.977  18.886  0.00  0.00    +0.000 A 
ATOM     20  C   UNL     1       1.411   8.294  20.126  0.00  0.00    +0.000 A 
ATOM     21  C   UNL     1       1.784   7.589  21.405  0.00  0.00    +0.000 C 
ATOM     22  C   UNL     1       0.482   9.353  20.217  0.00  0.00    +0.000 A 
ENDBRANCH   1  19
BRANCH   2  23
ATOM     23  S   UNL     1       1.276   4.898  18.325  0.00  0.00    +0.000 S 
ATOM     24  H   UNL     1       0.559   6.032  18.298  0.00  0.00    +0.000 HD
ENDBRANCH   2  23
TORSDOF 3
ENDMDL
MODEL 7
REMARK VINA RESULT:      -6.4      4.231      8.196
REMARK  Name = 
REMARK  5 active torsions:
REMARK  status: ('A' for Active; 'I' for Inactive)
REMARK    1  A    between atoms: C_1  and  C_2
REMARK    2  A    between atoms: C_5  and  N_6
REMARK    3  A    between atoms: C_7  and  S_8
REMARK    4  A    between atoms: N_9  and  C_10
REMARK    5  A    between atoms: C_20  and  C_21
REMARK                            x       y       z     vdW  Elec       q    Type
REMARK                         _______ _______ _______ _____ _____    ______ ____
ROOT
ATOM      1  N   UNL     1       2.701   6.890  18.593  0.00  0.00    +0.000 NA
ATOM      2  C   UNL     1       2.215   6.686  19.778  0.00  0.00    +0.000 C 
ATOM      3  N   UNL     1       1.288   7.498  20.382  0.00  0.00    +0.000 N 
ATOM      4  H   UNL     1       0.972   7.184  21.288  0.00  0.00    +0.000 HD
ENDROOT
BRANCH   3   5
ATOM      5  C   UNL     1       1.069   8.874  20.151  0.00  0.00    +0.000 A 
ATOM      6  C   UNL     1       1.414   9.462  18.922  0.00  0.00    +0.000 A 
ATOM      7  C   UNL     1       1.217  10.820  18.687  0.00  0.00    +0.000 A 
ATOM      8  C   UNL     1       0.657  11.616  19.677  0.00  0.00    +0.000 A 
ATOM      9  C   UNL     1       0.268  11.060  20.906  0.00  0.00    +0.000 A 
ATOM     10  C   UNL     1      -0.326  11.836  21.903  0.00  0.00    +0.000 A 
ATOM     11  N   UNL     1      -0.744  11.367  23.101  0.00  0.00    +0.000 NA
ATOM     12  C   UNL     1      -0.576  10.050  23.314  0.00  0.00    +0.000 A 
ATOM     13  C   UNL     1       0.006   9.184  22.399  0.00  0.00    +0.000 A 
ATOM     14  C   UNL     1       0.458   9.680  21.157  0.00  0.00    +0.000 A 
ENDBRANCH   3   5
BRANCH   1  19
ATOM     15  C   UNL     1       6.204   3.627  15.422  0.00  0.00    +0.000 C 
ATOM     16  C   UNL     1       5.313   4.465  16.289  0.00  0.00    +0.000 A 
ATOM     17  C   UNL     1       5.732   5.714  16.740  0.00  0.00    +0.000 A 
ATOM     18  C   UNL     1       4.873   6.520  17.492  0.00  0.00    +0.000 A 
ATOM     19  C   UNL     1       3.600   6.084  17.876  0.00  0.00    +0.000 A 
ATOM     20  C   UNL     1       3.161   4.832  17.395  0.00  0.00    +0.000 A 
ATOM     21  C   UNL     1       1.762   4.322  17.626  0.00  0.00    +0.000 C 
ATOM     22  C   UNL     1       4.021   4.037  16.607  0.00  0.00    +0.000 A 
ENDBRANCH   1  19
BRANCH   2  23
ATOM     23  S   UNL     1       2.605   5.339  20.839  0.00  0.00    +0.000 S 
ATOM     24  H   UNL     1       1.351   5.186  21.292  0.00  0.00    +0.000 HD
ENDBRANCH   2  23
TORSDOF 3
ENDMDL
MODEL 8
REMARK VINA RESULT:      -6.4      1.629      7.470
REMARK  Name = 
REMARK  5 active torsions:
REMARK  status: ('A' for Active; 'I' for Inactive)
REMARK    1  A    between atoms: C_1  and  C_2
REMARK    2  A    between atoms: C_5  and  N_6
REMARK    3  A    between atoms: C_7  and  S_8
REMARK    4  A    between atoms: N_9  and  C_10
REMARK    5  A    between atoms: C_20  and  C_21
REMARK                            x       y       z     vdW  Elec       q    Type
REMARK                         _______ _______ _______ _____ _____    ______ ____
ROOT
ATOM      1  N   UNL     1       0.120  10.049  19.005  0.00  0.00    +0.000 NA
ATOM      2  C   UNL     1       0.281  11.334  18.941  0.00  0.00    +0.000 C 
ATOM      3  N   UNL     1      -0.743  12.244  19.016  0.00  0.00    +0.000 N 
ATOM      4  H   UNL     1      -0.455  13.213  18.996  0.00  0.00    +0.000 HD
ENDROOT
BRANCH   3   5
ATOM      5  C   UNL     1      -2.097  12.048  18.662  0.00  0.00    +0.000 A 
ATOM      6  C   UNL     1      -2.446  11.572  17.387  0.00  0.00    +0.000 A 
ATOM      7  C   UNL     1      -3.776  11.388  17.020  0.00  0.00    +0.000 A 
ATOM      8  C   UNL     1      -4.786  11.667  17.932  0.00  0.00    +0.000 A 
ATOM      9  C   UNL     1      -4.477  12.113  19.226  0.00  0.00    +0.000 A 
ATOM     10  C   UNL     1      -5.475  12.370  20.168  0.00  0.00    +0.000 A 
ATOM     11  N   UNL     1      -5.253  12.781  21.437  0.00  0.00    +0.000 NA
ATOM     12  C   UNL     1      -3.966  12.933  21.795  0.00  0.00    +0.000 A 
ATOM     13  C   UNL     1      -2.892  12.712  20.943  0.00  0.00    +0.000 A 
ATOM     14  C   UNL     1      -3.128  12.300  19.613  0.00  0.00    +0.000 A 
ENDBRANCH   3   5
BRANCH   1  19
ATOM     15  C   UNL     1       3.949   5.769  19.020  0.00  0.00    +0.000 C 
ATOM     16  C   UNL     1       2.985   6.918  19.020  0.00  0.00    +0.000 A 
ATOM     17  C   UNL     1       2.754   7.650  17.858  0.00  0.00    +0.000 A 
ATOM     18  C   UNL     1       1.807   8.677  17.846  0.00  0.00    +0.000 A 
ATOM     19  C   UNL     1       1.109   9.052  19.000  0.00  0.00    +0.000 A 
ATOM     20  C   UNL     1       1.318   8.291  20.170  0.00  0.00    +0.000 A 
ATOM     21  C   UNL     1       0.522   8.511  21.431  0.00  0.00    +0.000 C 
ATOM     22  C   UNL     1       2.252   7.233  20.168  0.00  0.00    +0.000 A 
ENDBRANCH   1  19
BRANCH   2  23
ATOM     23  S   UNL     1       1.815  12.178  18.778  0.00  0.00    +0.000 S 
ATOM     24  H   UNL     1       2.121  12.109  20.083  0.00  0.00    +0.000 HD
ENDBRANCH   2  23
TORSDOF 3
ENDMDL
MODEL 9
REMARK VINA RESULT:      -6.4      1.600      6.873
REMARK  Name = 
REMARK  5 active torsions:
REMARK  status: ('A' for Active; 'I' for Inactive)
REMARK    1  A    between atoms: C_1  and  C_2
REMARK    2  A    between atoms: C_5  and  N_6
REMARK    3  A    between atoms: C_7  and  S_8
REMARK    4  A    between atoms: N_9  and  C_10
REMARK    5  A    between atoms: C_20  and  C_21
REMARK                            x       y       z     vdW  Elec       q    Type
REMARK                         _______ _______ _______ _____ _____    ______ ____
ROOT
ATOM      1  N   UNL     1       0.015  10.366  19.495  0.00  0.00    +0.000 NA
ATOM      2  C   UNL     1       0.203  11.639  19.330  0.00  0.00    +0.000 C 
ATOM      3  N   UNL     1      -0.742  12.598  19.594  0.00  0.00    +0.000 N 
ATOM      4  H   UNL     1      -0.432  13.551  19.458  0.00  0.00    +0.000 HD
ENDROOT
BRANCH   3   5
ATOM      5  C   UNL     1      -2.147  12.451  19.574  0.00  0.00    +0.000 A 
ATOM      6  C   UNL     1      -2.927  12.849  20.673  0.00  0.00    +0.000 A 
ATOM      7  C   UNL     1      -4.311  12.697  20.673  0.00  0.00    +0.000 A 
ATOM      8  C   UNL     1      -4.943  12.152  19.563  0.00  0.00    +0.000 A 
ATOM      9  C   UNL     1      -4.202  11.773  18.433  0.00  0.00    +0.000 A 
ATOM     10  C   UNL     1      -4.821  11.252  17.295  0.00  0.00    +0.000 A 
ATOM     11  N   UNL     1      -4.176  10.885  16.164  0.00  0.00    +0.000 NA
ATOM     12  C   UNL     1      -2.843  11.058  16.158  0.00  0.00    +0.000 A 
ATOM     13  C   UNL     1      -2.121  11.561  17.232  0.00  0.00    +0.000 A 
ATOM     14  C   UNL     1      -2.795  11.927  18.418  0.00  0.00    +0.000 A 
ENDBRANCH   3   5
BRANCH   1  19
ATOM     15  C   UNL     1       3.573   5.914  18.793  0.00  0.00    +0.000 C 
ATOM     16  C   UNL     1       2.682   7.105  18.978  0.00  0.00    +0.000 A 
ATOM     17  C   UNL     1       2.360   7.924  17.899  0.00  0.00    +0.000 A 
ATOM     18  C   UNL     1       1.476   8.995  18.062  0.00  0.00    +0.000 A 
ATOM     19  C   UNL     1       0.939   9.325  19.312  0.00  0.00    +0.000 A 
ATOM     20  C   UNL     1       1.239   8.478  20.400  0.00  0.00    +0.000 A 
ATOM     21  C   UNL     1       0.609   8.652  21.758  0.00  0.00    +0.000 C 
ATOM     22  C   UNL     1       2.106   7.379  20.222  0.00  0.00    +0.000 A 
ENDBRANCH   1  19
BRANCH   2  23
ATOM     23  S   UNL     1       1.686  12.403  18.773  0.00  0.00    +0.000 S 
ATOM     24  H   UNL     1       1.356  13.625  19.219  0.00  0.00    +0.000 HD
ENDBRANCH   2  23
TORSDOF 3
ENDMDL
