MODEL 1
REMARK VINA RESULT:      -5.7      0.000      0.000
REMARK  Name = 
REMARK  3 active torsions:
REMARK  status: ('A' for Active; 'I' for Inactive)
REMARK    1  A    between atoms: N_1  and  C_2
REMARK    2  A    between atoms: C_8  and  C_9
REMARK    3  A    between atoms: C_9  and  O_11
REMARK                            x       y       z     vdW  Elec       q    Type
REMARK                         _______ _______ _______ _____ _____    ______ ____
ROOT
ATOM      1  C   UNL     1       3.390   2.017  18.312  0.00  0.00    +0.000 C 
ATOM      2  C   UNL     1       1.807   2.197  19.813  0.00  0.00    +0.000 C 
ATOM      3  C   UNL     1       0.813   3.814  20.184  0.00  0.00    +0.000 C 
ATOM      4  C   UNL     1       1.525   5.077  20.322  0.00  0.00    +0.000 C 
ATOM      5  C   UNL     1       3.382   4.999  20.107  0.00  0.00    +0.000 C 
ATOM      6  C   UNL     1       2.385   3.512  21.176  0.00  0.00    +0.000 C 
ATOM      7  C   UNL     1       4.596   3.770  18.687  0.00  0.00    +0.000 C 
ENDROOT
BRANCH   1   8
ATOM      8  N   UNL     1       4.061   0.715  18.351  0.00  0.00    +0.000 NA
ATOM      9  H   UNL     1       4.136   0.446  19.330  0.00  0.00    +0.000 HD
ATOM     10  H   UNL     1       5.015   0.867  18.045  0.00  0.00    +0.000 HD
ENDBRANCH   1   8
BRANCH   7  11
ATOM     11  C   UNL     1       5.152   4.391  17.359  0.00  0.00    +0.000 C 
ATOM     12  O   UNL     1       4.513   5.142  16.640  0.00  0.00    +0.000 OA
BRANCH  11  13
ATOM     13  O   UNL     1       6.382   3.923  17.044  0.00  0.00    +0.000 OA
ATOM     14  H   UNL     1       7.104   4.481  17.393  0.00  0.00    +0.000 HD
ENDBRANCH  11  13
ENDBRANCH   7  11
TORSDOF 3
ENDMDL
MODEL 2
REMARK VINA RESULT:      -5.6      1.728      1.997
REMARK  Name = 
REMARK  3 active torsions:
REMARK  status: ('A' for Active; 'I' for Inactive)
REMARK    1  A    between atoms: N_1  and  C_2
REMARK    2  A    between atoms: C_8  and  C_9
REMARK    3  A    between atoms: C_9  and  O_11
REMARK                            x       y       z     vdW  Elec       q    Type
REMARK                         _______ _______ _______ _____ _____    ______ ____
ROOT
ATOM      1  C   UNL     1       4.459   2.292  19.739  0.00  0.00    +0.000 C 
ATOM      2  C   UNL     1       2.271   2.354  19.763  0.00  0.00    +0.000 C 
ATOM      3  C   UNL     1       1.169   3.088  18.353  0.00  0.00    +0.000 C 
ATOM      4  C   UNL     1       1.515   4.377  17.770  0.00  0.00    +0.000 C 
ATOM      5  C   UNL     1       3.045   5.205  18.461  0.00  0.00    +0.000 C 
ATOM      6  C   UNL     1       1.700   4.250  19.737  0.00  0.00    +0.000 C 
ATOM      7  C   UNL     1       4.979   4.294  19.114  0.00  0.00    +0.000 C 
ENDROOT
BRANCH   1   8
ATOM      8  N   UNL     1       5.025   1.809  21.001  0.00  0.00    +0.000 NA
ATOM      9  H   UNL     1       6.026   1.997  20.970  0.00  0.00    +0.000 HD
ATOM     10  H   UNL     1       4.945   0.799  20.992  0.00  0.00    +0.000 HD
ENDBRANCH   1   8
BRANCH   7  11
ATOM     11  C   UNL     1       6.232   4.304  18.170  0.00  0.00    +0.000 C 
ATOM     12  O   UNL     1       7.332   4.714  18.505  0.00  0.00    +0.000 OA
BRANCH  11  13
ATOM     13  O   UNL     1       5.936   3.902  16.913  0.00  0.00    +0.000 OA
ATOM     14  H   UNL     1       6.319   3.032  16.690  0.00  0.00    +0.000 HD
ENDBRANCH  11  13
ENDBRANCH   7  11
TORSDOF 3
ENDMDL
MODEL 3
REMARK VINA RESULT:      -5.5      1.626      1.755
REMARK  Name = 
REMARK  3 active torsions:
REMARK  status: ('A' for Active; 'I' for Inactive)
REMARK    1  A    between atoms: N_1  and  C_2
REMARK    2  A    between atoms: C_8  and  C_9
REMARK    3  A    between atoms: C_9  and  O_11
REMARK                            x       y       z     vdW  Elec       q    Type
REMARK                         _______ _______ _______ _____ _____    ______ ____
ROOT
ATOM      1  C   UNL     1       4.474   2.278  19.357  0.00  0.00    +0.000 C 
ATOM      2  C   UNL     1       2.301   2.372  19.610  0.00  0.00    +0.000 C 
ATOM      3  C   UNL     1       1.073   3.159  18.341  0.00  0.00    +0.000 C 
ATOM      4  C   UNL     1       1.380   4.457  17.757  0.00  0.00    +0.000 C 
ATOM      5  C   UNL     1       2.987   5.244  18.306  0.00  0.00    +0.000 C 
ATOM      6  C   UNL     1       1.765   4.276  19.690  0.00  0.00    +0.000 C 
ATOM      7  C   UNL     1       4.963   4.288  18.731  0.00  0.00    +0.000 C 
ENDROOT
BRANCH   1   8
ATOM      8  N   UNL     1       5.159   1.754  20.542  0.00  0.00    +0.000 NA
ATOM      9  H   UNL     1       4.697   0.882  20.794  0.00  0.00    +0.000 HD
ATOM     10  H   UNL     1       4.957   2.391  21.304  0.00  0.00    +0.000 HD
ENDBRANCH   1   8
BRANCH   7  11
ATOM     11  C   UNL     1       6.110   4.303  17.663  0.00  0.00    +0.000 C 
ATOM     12  O   UNL     1       5.918   4.267  16.458  0.00  0.00    +0.000 OA
BRANCH  11  13
ATOM     13  O   UNL     1       7.341   4.259  18.224  0.00  0.00    +0.000 OA
ATOM     14  H   UNL     1       7.335   4.480  19.175  0.00  0.00    +0.000 HD
ENDBRANCH  11  13
ENDBRANCH   7  11
TORSDOF 3
ENDMDL
MODEL 4
REMARK VINA RESULT:      -5.5      3.414      4.459
REMARK  Name = 
REMARK  3 active torsions:
REMARK  status: ('A' for Active; 'I' for Inactive)
REMARK    1  A    between atoms: N_1  and  C_2
REMARK    2  A    between atoms: C_8  and  C_9
REMARK    3  A    between atoms: C_9  and  O_11
REMARK                            x       y       z     vdW  Elec       q    Type
REMARK                         _______ _______ _______ _____ _____    ______ ____
ROOT
ATOM      1  C   UNL     1       1.622   2.406  18.707  0.00  0.00    +0.000 C 
ATOM      2  C   UNL     1       2.465   3.790  17.236  0.00  0.00    +0.000 C 
ATOM      3  C   UNL     1       4.026   4.895  17.523  0.00  0.00    +0.000 C 
ATOM      4  C   UNL     1       4.159   5.638  18.768  0.00  0.00    +0.000 C 
ATOM      5  C   UNL     1       2.767   5.428  20.000  0.00  0.00    +0.000 C 
ATOM      6  C   UNL     1       2.348   5.626  17.967  0.00  0.00    +0.000 C 
ATOM      7  C   UNL     1       1.584   3.600  20.508  0.00  0.00    +0.000 C 
ENDROOT
BRANCH   1   8
ATOM      8  N   UNL     1       0.358   1.810  18.266  0.00  0.00    +0.000 NA
ATOM      9  H   UNL     1      -0.391   2.315  18.736  0.00  0.00    +0.000 HD
ATOM     10  H   UNL     1       0.326   0.872  18.649  0.00  0.00    +0.000 HD
ENDBRANCH   1   8
BRANCH   7  11
ATOM     11  C   UNL     1       1.926   2.748  21.780  0.00  0.00    +0.000 C 
ATOM     12  O   UNL     1       3.048   2.350  22.050  0.00  0.00    +0.000 OA
BRANCH  11  13
ATOM     13  O   UNL     1       0.824   2.418  22.493  0.00  0.00    +0.000 OA
ATOM     14  H   UNL     1       0.975   1.671  23.105  0.00  0.00    +0.000 HD
ENDBRANCH  11  13
ENDBRANCH   7  11
TORSDOF 3
ENDMDL
MODEL 5
REMARK VINA RESULT:      -5.5      2.848      4.519
REMARK  Name = 
REMARK  3 active torsions:
REMARK  status: ('A' for Active; 'I' for Inactive)
REMARK    1  A    between atoms: N_1  and  C_2
REMARK    2  A    between atoms: C_8  and  C_9
REMARK    3  A    between atoms: C_9  and  O_11
REMARK                            x       y       z     vdW  Elec       q    Type
REMARK                         _______ _______ _______ _____ _____    ______ ____
ROOT
ATOM      1  C   UNL     1       4.696   3.519  19.287  0.00  0.00    +0.000 C 
ATOM      2  C   UNL     1       6.382   4.830  18.803  0.00  0.00    +0.000 C 
ATOM      3  C   UNL     1       6.285   6.371  17.639  0.00  0.00    +0.000 C 
ATOM      4  C   UNL     1       5.592   6.263  16.363  0.00  0.00    +0.000 C 
ATOM      5  C   UNL     1       4.834   4.596  15.980  0.00  0.00    +0.000 C 
ATOM      6  C   UNL     1       6.723   4.714  16.856  0.00  0.00    +0.000 C 
ATOM      7  C   UNL     1       3.813   3.153  17.349  0.00  0.00    +0.000 C 
ENDROOT
BRANCH   1   8
ATOM      8  N   UNL     1       5.096   2.352  20.079  0.00  0.00    +0.000 NA
ATOM      9  H   UNL     1       4.655   1.538  19.654  0.00  0.00    +0.000 HD
ATOM     10  H   UNL     1       4.654   2.448  20.986  0.00  0.00    +0.000 HD
ENDBRANCH   1   8
BRANCH   7  11
ATOM     11  C   UNL     1       2.248   3.085  17.425  0.00  0.00    +0.000 C 
ATOM     12  O   UNL     1       1.519   4.055  17.292  0.00  0.00    +0.000 OA
BRANCH  11  13
ATOM     13  O   UNL     1       1.798   1.852  17.753  0.00  0.00    +0.000 OA
ATOM     14  H   UNL     1       0.898   1.861  18.131  0.00  0.00    +0.000 HD
ENDBRANCH  11  13
ENDBRANCH   7  11
TORSDOF 3
ENDMDL
MODEL 6
REMARK VINA RESULT:      -5.5      2.924      4.629
REMARK  Name = 
REMARK  3 active torsions:
REMARK  status: ('A' for Active; 'I' for Inactive)
REMARK    1  A    between atoms: N_1  and  C_2
REMARK    2  A    between atoms: C_8  and  C_9
REMARK    3  A    between atoms: C_9  and  O_11
REMARK                            x       y       z     vdW  Elec       q    Type
REMARK                         _______ _______ _______ _____ _____    ______ ____
ROOT
ATOM      1  C   UNL     1       3.635   3.134  17.405  0.00  0.00    +0.000 C 
ATOM      2  C   UNL     1       4.948   4.345  16.139  0.00  0.00    +0.000 C 
ATOM      3  C   UNL     1       6.854   4.547  16.397  0.00  0.00    +0.000 C 
ATOM      4  C   UNL     1       7.373   4.807  17.732  0.00  0.00    +0.000 C 
ATOM      5  C   UNL     1       6.102   4.910  19.101  0.00  0.00    +0.000 C 
ATOM      6  C   UNL     1       5.724   5.790  17.248  0.00  0.00    +0.000 C 
ATOM      7  C   UNL     1       4.237   3.713  19.398  0.00  0.00    +0.000 C 
ENDROOT
BRANCH   1   8
ATOM      8  N   UNL     1       2.219   3.283  17.057  0.00  0.00    +0.000 NA
ATOM      9  H   UNL     1       2.147   3.185  16.046  0.00  0.00    +0.000 HD
ATOM     10  H   UNL     1       1.969   4.247  17.248  0.00  0.00    +0.000 HD
ENDBRANCH   1   8
BRANCH   7  11
ATOM     11  C   UNL     1       4.209   2.500  20.391  0.00  0.00    +0.000 C 
ATOM     12  O   UNL     1       3.446   2.417  21.341  0.00  0.00    +0.000 OA
BRANCH  11  13
ATOM     13  O   UNL     1       5.190   1.603  20.141  0.00  0.00    +0.000 OA
ATOM     14  H   UNL     1       5.329   1.445  19.187  0.00  0.00    +0.000 HD
ENDBRANCH  11  13
ENDBRANCH   7  11
TORSDOF 3
ENDMDL
MODEL 7
REMARK VINA RESULT:      -5.5      2.885      3.697
REMARK  Name = 
REMARK  3 active torsions:
REMARK  status: ('A' for Active; 'I' for Inactive)
REMARK    1  A    between atoms: N_1  and  C_2
REMARK    2  A    between atoms: C_8  and  C_9
REMARK    3  A    between atoms: C_9  and  O_11
REMARK                            x       y       z     vdW  Elec       q    Type
REMARK                         _______ _______ _______ _____ _____    ______ ____
ROOT
ATOM      1  C   UNL     1       5.124   6.574  17.007  0.00  0.00    +0.000 C 
ATOM      2  C   UNL     1       3.081   6.663  17.789  0.00  0.00    +0.000 C 
ATOM      3  C   UNL     1       2.562   6.174  19.586  0.00  0.00    +0.000 C 
ATOM      4  C   UNL     1       3.069   4.939  20.168  0.00  0.00    +0.000 C 
ATOM      5  C   UNL     1       4.215   3.932  19.084  0.00  0.00    +0.000 C 
ATOM      6  C   UNL     1       2.517   4.827  18.270  0.00  0.00    +0.000 C 
ATOM      7  C   UNL     1       5.793   4.624  17.659  0.00  0.00    +0.000 C 
ENDROOT
BRANCH   1   8
ATOM      8  N   UNL     1       5.195   6.867  15.573  0.00  0.00    +0.000 NA
ATOM      9  H   UNL     1       5.298   7.876  15.480  0.00  0.00    +0.000 HD
ATOM     10  H   UNL     1       4.283   6.657  15.185  0.00  0.00    +0.000 HD
ENDBRANCH   1   8
BRANCH   7  11
ATOM     11  C   UNL     1       7.304   4.635  18.075  0.00  0.00    +0.000 C 
ATOM     12  O   UNL     1       7.722   5.133  19.108  0.00  0.00    +0.000 OA
BRANCH  11  13
ATOM     13  O   UNL     1       8.109   4.120  17.116  0.00  0.00    +0.000 OA
ATOM     14  H   UNL     1       8.654   3.375  17.434  0.00  0.00    +0.000 HD
ENDBRANCH  11  13
ENDBRANCH   7  11
TORSDOF 3
ENDMDL
MODEL 8
REMARK VINA RESULT:      -5.5      3.074      4.411
REMARK  Name = 
REMARK  3 active torsions:
REMARK  status: ('A' for Active; 'I' for Inactive)
REMARK    1  A    between atoms: N_1  and  C_2
REMARK    2  A    between atoms: C_8  and  C_9
REMARK    3  A    between atoms: C_9  and  O_11
REMARK                            x       y       z     vdW  Elec       q    Type
REMARK                         _______ _______ _______ _____ _____    ______ ____
ROOT
ATOM      1  C   UNL     1       4.568   2.870  19.954  0.00  0.00    +0.000 C 
ATOM      2  C   UNL     1       5.496   4.194  18.479  0.00  0.00    +0.000 C 
ATOM      3  C   UNL     1       4.851   5.957  18.014  0.00  0.00    +0.000 C 
ATOM      4  C   UNL     1       3.430   6.159  17.771  0.00  0.00    +0.000 C 
ATOM      5  C   UNL     1       2.344   4.646  17.951  0.00  0.00    +0.000 C 
ATOM      6  C   UNL     1       4.201   4.501  17.013  0.00  0.00    +0.000 C 
ATOM      7  C   UNL     1       2.474   2.973  19.428  0.00  0.00    +0.000 C 
ENDROOT
BRANCH   1   8
ATOM      8  N   UNL     1       5.189   1.543  19.994  0.00  0.00    +0.000 NA
ATOM      9  H   UNL     1       4.465   0.866  19.759  0.00  0.00    +0.000 HD
ATOM     10  H   UNL     1       5.420   1.356  20.963  0.00  0.00    +0.000 HD
ENDBRANCH   1   8
BRANCH   7  11
ATOM     11  C   UNL     1       1.552   2.946  20.696  0.00  0.00    +0.000 C 
ATOM     12  O   UNL     1       1.943   2.653  21.815  0.00  0.00    +0.000 OA
BRANCH  11  13
ATOM     13  O   UNL     1       0.254   3.185  20.398  0.00  0.00    +0.000 OA
ATOM     14  H   UNL     1      -0.098   2.584  19.714  0.00  0.00    +0.000 HD
ENDBRANCH  11  13
ENDBRANCH   7  11
TORSDOF 3
ENDMDL
MODEL 9
REMARK VINA RESULT:      -5.5      1.207      1.207
REMARK  Name = 
REMARK  3 active torsions:
REMARK  status: ('A' for Active; 'I' for Inactive)
REMARK    1  A    between atoms: N_1  and  C_2
REMARK    2  A    between atoms: C_8  and  C_9
REMARK    3  A    between atoms: C_9  and  O_11
REMARK                            x       y       z     vdW  Elec       q    Type
REMARK                         _______ _______ _______ _____ _____    ______ ____
ROOT
ATOM      1  C   UNL     1       4.325   2.257  19.753  0.00  0.00    +0.000 C 
ATOM      2  C   UNL     1       2.415   2.533  20.785  0.00  0.00    +0.000 C 
ATOM      3  C   UNL     1       0.987   3.687  20.179  0.00  0.00    +0.000 C 
ATOM      4  C   UNL     1       1.298   5.034  19.724  0.00  0.00    +0.000 C 
ATOM      5  C   UNL     1       3.105   5.516  19.765  0.00  0.00    +0.000 C 
ATOM      6  C   UNL     1       2.273   4.429  21.337  0.00  0.00    +0.000 C 
ATOM      7  C   UNL     1       4.913   4.286  19.299  0.00  0.00    +0.000 C 
ENDROOT
BRANCH   1   8
ATOM      8  N   UNL     1       5.269   1.435  20.516  0.00  0.00    +0.000 NA
ATOM      9  H   UNL     1       6.104   1.998  20.664  0.00  0.00    +0.000 HD
ATOM     10  H   UNL     1       5.562   0.681  19.906  0.00  0.00    +0.000 HD
ENDBRANCH   1   8
BRANCH   7  11
ATOM     11  C   UNL     1       5.620   4.391  17.903  0.00  0.00    +0.000 C 
ATOM     12  O   UNL     1       5.026   4.583  16.854  0.00  0.00    +0.000 OA
BRANCH  11  13
ATOM     13  O   UNL     1       6.948   4.145  17.975  0.00  0.00    +0.000 OA
ATOM     14  H   UNL     1       7.393   4.651  18.681  0.00  0.00    +0.000 HD
ENDBRANCH  11  13
ENDBRANCH   7  11
TORSDOF 3
ENDMDL
