MODEL 1
REMARK VINA RESULT:      -8.1      0.000      0.000
REMARK  Name = 
REMARK  6 active torsions:
REMARK  status: ('A' for Active; 'I' for Inactive)
REMARK    1  A    between atoms: C_1  and  C_2
REMARK    2  A    between atoms: C_4  and  N_5
REMARK    3  A    between atoms: N_5  and  N_6
REMARK    4  A    between atoms: C_9  and  S_10
REMARK    5  A    between atoms: S_10  and  C_11
REMARK    6  A    between atoms: C_11  and  C_12
REMARK                            x       y       z     vdW  Elec       q    Type
REMARK                         _______ _______ _______ _____ _____    ______ ____
ROOT
ATOM      1  C   UNL     1       8.102   9.682  17.630  0.00  0.00    +0.000 C 
ATOM      2  C   UNL     1       7.722   8.223  17.741  0.00  0.00    +0.000 A 
ATOM      3  C   UNL     1       8.402   7.442  18.818  0.00  0.00    +0.000 A 
ATOM      4  C   UNL     1       8.086   6.139  18.928  0.00  0.00    +0.000 A 
ATOM      5  N   UNL     1       7.111   5.626  18.037  0.00  0.00    +0.000 N 
ATOM      6  N   UNL     1       6.589   4.374  17.989  0.00  0.00    +0.000 NA
ATOM      7  C   UNL     1       5.682   4.478  17.015  0.00  0.00    +0.000 A 
ATOM      8  N   UNL     1       5.627   5.693  16.395  0.00  0.00    +0.000 NA
ATOM      9  C   UNL     1       6.515   6.421  17.052  0.00  0.00    +0.000 A 
ATOM     10  N   UNL     1       6.847   7.741  16.906  0.00  0.00    +0.000 NA
ENDROOT
BRANCH   4  11
ATOM     11  N   UNL     1       8.634   5.234  19.833  0.00  0.00    +0.000 N 
ATOM     12  H   UNL     1       9.006   4.387  19.376  0.00  0.00    +0.000 HD
BRANCH  11  13
ATOM     13  N   UNL     1       8.279   5.154  21.183  0.00  0.00    +0.000 NA
ATOM     14  H   UNL     1       8.212   6.065  21.636  0.00  0.00    +0.000 HD
ATOM     15  H   UNL     1       9.025   4.673  21.697  0.00  0.00    +0.000 HD
ENDBRANCH  11  13
ENDBRANCH   4  11
BRANCH   7  16
ATOM     16  S   UNL     1       4.561   3.158  16.764  0.00  0.00    +0.000 S 
BRANCH  16  17
ATOM     17  C   UNL     1       2.921   3.930  16.812  0.00  0.00    +0.000 C 
BRANCH  17  18
ATOM     18  C   UNL     1       2.456   4.165  18.253  0.00  0.00    +0.000 A 
ATOM     19  C   UNL     1       2.207   3.027  19.048  0.00  0.00    +0.000 A 
ATOM     20  C   UNL     1       1.776   3.143  20.368  0.00  0.00    +0.000 A 
ATOM     21  C   UNL     1       1.580   4.399  20.925  0.00  0.00    +0.000 A 
ATOM     22  C   UNL     1       1.826   5.558  20.176  0.00  0.00    +0.000 A 
ATOM     23  C   UNL     1       1.621   6.810  20.777  0.00  0.00    +0.000 A 
ATOM     24  C   UNL     1       1.863   7.990  20.079  0.00  0.00    +0.000 A 
ATOM     25  C   UNL     1       2.325   7.923  18.771  0.00  0.00    +0.000 A 
ATOM     26  C   UNL     1       2.535   6.681  18.158  0.00  0.00    +0.000 A 
ATOM     27  C   UNL     1       2.284   5.462  18.833  0.00  0.00    +0.000 A 
ENDBRANCH  17  18
ENDBRANCH  16  17
ENDBRANCH   7  16
TORSDOF 5
ENDMDL
MODEL 2
REMARK VINA RESULT:      -7.9      2.314      3.861
REMARK  Name = 
REMARK  6 active torsions:
REMARK  status: ('A' for Active; 'I' for Inactive)
REMARK    1  A    between atoms: C_1  and  C_2
REMARK    2  A    between atoms: C_4  and  N_5
REMARK    3  A    between atoms: N_5  and  N_6
REMARK    4  A    between atoms: C_9  and  S_10
REMARK    5  A    between atoms: S_10  and  C_11
REMARK    6  A    between atoms: C_11  and  C_12
REMARK                            x       y       z     vdW  Elec       q    Type
REMARK                         _______ _______ _______ _____ _____    ______ ____
ROOT
ATOM      1  C   UNL     1       7.071   4.697  13.748  0.00  0.00    +0.000 C 
ATOM      2  C   UNL     1       6.499   4.609  15.144  0.00  0.00    +0.000 A 
ATOM      3  C   UNL     1       7.478   4.703  16.268  0.00  0.00    +0.000 A 
ATOM      4  C   UNL     1       6.992   4.616  17.519  0.00  0.00    +0.000 A 
ATOM      5  N   UNL     1       5.589   4.477  17.666  0.00  0.00    +0.000 N 
ATOM      6  N   UNL     1       4.862   4.428  18.811  0.00  0.00    +0.000 NA
ATOM      7  C   UNL     1       3.609   4.363  18.354  0.00  0.00    +0.000 A 
ATOM      8  N   UNL     1       3.485   4.306  16.996  0.00  0.00    +0.000 NA
ATOM      9  C   UNL     1       4.732   4.398  16.563  0.00  0.00    +0.000 A 
ATOM     10  N   UNL     1       5.213   4.454  15.282  0.00  0.00    +0.000 NA
ENDROOT
BRANCH   4  11
ATOM     11  N   UNL     1       7.736   4.639  18.695  0.00  0.00    +0.000 N 
ATOM     12  H   UNL     1       7.998   3.696  19.022  0.00  0.00    +0.000 HD
BRANCH  11  13
ATOM     13  N   UNL     1       7.702   5.677  19.631  0.00  0.00    +0.000 NA
ATOM     14  H   UNL     1       8.552   6.241  19.638  0.00  0.00    +0.000 HD
ATOM     15  H   UNL     1       7.661   5.276  20.574  0.00  0.00    +0.000 HD
ENDBRANCH  11  13
ENDBRANCH   4  11
BRANCH   7  16
ATOM     16  S   UNL     1       2.289   4.541  19.489  0.00  0.00    +0.000 S 
BRANCH  16  17
ATOM     17  C   UNL     1       2.682   6.047  20.419  0.00  0.00    +0.000 C 
BRANCH  17  18
ATOM     18  C   UNL     1       2.209   7.301  19.678  0.00  0.00    +0.000 A 
ATOM     19  C   UNL     1       2.614   7.452  18.335  0.00  0.00    +0.000 A 
ATOM     20  C   UNL     1       2.236   8.563  17.583  0.00  0.00    +0.000 A 
ATOM     21  C   UNL     1       1.448   9.552  18.156  0.00  0.00    +0.000 A 
ATOM     22  C   UNL     1       1.014   9.440  19.483  0.00  0.00    +0.000 A 
ATOM     23  C   UNL     1       0.215  10.458  20.024  0.00  0.00    +0.000 A 
ATOM     24  C   UNL     1      -0.253  10.387  21.333  0.00  0.00    +0.000 A 
ATOM     25  C   UNL     1       0.071   9.281  22.110  0.00  0.00    +0.000 A 
ATOM     26  C   UNL     1       0.868   8.256  21.585  0.00  0.00    +0.000 A 
ATOM     27  C   UNL     1       1.372   8.305  20.263  0.00  0.00    +0.000 A 
ENDBRANCH  17  18
ENDBRANCH  16  17
ENDBRANCH   7  16
TORSDOF 5
ENDMDL
MODEL 3
REMARK VINA RESULT:      -7.6      5.313      7.942
REMARK  Name = 
REMARK  6 active torsions:
REMARK  status: ('A' for Active; 'I' for Inactive)
REMARK    1  A    between atoms: C_1  and  C_2
REMARK    2  A    between atoms: C_4  and  N_5
REMARK    3  A    between atoms: N_5  and  N_6
REMARK    4  A    between atoms: C_9  and  S_10
REMARK    5  A    between atoms: S_10  and  C_11
REMARK    6  A    between atoms: C_11  and  C_12
REMARK                            x       y       z     vdW  Elec       q    Type
REMARK                         _______ _______ _______ _____ _____    ______ ____
ROOT
ATOM      1  C   UNL     1      -1.408  13.827  21.960  0.00  0.00    +0.000 C 
ATOM      2  C   UNL     1      -1.113  12.784  20.905  0.00  0.00    +0.000 A 
ATOM      3  C   UNL     1      -2.088  12.690  19.777  0.00  0.00    +0.000 A 
ATOM      4  C   UNL     1      -1.851  11.762  18.833  0.00  0.00    +0.000 A 
ATOM      5  N   UNL     1      -0.680  10.975  18.971  0.00  0.00    +0.000 N 
ATOM      6  N   UNL     1      -0.200  10.026  18.128  0.00  0.00    +0.000 NA
ATOM      7  C   UNL     1       0.947   9.673  18.716  0.00  0.00    +0.000 A 
ATOM      8  N   UNL     1       1.205  10.288  19.907  0.00  0.00    +0.000 NA
ATOM      9  C   UNL     1       0.189  11.122  20.057  0.00  0.00    +0.000 A 
ATOM     10  N   UNL     1      -0.053  12.041  21.042  0.00  0.00    +0.000 NA
ENDROOT
BRANCH   4  11
ATOM     11  N   UNL     1      -2.654  11.487  17.730  0.00  0.00    +0.000 N 
ATOM     12  H   UNL     1      -3.428  10.840  17.949  0.00  0.00    +0.000 HD
BRANCH  11  13
ATOM     13  N   UNL     1      -2.231  11.584  16.401  0.00  0.00    +0.000 NA
ATOM     14  H   UNL     1      -2.070  10.677  15.962  0.00  0.00    +0.000 HD
ATOM     15  H   UNL     1      -1.313  12.041  16.374  0.00  0.00    +0.000 HD
ENDBRANCH  11  13
ENDBRANCH   4  11
BRANCH   7  16
ATOM     16  S   UNL     1       2.057   8.639  17.844  0.00  0.00    +0.000 S 
BRANCH  16  17
ATOM     17  C   UNL     1       2.459   7.309  19.009  0.00  0.00    +0.000 C 
BRANCH  17  18
ATOM     18  C   UNL     1       3.025   6.084  18.284  0.00  0.00    +0.000 A 
ATOM     19  C   UNL     1       4.140   6.285  17.444  0.00  0.00    +0.000 A 
ATOM     20  C   UNL     1       4.719   5.231  16.741  0.00  0.00    +0.000 A 
ATOM     21  C   UNL     1       4.195   3.951  16.856  0.00  0.00    +0.000 A 
ATOM     22  C   UNL     1       3.095   3.701  17.687  0.00  0.00    +0.000 A 
ATOM     23  C   UNL     1       2.599   2.392  17.781  0.00  0.00    +0.000 A 
ATOM     24  C   UNL     1       1.516   2.091  18.603  0.00  0.00    +0.000 A 
ATOM     25  C   UNL     1       0.928   3.104  19.349  0.00  0.00    +0.000 A 
ATOM     26  C   UNL     1       1.412   4.416  19.266  0.00  0.00    +0.000 A 
ATOM     27  C   UNL     1       2.501   4.760  18.429  0.00  0.00    +0.000 A 
ENDBRANCH  17  18
ENDBRANCH  16  17
ENDBRANCH   7  16
TORSDOF 5
ENDMDL
MODEL 4
REMARK VINA RESULT:      -7.6      5.319      7.581
REMARK  Name = 
REMARK  6 active torsions:
REMARK  status: ('A' for Active; 'I' for Inactive)
REMARK    1  A    between atoms: C_1  and  C_2
REMARK    2  A    between atoms: C_4  and  N_5
REMARK    3  A    between atoms: N_5  and  N_6
REMARK    4  A    between atoms: C_9  and  S_10
REMARK    5  A    between atoms: S_10  and  C_11
REMARK    6  A    between atoms: C_11  and  C_12
REMARK                            x       y       z     vdW  Elec       q    Type
REMARK                         _______ _______ _______ _____ _____    ______ ____
ROOT
ATOM      1  C   UNL     1      -2.338  14.051  21.575  0.00  0.00    +0.000 C 
ATOM      2  C   UNL     1      -1.504  12.811  21.340  0.00  0.00    +0.000 A 
ATOM      3  C   UNL     1      -1.482  11.809  22.448  0.00  0.00    +0.000 A 
ATOM      4  C   UNL     1      -0.738  10.704  22.266  0.00  0.00    +0.000 A 
ATOM      5  N   UNL     1      -0.068  10.566  21.025  0.00  0.00    +0.000 N 
ATOM      6  N   UNL     1       0.686   9.527  20.585  0.00  0.00    +0.000 NA
ATOM      7  C   UNL     1       1.002   9.904  19.344  0.00  0.00    +0.000 A 
ATOM      8  N   UNL     1       0.553  11.140  18.978  0.00  0.00    +0.000 NA
ATOM      9  C   UNL     1      -0.137  11.548  20.031  0.00  0.00    +0.000 A 
ATOM     10  N   UNL     1      -0.865  12.694  20.213  0.00  0.00    +0.000 NA
ENDROOT
BRANCH   4  11
ATOM     11  N   UNL     1      -0.553   9.676  23.186  0.00  0.00    +0.000 N 
ATOM     12  H   UNL     1      -1.434   9.368  23.626  0.00  0.00    +0.000 HD
BRANCH  11  13
ATOM     13  N   UNL     1       0.645   9.429  23.864  0.00  0.00    +0.000 NA
ATOM     14  H   UNL     1       0.706   9.908  24.762  0.00  0.00    +0.000 HD
ATOM     15  H   UNL     1       1.424   9.818  23.321  0.00  0.00    +0.000 HD
ENDBRANCH  11  13
ENDBRANCH   4  11
BRANCH   7  16
ATOM     16  S   UNL     1       1.769   8.746  18.281  0.00  0.00    +0.000 S 
BRANCH  16  17
ATOM     17  C   UNL     1       2.318   7.409  19.375  0.00  0.00    +0.000 C 
BRANCH  17  18
ATOM     18  C   UNL     1       2.835   6.209  18.576  0.00  0.00    +0.000 A 
ATOM     19  C   UNL     1       3.894   6.439  17.672  0.00  0.00    +0.000 A 
ATOM     20  C   UNL     1       4.425   5.409  16.898  0.00  0.00    +0.000 A 
ATOM     21  C   UNL     1       3.909   4.125  17.006  0.00  0.00    +0.000 A 
ATOM     22  C   UNL     1       2.865   3.847  17.898  0.00  0.00    +0.000 A 
ATOM     23  C   UNL     1       2.374   2.535  17.981  0.00  0.00    +0.000 A 
ATOM     24  C   UNL     1       1.347   2.206  18.861  0.00  0.00    +0.000 A 
ATOM     25  C   UNL     1       0.809   3.194  19.676  0.00  0.00    +0.000 A 
ATOM     26  C   UNL     1       1.288   4.508  19.605  0.00  0.00    +0.000 A 
ATOM     27  C   UNL     1       2.320   4.880  18.711  0.00  0.00    +0.000 A 
ENDBRANCH  17  18
ENDBRANCH  16  17
ENDBRANCH   7  16
TORSDOF 5
ENDMDL
MODEL 5
REMARK VINA RESULT:      -7.5      2.616      4.541
REMARK  Name = 
REMARK  6 active torsions:
REMARK  status: ('A' for Active; 'I' for Inactive)
REMARK    1  A    between atoms: C_1  and  C_2
REMARK    2  A    between atoms: C_4  and  N_5
REMARK    3  A    between atoms: N_5  and  N_6
REMARK    4  A    between atoms: C_9  and  S_10
REMARK    5  A    between atoms: S_10  and  C_11
REMARK    6  A    between atoms: C_11  and  C_12
REMARK                            x       y       z     vdW  Elec       q    Type
REMARK                         _______ _______ _______ _____ _____    ______ ____
ROOT
ATOM      1  C   UNL     1       6.422   4.303  14.669  0.00  0.00    +0.000 C 
ATOM      2  C   UNL     1       5.818   4.496  16.042  0.00  0.00    +0.000 A 
ATOM      3  C   UNL     1       6.779   4.718  17.163  0.00  0.00    +0.000 A 
ATOM      4  C   UNL     1       6.264   4.882  18.394  0.00  0.00    +0.000 A 
ATOM      5  N   UNL     1       4.852   4.865  18.518  0.00  0.00    +0.000 N 
ATOM      6  N   UNL     1       4.102   5.064  19.631  0.00  0.00    +0.000 NA
ATOM      7  C   UNL     1       2.856   5.004  19.154  0.00  0.00    +0.000 A 
ATOM      8  N   UNL     1       2.755   4.722  17.822  0.00  0.00    +0.000 NA
ATOM      9  C   UNL     1       4.013   4.653  17.419  0.00  0.00    +0.000 A 
ATOM     10  N   UNL     1       4.522   4.454  16.164  0.00  0.00    +0.000 NA
ENDROOT
BRANCH   4  11
ATOM     11  N   UNL     1       6.985   5.059  19.571  0.00  0.00    +0.000 N 
ATOM     12  H   UNL     1       6.381   5.131  20.404  0.00  0.00    +0.000 HD
BRANCH  11  13
ATOM     13  N   UNL     1       8.268   5.612  19.637  0.00  0.00    +0.000 NA
ATOM     14  H   UNL     1       9.010   4.911  19.621  0.00  0.00    +0.000 HD
ATOM     15  H   UNL     1       8.385   6.080  20.542  0.00  0.00    +0.000 HD
ENDBRANCH  11  13
ENDBRANCH   4  11
BRANCH   7  16
ATOM     16  S   UNL     1       1.530   5.464  20.199  0.00  0.00    +0.000 S 
BRANCH  16  17
ATOM     17  C   UNL     1       2.076   7.005  20.985  0.00  0.00    +0.000 C 
BRANCH  17  18
ATOM     18  C   UNL     1       1.458   8.229  20.303  0.00  0.00    +0.000 A 
ATOM     19  C   UNL     1       1.698   8.392  18.922  0.00  0.00    +0.000 A 
ATOM     20  C   UNL     1       1.181   9.478  18.219  0.00  0.00    +0.000 A 
ATOM     21  C   UNL     1       0.416  10.430  18.879  0.00  0.00    +0.000 A 
ATOM     22  C   UNL     1       0.144  10.304  20.247  0.00  0.00    +0.000 A 
ATOM     23  C   UNL     1      -0.638  11.285  20.877  0.00  0.00    +0.000 A 
ATOM     24  C   UNL     1      -0.947  11.198  22.231  0.00  0.00    +0.000 A 
ATOM     25  C   UNL     1      -0.480  10.115  22.966  0.00  0.00    +0.000 A 
ATOM     26  C   UNL     1       0.300   9.127  22.352  0.00  0.00    +0.000 A 
ATOM     27  C   UNL     1       0.646   9.193  20.980  0.00  0.00    +0.000 A 
ENDBRANCH  17  18
ENDBRANCH  16  17
ENDBRANCH   7  16
TORSDOF 5
ENDMDL
MODEL 6
REMARK VINA RESULT:      -7.4      3.048      5.077
REMARK  Name = 
REMARK  6 active torsions:
REMARK  status: ('A' for Active; 'I' for Inactive)
REMARK    1  A    between atoms: C_1  and  C_2
REMARK    2  A    between atoms: C_4  and  N_5
REMARK    3  A    between atoms: N_5  and  N_6
REMARK    4  A    between atoms: C_9  and  S_10
REMARK    5  A    between atoms: S_10  and  C_11
REMARK    6  A    between atoms: C_11  and  C_12
REMARK                            x       y       z     vdW  Elec       q    Type
REMARK                         _______ _______ _______ _____ _____    ______ ____
ROOT
ATOM      1  C   UNL     1       5.221   2.497  11.515  0.00  0.00    +0.000 C 
ATOM      2  C   UNL     1       5.897   3.327  12.583  0.00  0.00    +0.000 A 
ATOM      3  C   UNL     1       6.971   4.255  12.118  0.00  0.00    +0.000 A 
ATOM      4  C   UNL     1       7.594   4.995  13.052  0.00  0.00    +0.000 A 
ATOM      5  N   UNL     1       7.155   4.857  14.393  0.00  0.00    +0.000 N 
ATOM      6  N   UNL     1       7.580   5.530  15.492  0.00  0.00    +0.000 NA
ATOM      7  C   UNL     1       6.784   5.050  16.451  0.00  0.00    +0.000 A 
ATOM      8  N   UNL     1       5.917   4.073  16.053  0.00  0.00    +0.000 NA
ATOM      9  C   UNL     1       6.138   3.966  14.753  0.00  0.00    +0.000 A 
ATOM     10  N   UNL     1       5.515   3.183  13.819  0.00  0.00    +0.000 NA
ENDROOT
BRANCH   4  11
ATOM     11  N   UNL     1       8.642   5.884  12.834  0.00  0.00    +0.000 N 
ATOM     12  H   UNL     1       9.194   6.070  13.686  0.00  0.00    +0.000 HD
BRANCH  11  13
ATOM     13  N   UNL     1       8.672   6.835  11.809  0.00  0.00    +0.000 NA
ATOM     14  H   UNL     1       7.763   6.981  11.369  0.00  0.00    +0.000 HD
ATOM     15  H   UNL     1       9.265   6.488  11.048  0.00  0.00    +0.000 HD
ENDBRANCH  11  13
ENDBRANCH   4  11
BRANCH   7  16
ATOM     16  S   UNL     1       6.794   5.822  18.020  0.00  0.00    +0.000 S 
BRANCH  16  17
ATOM     17  C   UNL     1       5.827   4.717  19.084  0.00  0.00    +0.000 C 
BRANCH  17  18
ATOM     18  C   UNL     1       4.340   5.086  19.068  0.00  0.00    +0.000 A 
ATOM     19  C   UNL     1       3.961   6.218  18.316  0.00  0.00    +0.000 A 
ATOM     20  C   UNL     1       2.633   6.632  18.247  0.00  0.00    +0.000 A 
ATOM     21  C   UNL     1       1.651   5.928  18.931  0.00  0.00    +0.000 A 
ATOM     22  C   UNL     1       1.979   4.792  19.683  0.00  0.00    +0.000 A 
ATOM     23  C   UNL     1       0.958   4.104  20.356  0.00  0.00    +0.000 A 
ATOM     24  C   UNL     1       1.231   2.963  21.104  0.00  0.00    +0.000 A 
ATOM     25  C   UNL     1       2.537   2.494  21.174  0.00  0.00    +0.000 A 
ATOM     26  C   UNL     1       3.568   3.169  20.508  0.00  0.00    +0.000 A 
ATOM     27  C   UNL     1       3.327   4.341  19.751  0.00  0.00    +0.000 A 
ENDBRANCH  17  18
ENDBRANCH  16  17
ENDBRANCH   7  16
TORSDOF 5
ENDMDL
MODEL 7
REMARK VINA RESULT:      -7.4      4.438      7.027
REMARK  Name = 
REMARK  6 active torsions:
REMARK  status: ('A' for Active; 'I' for Inactive)
REMARK    1  A    between atoms: C_1  and  C_2
REMARK    2  A    between atoms: C_4  and  N_5
REMARK    3  A    between atoms: N_5  and  N_6
REMARK    4  A    between atoms: C_9  and  S_10
REMARK    5  A    between atoms: S_10  and  C_11
REMARK    6  A    between atoms: C_11  and  C_12
REMARK                            x       y       z     vdW  Elec       q    Type
REMARK                         _______ _______ _______ _____ _____    ______ ____
ROOT
ATOM      1  C   UNL     1      -1.039  10.866  23.064  0.00  0.00    +0.000 C 
ATOM      2  C   UNL     1      -0.494  10.546  21.690  0.00  0.00    +0.000 A 
ATOM      3  C   UNL     1      -0.947  11.432  20.576  0.00  0.00    +0.000 A 
ATOM      4  C   UNL     1      -0.484  11.159  19.344  0.00  0.00    +0.000 A 
ATOM      5  N   UNL     1       0.421  10.077  19.212  0.00  0.00    +0.000 N 
ATOM      6  N   UNL     1       1.064   9.647  18.096  0.00  0.00    +0.000 NA
ATOM      7  C   UNL     1       1.826   8.656  18.566  0.00  0.00    +0.000 A 
ATOM      8  N   UNL     1       1.673   8.382  19.895  0.00  0.00    +0.000 NA
ATOM      9  C   UNL     1       0.802   9.290  20.304  0.00  0.00    +0.000 A 
ATOM     10  N   UNL     1       0.315   9.535  21.561  0.00  0.00    +0.000 NA
ENDROOT
BRANCH   4  11
ATOM     11  N   UNL     1      -0.814  11.834  18.172  0.00  0.00    +0.000 N 
ATOM     12  H   UNL     1      -0.866  12.857  18.300  0.00  0.00    +0.000 HD
BRANCH  11  13
ATOM     13  N   UNL     1      -1.515  11.267  17.104  0.00  0.00    +0.000 NA
ATOM     14  H   UNL     1      -1.433  10.251  17.062  0.00  0.00    +0.000 HD
ATOM     15  H   UNL     1      -1.100  11.587  16.223  0.00  0.00    +0.000 HD
ENDBRANCH  11  13
ENDBRANCH   4  11
BRANCH   7  16
ATOM     16  S   UNL     1       3.041   7.958  17.518  0.00  0.00    +0.000 S 
BRANCH  16  17
ATOM     17  C   UNL     1       3.934   6.780  18.568  0.00  0.00    +0.000 C 
BRANCH  17  18
ATOM     18  C   UNL     1       3.620   5.333  18.178  0.00  0.00    +0.000 A 
ATOM     19  C   UNL     1       4.328   4.787  17.087  0.00  0.00    +0.000 A 
ATOM     20  C   UNL     1       4.105   3.481  16.657  0.00  0.00    +0.000 A 
ATOM     21  C   UNL     1       3.166   2.690  17.303  0.00  0.00    +0.000 A 
ATOM     22  C   UNL     1       2.445   3.186  18.397  0.00  0.00    +0.000 A 
ATOM     23  C   UNL     1       1.508   2.353  19.027  0.00  0.00    +0.000 A 
ATOM     24  C   UNL     1       0.776   2.795  20.125  0.00  0.00    +0.000 A 
ATOM     25  C   UNL     1       0.989   4.080  20.610  0.00  0.00    +0.000 A 
ATOM     26  C   UNL     1       1.922   4.923  19.993  0.00  0.00    +0.000 A 
ATOM     27  C   UNL     1       2.671   4.511  18.865  0.00  0.00    +0.000 A 
ENDBRANCH  17  18
ENDBRANCH  16  17
ENDBRANCH   7  16
TORSDOF 5
ENDMDL
MODEL 8
REMARK VINA RESULT:      -7.2      3.055      5.104
REMARK  Name = 
REMARK  6 active torsions:
REMARK  status: ('A' for Active; 'I' for Inactive)
REMARK    1  A    between atoms: C_1  and  C_2
REMARK    2  A    between atoms: C_4  and  N_5
REMARK    3  A    between atoms: N_5  and  N_6
REMARK    4  A    between atoms: C_9  and  S_10
REMARK    5  A    between atoms: S_10  and  C_11
REMARK    6  A    between atoms: C_11  and  C_12
REMARK                            x       y       z     vdW  Elec       q    Type
REMARK                         _______ _______ _______ _____ _____    ______ ____
ROOT
ATOM      1  C   UNL     1       5.601   2.181  11.477  0.00  0.00    +0.000 C 
ATOM      2  C   UNL     1       6.093   3.184  12.497  0.00  0.00    +0.000 A 
ATOM      3  C   UNL     1       7.087   4.188  12.012  0.00  0.00    +0.000 A 
ATOM      4  C   UNL     1       7.546   5.082  12.905  0.00  0.00    +0.000 A 
ATOM      5  N   UNL     1       7.024   5.018  14.221  0.00  0.00    +0.000 N 
ATOM      6  N   UNL     1       7.283   5.837  15.271  0.00  0.00    +0.000 NA
ATOM      7  C   UNL     1       6.475   5.355  16.219  0.00  0.00    +0.000 A 
ATOM      8  N   UNL     1       5.759   4.247  15.867  0.00  0.00    +0.000 NA
ATOM      9  C   UNL     1       6.091   4.047  14.602  0.00  0.00    +0.000 A 
ATOM     10  N   UNL     1       5.636   3.110  13.714  0.00  0.00    +0.000 NA
ENDROOT
BRANCH   4  11
ATOM     11  N   UNL     1       8.500   6.068  12.666  0.00  0.00    +0.000 N 
ATOM     12  H   UNL     1       8.512   6.384  11.684  0.00  0.00    +0.000 HD
BRANCH  11  13
ATOM     13  N   UNL     1       9.654   6.253  13.434  0.00  0.00    +0.000 NA
ATOM     14  H   UNL     1      10.492   6.400  12.871  0.00  0.00    +0.000 HD
ATOM     15  H   UNL     1       9.851   5.392  13.956  0.00  0.00    +0.000 HD
ENDBRANCH  11  13
ENDBRANCH   4  11
BRANCH   7  16
ATOM     16  S   UNL     1       6.276   6.266  17.699  0.00  0.00    +0.000 S 
BRANCH  16  17
ATOM     17  C   UNL     1       5.803   5.031  18.940  0.00  0.00    +0.000 C 
BRANCH  17  18
ATOM     18  C   UNL     1       4.295   5.052  19.203  0.00  0.00    +0.000 A 
ATOM     19  C   UNL     1       3.729   6.269  19.639  0.00  0.00    +0.000 A 
ATOM     20  C   UNL     1       2.367   6.381  19.908  0.00  0.00    +0.000 A 
ATOM     21  C   UNL     1       1.537   5.280  19.752  0.00  0.00    +0.000 A 
ATOM     22  C   UNL     1       2.052   4.054  19.312  0.00  0.00    +0.000 A 
ATOM     23  C   UNL     1       1.180   2.965  19.162  0.00  0.00    +0.000 A 
ATOM     24  C   UNL     1       1.641   1.730  18.715  0.00  0.00    +0.000 A 
ATOM     25  C   UNL     1       2.986   1.580  18.403  0.00  0.00    +0.000 A 
ATOM     26  C   UNL     1       3.870   2.658  18.547  0.00  0.00    +0.000 A 
ATOM     27  C   UNL     1       3.437   3.922  19.014  0.00  0.00    +0.000 A 
ENDBRANCH  17  18
ENDBRANCH  16  17
ENDBRANCH   7  16
TORSDOF 5
ENDMDL
MODEL 9
REMARK VINA RESULT:      -7.2      2.302      4.366
REMARK  Name = 
REMARK  6 active torsions:
REMARK  status: ('A' for Active; 'I' for Inactive)
REMARK    1  A    between atoms: C_1  and  C_2
REMARK    2  A    between atoms: C_4  and  N_5
REMARK    3  A    between atoms: N_5  and  N_6
REMARK    4  A    between atoms: C_9  and  S_10
REMARK    5  A    between atoms: S_10  and  C_11
REMARK    6  A    between atoms: C_11  and  C_12
REMARK                            x       y       z     vdW  Elec       q    Type
REMARK                         _______ _______ _______ _____ _____    ______ ____
ROOT
ATOM      1  C   UNL     1       6.829   4.029  13.717  0.00  0.00    +0.000 C 
ATOM      2  C   UNL     1       6.246   4.490  15.033  0.00  0.00    +0.000 A 
ATOM      3  C   UNL     1       7.017   5.538  15.768  0.00  0.00    +0.000 A 
ATOM      4  C   UNL     1       6.522   5.955  16.947  0.00  0.00    +0.000 A 
ATOM      5  N   UNL     1       5.294   5.392  17.375  0.00  0.00    +0.000 N 
ATOM      6  N   UNL     1       4.572   5.689  18.485  0.00  0.00    +0.000 NA
ATOM      7  C   UNL     1       3.493   4.915  18.344  0.00  0.00    +0.000 A 
ATOM      8  N   UNL     1       3.500   4.099  17.249  0.00  0.00    +0.000 NA
ATOM      9  C   UNL     1       4.626   4.413  16.630  0.00  0.00    +0.000 A 
ATOM     10  N   UNL     1       5.132   3.955  15.443  0.00  0.00    +0.000 NA
ENDROOT
BRANCH   4  11
ATOM     11  N   UNL     1       7.105   6.887  17.801  0.00  0.00    +0.000 N 
ATOM     12  H   UNL     1       6.706   6.862  18.752  0.00  0.00    +0.000 HD
BRANCH  11  13
ATOM     13  N   UNL     1       7.732   8.063  17.378  0.00  0.00    +0.000 NA
ATOM     14  H   UNL     1       8.391   8.436  18.061  0.00  0.00    +0.000 HD
ATOM     15  H   UNL     1       7.028   8.802  17.280  0.00  0.00    +0.000 HD
ENDBRANCH  11  13
ENDBRANCH   4  11
BRANCH   7  16
ATOM     16  S   UNL     1       2.139   5.151  19.427  0.00  0.00    +0.000 S 
BRANCH  16  17
ATOM     17  C   UNL     1       2.563   6.636  20.377  0.00  0.00    +0.000 C 
BRANCH  17  18
ATOM     18  C   UNL     1       1.876   7.880  19.805  0.00  0.00    +0.000 A 
ATOM     19  C   UNL     1       2.032   8.130  18.426  0.00  0.00    +0.000 A 
ATOM     20  C   UNL     1       1.448   9.240  17.819  0.00  0.00    +0.000 A 
ATOM     21  C   UNL     1       0.697  10.129  18.576  0.00  0.00    +0.000 A 
ATOM     22  C   UNL     1       0.507   9.916  19.947  0.00  0.00    +0.000 A 
ATOM     23  C   UNL     1      -0.262  10.835  20.677  0.00  0.00    +0.000 A 
ATOM     24  C   UNL     1      -0.491  10.660  22.039  0.00  0.00    +0.000 A 
ATOM     25  C   UNL     1       0.044   9.549  22.680  0.00  0.00    +0.000 A 
ATOM     26  C   UNL     1       0.814   8.622  21.965  0.00  0.00    +0.000 A 
ATOM     27  C   UNL     1       1.079   8.779  20.583  0.00  0.00    +0.000 A 
ENDBRANCH  17  18
ENDBRANCH  16  17
ENDBRANCH   7  16
TORSDOF 5
ENDMDL
