MODEL 1
REMARK VINA RESULT:      -8.7      0.000      0.000
REMARK  Name = 
REMARK  5 active torsions:
REMARK  status: ('A' for Active; 'I' for Inactive)
REMARK    1  A    between atoms: C_1  and  C_2
REMARK    2  A    between atoms: C_4  and  C_5
REMARK    3  A    between atoms: C_8  and  C_9
REMARK    4  A    between atoms: C_9  and  C_11
REMARK    5  A    between atoms: C_23  and  O_24
REMARK                            x       y       z     vdW  Elec       q    Type
REMARK                         _______ _______ _______ _____ _____    ______ ____
ROOT
ATOM      1  C   UNL     1       2.389   7.122  19.260  0.00  0.00    +0.000 A 
ATOM      2  C   UNL     1       2.378   7.800  18.027  0.00  0.00    +0.000 A 
ATOM      3  C   UNL     1       1.722   9.026  17.873  0.00  0.00    +0.000 A 
ATOM      4  C   UNL     1       1.051   9.598  18.953  0.00  0.00    +0.000 A 
ATOM      5  C   UNL     1       1.021   8.928  20.179  0.00  0.00    +0.000 A 
ATOM      6  C   UNL     1       1.704   7.719  20.331  0.00  0.00    +0.000 A 
ENDROOT
BRANCH   1  10
ATOM      7  C   UNL     1       2.615   2.540  21.337  0.00  0.00    +0.000 C 
ATOM      8  C   UNL     1       3.199   3.581  20.428  0.00  0.00    +0.000 A 
ATOM      9  C   UNL     1       2.541   4.808  20.242  0.00  0.00    +0.000 A 
ATOM     10  C   UNL     1       3.074   5.820  19.421  0.00  0.00    +0.000 A 
ATOM     11  C   UNL     1       4.290   5.548  18.768  0.00  0.00    +0.000 A 
ATOM     12  C   UNL     1       4.950   4.329  18.928  0.00  0.00    +0.000 A 
ATOM     13  C   UNL     1       4.404   3.358  19.761  0.00  0.00    +0.000 A 
BRANCH  13  14
ATOM     14  O   UNL     1       5.045   2.165  19.943  0.00  0.00    +0.000 OA
ATOM     15  H   UNL     1       5.348   1.842  19.079  0.00  0.00    +0.000 HD
ENDBRANCH  13  14
ENDBRANCH   1  10
BRANCH   4  16
ATOM     16  C   UNL     1       0.347  10.890  18.745  0.00  0.00    +0.000 C 
ATOM     17  O   UNL     1       0.977  11.939  18.808  0.00  0.00    +0.000 OA
BRANCH  16  18
ATOM     18  C   UNL     1      -1.105  10.941  18.441  0.00  0.00    +0.000 A 
ATOM     19  C   UNL     1      -1.610  10.063  17.469  0.00  0.00    +0.000 A 
ATOM     20  C   UNL     1      -2.976  10.048  17.182  0.00  0.00    +0.000 A 
ATOM     21  C   UNL     1      -3.828  10.915  17.858  0.00  0.00    +0.000 A 
ATOM     22  F   UNL     1      -5.140  10.884  17.599  0.00  0.00    +0.000 F 
ATOM     23  C   UNL     1      -3.323  11.805  18.800  0.00  0.00    +0.000 A 
ATOM     24  F   UNL     1      -4.147  12.634  19.455  0.00  0.00    +0.000 F 
ATOM     25  C   UNL     1      -1.963  11.840  19.085  0.00  0.00    +0.000 A 
ENDBRANCH  16  18
ENDBRANCH   4  16
TORSDOF 4
ENDMDL
MODEL 2
REMARK VINA RESULT:      -8.7      0.558      1.368
REMARK  Name = 
REMARK  5 active torsions:
REMARK  status: ('A' for Active; 'I' for Inactive)
REMARK    1  A    between atoms: C_1  and  C_2
REMARK    2  A    between atoms: C_4  and  C_5
REMARK    3  A    between atoms: C_8  and  C_9
REMARK    4  A    between atoms: C_9  and  C_11
REMARK    5  A    between atoms: C_23  and  O_24
REMARK                            x       y       z     vdW  Elec       q    Type
REMARK                         _______ _______ _______ _____ _____    ______ ____
ROOT
ATOM      1  C   UNL     1       2.433   7.082  19.279  0.00  0.00    +0.000 A 
ATOM      2  C   UNL     1       2.446   7.797  18.067  0.00  0.00    +0.000 A 
ATOM      3  C   UNL     1       1.795   9.028  17.939  0.00  0.00    +0.000 A 
ATOM      4  C   UNL     1       1.103   9.569  19.023  0.00  0.00    +0.000 A 
ATOM      5  C   UNL     1       1.050   8.861  20.227  0.00  0.00    +0.000 A 
ATOM      6  C   UNL     1       1.728   7.647  20.355  0.00  0.00    +0.000 A 
ENDROOT
BRANCH   1  10
ATOM      7  C   UNL     1       2.687   2.487  21.323  0.00  0.00    +0.000 C 
ATOM      8  C   UNL     1       3.252   3.529  20.404  0.00  0.00    +0.000 A 
ATOM      9  C   UNL     1       2.598   4.761  20.244  0.00  0.00    +0.000 A 
ATOM     10  C   UNL     1       3.113   5.774  19.413  0.00  0.00    +0.000 A 
ATOM     11  C   UNL     1       4.308   5.498  18.724  0.00  0.00    +0.000 A 
ATOM     12  C   UNL     1       4.964   4.274  18.858  0.00  0.00    +0.000 A 
ATOM     13  C   UNL     1       4.436   3.302  19.701  0.00  0.00    +0.000 A 
BRANCH  13  14
ATOM     14  O   UNL     1       5.074   2.103  19.858  0.00  0.00    +0.000 OA
ATOM     15  H   UNL     1       4.645   1.448  19.285  0.00  0.00    +0.000 HD
ENDBRANCH  13  14
ENDBRANCH   1  10
BRANCH   4  16
ATOM     16  C   UNL     1       0.405  10.867  18.842  0.00  0.00    +0.000 C 
ATOM     17  O   UNL     1       1.030  11.913  18.969  0.00  0.00    +0.000 OA
BRANCH  16  18
ATOM     18  C   UNL     1      -1.035  10.929  18.487  0.00  0.00    +0.000 A 
ATOM     19  C   UNL     1      -1.868  11.770  19.242  0.00  0.00    +0.000 A 
ATOM     20  C   UNL     1      -3.220  11.891  18.916  0.00  0.00    +0.000 A 
ATOM     21  C   UNL     1      -3.735  11.167  17.846  0.00  0.00    +0.000 A 
ATOM     22  F   UNL     1      -5.025  11.300  17.520  0.00  0.00    +0.000 F 
ATOM     23  C   UNL     1      -2.914  10.312  17.116  0.00  0.00    +0.000 A 
ATOM     24  F   UNL     1      -3.411   9.621  16.081  0.00  0.00    +0.000 F 
ATOM     25  C   UNL     1      -1.571  10.172  17.439  0.00  0.00    +0.000 A 
ENDBRANCH  16  18
ENDBRANCH   4  16
TORSDOF 4
ENDMDL
MODEL 3
REMARK VINA RESULT:      -8.6      0.797      2.066
REMARK  Name = 
REMARK  5 active torsions:
REMARK  status: ('A' for Active; 'I' for Inactive)
REMARK    1  A    between atoms: C_1  and  C_2
REMARK    2  A    between atoms: C_4  and  C_5
REMARK    3  A    between atoms: C_8  and  C_9
REMARK    4  A    between atoms: C_9  and  C_11
REMARK    5  A    between atoms: C_23  and  O_24
REMARK                            x       y       z     vdW  Elec       q    Type
REMARK                         _______ _______ _______ _____ _____    ______ ____
ROOT
ATOM      1  C   UNL     1       2.379   7.243  19.214  0.00  0.00    +0.000 A 
ATOM      2  C   UNL     1       2.290   7.954  18.002  0.00  0.00    +0.000 A 
ATOM      3  C   UNL     1       1.563   9.145  17.906  0.00  0.00    +0.000 A 
ATOM      4  C   UNL     1       0.895   9.648  19.022  0.00  0.00    +0.000 A 
ATOM      5  C   UNL     1       0.943   8.943  20.228  0.00  0.00    +0.000 A 
ATOM      6  C   UNL     1       1.696   7.771  20.323  0.00  0.00    +0.000 A 
ENDROOT
BRANCH   1  10
ATOM      7  C   UNL     1       6.423   4.480  18.047  0.00  0.00    +0.000 C 
ATOM      8  C   UNL     1       5.106   4.616  18.752  0.00  0.00    +0.000 A 
ATOM      9  C   UNL     1       4.391   5.823  18.691  0.00  0.00    +0.000 A 
ATOM     10  C   UNL     1       3.139   5.978  19.314  0.00  0.00    +0.000 A 
ATOM     11  C   UNL     1       2.632   4.876  20.028  0.00  0.00    +0.000 A 
ATOM     12  C   UNL     1       3.336   3.674  20.113  0.00  0.00    +0.000 A 
ATOM     13  C   UNL     1       4.562   3.550  19.470  0.00  0.00    +0.000 A 
BRANCH  13  14
ATOM     14  O   UNL     1       5.257   2.374  19.529  0.00  0.00    +0.000 OA
ATOM     15  H   UNL     1       4.792   1.713  18.992  0.00  0.00    +0.000 HD
ENDBRANCH  13  14
ENDBRANCH   1  10
BRANCH   4  16
ATOM     16  C   UNL     1       0.115  10.904  18.876  0.00  0.00    +0.000 C 
ATOM     17  O   UNL     1       0.635  11.976  19.158  0.00  0.00    +0.000 OA
BRANCH  16  18
ATOM     18  C   UNL     1      -1.281  10.893  18.371  0.00  0.00    +0.000 A 
ATOM     19  C   UNL     1      -2.221  11.721  19.003  0.00  0.00    +0.000 A 
ATOM     20  C   UNL     1      -3.535  11.774  18.534  0.00  0.00    +0.000 A 
ATOM     21  C   UNL     1      -3.905  10.995  17.444  0.00  0.00    +0.000 A 
ATOM     22  F   UNL     1      -5.158  11.063  16.979  0.00  0.00    +0.000 F 
ATOM     23  C   UNL     1      -2.980  10.153  16.834  0.00  0.00    +0.000 A 
ATOM     24  F   UNL     1      -3.337   9.408  15.779  0.00  0.00    +0.000 F 
ATOM     25  C   UNL     1      -1.673  10.080  17.301  0.00  0.00    +0.000 A 
ENDBRANCH  16  18
ENDBRANCH   4  16
TORSDOF 4
ENDMDL
MODEL 4
REMARK VINA RESULT:      -8.5      0.511      1.520
REMARK  Name = 
REMARK  5 active torsions:
REMARK  status: ('A' for Active; 'I' for Inactive)
REMARK    1  A    between atoms: C_1  and  C_2
REMARK    2  A    between atoms: C_4  and  C_5
REMARK    3  A    between atoms: C_8  and  C_9
REMARK    4  A    between atoms: C_9  and  C_11
REMARK    5  A    between atoms: C_23  and  O_24
REMARK                            x       y       z     vdW  Elec       q    Type
REMARK                         _______ _______ _______ _____ _____    ______ ____
ROOT
ATOM      1  C   UNL     1       2.338   7.382  19.171  0.00  0.00    +0.000 A 
ATOM      2  C   UNL     1       2.260   8.099  17.963  0.00  0.00    +0.000 A 
ATOM      3  C   UNL     1       1.538   9.293  17.868  0.00  0.00    +0.000 A 
ATOM      4  C   UNL     1       0.866   9.794  18.982  0.00  0.00    +0.000 A 
ATOM      5  C   UNL     1       0.903   9.082  20.185  0.00  0.00    +0.000 A 
ATOM      6  C   UNL     1       1.651   7.906  20.279  0.00  0.00    +0.000 A 
ENDROOT
BRANCH   1  10
ATOM      7  C   UNL     1       6.247   4.513  17.812  0.00  0.00    +0.000 C 
ATOM      8  C   UNL     1       4.995   4.700  18.614  0.00  0.00    +0.000 A 
ATOM      9  C   UNL     1       4.288   5.912  18.554  0.00  0.00    +0.000 A 
ATOM     10  C   UNL     1       3.093   6.113  19.270  0.00  0.00    +0.000 A 
ATOM     11  C   UNL     1       2.637   5.053  20.076  0.00  0.00    +0.000 A 
ATOM     12  C   UNL     1       3.334   3.847  20.161  0.00  0.00    +0.000 A 
ATOM     13  C   UNL     1       4.502   3.677  19.426  0.00  0.00    +0.000 A 
BRANCH  13  14
ATOM     14  O   UNL     1       5.189   2.496  19.485  0.00  0.00    +0.000 OA
ATOM     15  H   UNL     1       5.976   2.624  20.037  0.00  0.00    +0.000 HD
ENDBRANCH  13  14
ENDBRANCH   1  10
BRANCH   4  16
ATOM     16  C   UNL     1       0.092  11.053  18.837  0.00  0.00    +0.000 C 
ATOM     17  O   UNL     1       0.657  12.130  18.977  0.00  0.00    +0.000 OA
BRANCH  16  18
ATOM     18  C   UNL     1      -1.355  11.039  18.504  0.00  0.00    +0.000 A 
ATOM     19  C   UNL     1      -1.814  10.083  17.584  0.00  0.00    +0.000 A 
ATOM     20  C   UNL     1      -3.173  10.007  17.274  0.00  0.00    +0.000 A 
ATOM     21  C   UNL     1      -4.063  10.890  17.875  0.00  0.00    +0.000 A 
ATOM     22  F   UNL     1      -5.369  10.801  17.595  0.00  0.00    +0.000 F 
ATOM     23  C   UNL     1      -3.604  11.855  18.765  0.00  0.00    +0.000 A 
ATOM     24  F   UNL     1      -4.465  12.701  19.348  0.00  0.00    +0.000 F 
ATOM     25  C   UNL     1      -2.252  11.951  19.071  0.00  0.00    +0.000 A 
ENDBRANCH  16  18
ENDBRANCH   4  16
TORSDOF 4
ENDMDL
MODEL 5
REMARK VINA RESULT:      -8.5      0.593      1.656
REMARK  Name = 
REMARK  5 active torsions:
REMARK  status: ('A' for Active; 'I' for Inactive)
REMARK    1  A    between atoms: C_1  and  C_2
REMARK    2  A    between atoms: C_4  and  C_5
REMARK    3  A    between atoms: C_8  and  C_9
REMARK    4  A    between atoms: C_9  and  C_11
REMARK    5  A    between atoms: C_23  and  O_24
REMARK                            x       y       z     vdW  Elec       q    Type
REMARK                         _______ _______ _______ _____ _____    ______ ____
ROOT
ATOM      1  C   UNL     1       2.454   7.153  19.208  0.00  0.00    +0.000 A 
ATOM      2  C   UNL     1       1.722   7.741  20.257  0.00  0.00    +0.000 A 
ATOM      3  C   UNL     1       1.120   8.995  20.113  0.00  0.00    +0.000 A 
ATOM      4  C   UNL     1       1.247   9.698  18.916  0.00  0.00    +0.000 A 
ATOM      5  C   UNL     1       1.997   9.149  17.872  0.00  0.00    +0.000 A 
ATOM      6  C   UNL     1       2.569   7.883  18.013  0.00  0.00    +0.000 A 
ENDROOT
BRANCH   1  10
ATOM      7  C   UNL     1       2.590   2.583  21.319  0.00  0.00    +0.000 C 
ATOM      8  C   UNL     1       3.181   3.598  20.386  0.00  0.00    +0.000 A 
ATOM      9  C   UNL     1       2.559   4.843  20.206  0.00  0.00    +0.000 A 
ATOM     10  C   UNL     1       3.100   5.831  19.362  0.00  0.00    +0.000 A 
ATOM     11  C   UNL     1       4.289   5.515  18.678  0.00  0.00    +0.000 A 
ATOM     12  C   UNL     1       4.913   4.276  18.831  0.00  0.00    +0.000 A 
ATOM     13  C   UNL     1       4.360   3.331  19.688  0.00  0.00    +0.000 A 
BRANCH  13  14
ATOM     14  O   UNL     1       4.967   2.118  19.862  0.00  0.00    +0.000 OA
ATOM     15  H   UNL     1       5.192   2.018  20.801  0.00  0.00    +0.000 HD
ENDBRANCH  13  14
ENDBRANCH   1  10
BRANCH   4  16
ATOM     16  C   UNL     1       0.613  11.037  18.809  0.00  0.00    +0.000 C 
ATOM     17  O   UNL     1       1.316  12.040  18.782  0.00  0.00    +0.000 OA
BRANCH  16  18
ATOM     18  C   UNL     1      -0.861  11.190  18.712  0.00  0.00    +0.000 A 
ATOM     19  C   UNL     1      -1.497  12.064  19.608  0.00  0.00    +0.000 A 
ATOM     20  C   UNL     1      -2.875  12.270  19.524  0.00  0.00    +0.000 A 
ATOM     21  C   UNL     1      -3.611  11.597  18.555  0.00  0.00    +0.000 A 
ATOM     22  F   UNL     1      -4.928  11.812  18.460  0.00  0.00    +0.000 F 
ATOM     23  C   UNL     1      -2.984  10.710  17.686  0.00  0.00    +0.000 A 
ATOM     24  F   UNL     1      -3.694  10.068  16.748  0.00  0.00    +0.000 F 
ATOM     25  C   UNL     1      -1.616  10.484  17.768  0.00  0.00    +0.000 A 
ENDBRANCH  16  18
ENDBRANCH   4  16
TORSDOF 4
ENDMDL
MODEL 6
REMARK VINA RESULT:      -8.4      1.755      2.296
REMARK  Name = 
REMARK  5 active torsions:
REMARK  status: ('A' for Active; 'I' for Inactive)
REMARK    1  A    between atoms: C_1  and  C_2
REMARK    2  A    between atoms: C_4  and  C_5
REMARK    3  A    between atoms: C_8  and  C_9
REMARK    4  A    between atoms: C_9  and  C_11
REMARK    5  A    between atoms: C_23  and  O_24
REMARK                            x       y       z     vdW  Elec       q    Type
REMARK                         _______ _______ _______ _____ _____    ______ ____
ROOT
ATOM      1  C   UNL     1       2.709   7.416  18.356  0.00  0.00    +0.000 A 
ATOM      2  C   UNL     1       2.407   8.580  17.624  0.00  0.00    +0.000 A 
ATOM      3  C   UNL     1       1.639   9.611  18.176  0.00  0.00    +0.000 A 
ATOM      4  C   UNL     1       1.144   9.494  19.474  0.00  0.00    +0.000 A 
ATOM      5  C   UNL     1       1.403   8.334  20.208  0.00  0.00    +0.000 A 
ATOM      6  C   UNL     1       2.196   7.322  19.661  0.00  0.00    +0.000 A 
ENDROOT
BRANCH   1  10
ATOM      7  C   UNL     1       3.627   2.496  17.799  0.00  0.00    +0.000 C 
ATOM      8  C   UNL     1       3.974   3.922  17.490  0.00  0.00    +0.000 A 
ATOM      9  C   UNL     1       3.200   4.969  18.013  0.00  0.00    +0.000 A 
ATOM     10  C   UNL     1       3.513   6.320  17.770  0.00  0.00    +0.000 A 
ATOM     11  C   UNL     1       4.628   6.588  16.955  0.00  0.00    +0.000 A 
ATOM     12  C   UNL     1       5.401   5.560  16.413  0.00  0.00    +0.000 A 
ATOM     13  C   UNL     1       5.073   4.237  16.689  0.00  0.00    +0.000 A 
BRANCH  13  14
ATOM     14  O   UNL     1       5.829   3.218  16.180  0.00  0.00    +0.000 OA
ATOM     15  H   UNL     1       6.491   2.963  16.842  0.00  0.00    +0.000 HD
ENDBRANCH  13  14
ENDBRANCH   1  10
BRANCH   4  16
ATOM     16  C   UNL     1       0.314  10.599  20.018  0.00  0.00    +0.000 C 
ATOM     17  O   UNL     1       0.750  11.293  20.928  0.00  0.00    +0.000 OA
BRANCH  16  18
ATOM     18  C   UNL     1      -1.032  10.901  19.467  0.00  0.00    +0.000 A 
ATOM     19  C   UNL     1      -1.750  11.973  20.019  0.00  0.00    +0.000 A 
ATOM     20  C   UNL     1      -3.000  12.317  19.503  0.00  0.00    +0.000 A 
ATOM     21  C   UNL     1      -3.531  11.585  18.447  0.00  0.00    +0.000 A 
ATOM     22  F   UNL     1      -4.719  11.929  17.937  0.00  0.00    +0.000 F 
ATOM     23  C   UNL     1      -2.831  10.504  17.918  0.00  0.00    +0.000 A 
ATOM     24  F   UNL     1      -3.342   9.804  16.896  0.00  0.00    +0.000 F 
ATOM     25  C   UNL     1      -1.592  10.142  18.432  0.00  0.00    +0.000 A 
ENDBRANCH  16  18
ENDBRANCH   4  16
TORSDOF 4
ENDMDL
MODEL 7
REMARK VINA RESULT:      -8.3      4.644      8.545
REMARK  Name = 
REMARK  5 active torsions:
REMARK  status: ('A' for Active; 'I' for Inactive)
REMARK    1  A    between atoms: C_1  and  C_2
REMARK    2  A    between atoms: C_4  and  C_5
REMARK    3  A    between atoms: C_8  and  C_9
REMARK    4  A    between atoms: C_9  and  C_11
REMARK    5  A    between atoms: C_23  and  O_24
REMARK                            x       y       z     vdW  Elec       q    Type
REMARK                         _______ _______ _______ _____ _____    ______ ____
ROOT
ATOM      1  C   UNL     1       0.864   9.005  20.321  0.00  0.00    +0.000 A 
ATOM      2  C   UNL     1       1.267   9.321  19.010  0.00  0.00    +0.000 A 
ATOM      3  C   UNL     1       2.080   8.459  18.268  0.00  0.00    +0.000 A 
ATOM      4  C   UNL     1       2.520   7.260  18.828  0.00  0.00    +0.000 A 
ATOM      5  C   UNL     1       2.160   6.940  20.139  0.00  0.00    +0.000 A 
ATOM      6  C   UNL     1       1.323   7.792  20.863  0.00  0.00    +0.000 A 
ENDROOT
BRANCH   1  10
ATOM      7  C   UNL     1      -1.874  13.218  20.654  0.00  0.00    +0.000 C 
ATOM      8  C   UNL     1      -1.326  11.976  21.290  0.00  0.00    +0.000 A 
ATOM      9  C   UNL     1      -0.543  11.082  20.541  0.00  0.00    +0.000 A 
ATOM     10  C   UNL     1       0.012   9.921  21.112  0.00  0.00    +0.000 A 
ATOM     11  C   UNL     1      -0.265   9.672  22.468  0.00  0.00    +0.000 A 
ATOM     12  C   UNL     1      -1.054  10.541  23.225  0.00  0.00    +0.000 A 
ATOM     13  C   UNL     1      -1.572  11.687  22.633  0.00  0.00    +0.000 A 
BRANCH  13  14
ATOM     14  O   UNL     1      -2.332  12.558  23.363  0.00  0.00    +0.000 OA
ATOM     15  H   UNL     1      -1.775  12.952  24.053  0.00  0.00    +0.000 HD
ENDBRANCH  13  14
ENDBRANCH   1  10
BRANCH   4  16
ATOM     16  C   UNL     1       3.401   6.381  18.017  0.00  0.00    +0.000 C 
ATOM     17  O   UNL     1       4.156   6.877  17.190  0.00  0.00    +0.000 OA
BRANCH  16  18
ATOM     18  C   UNL     1       3.404   4.907  18.199  0.00  0.00    +0.000 A 
ATOM     19  C   UNL     1       2.557   4.137  17.388  0.00  0.00    +0.000 A 
ATOM     20  C   UNL     1       2.559   2.745  17.497  0.00  0.00    +0.000 A 
ATOM     21  C   UNL     1       3.398   2.131  18.420  0.00  0.00    +0.000 A 
ATOM     22  F   UNL     1       3.417   0.796  18.508  0.00  0.00    +0.000 F 
ATOM     23  C   UNL     1       4.218   2.897  19.243  0.00  0.00    +0.000 A 
ATOM     24  F   UNL     1       5.031   2.303  20.127  0.00  0.00    +0.000 F 
ATOM     25  C   UNL     1       4.214   4.284  19.155  0.00  0.00    +0.000 A 
ENDBRANCH  16  18
ENDBRANCH   4  16
TORSDOF 4
ENDMDL
MODEL 8
REMARK VINA RESULT:      -8.3      4.567      8.536
REMARK  Name = 
REMARK  5 active torsions:
REMARK  status: ('A' for Active; 'I' for Inactive)
REMARK    1  A    between atoms: C_1  and  C_2
REMARK    2  A    between atoms: C_4  and  C_5
REMARK    3  A    between atoms: C_8  and  C_9
REMARK    4  A    between atoms: C_9  and  C_11
REMARK    5  A    between atoms: C_23  and  O_24
REMARK                            x       y       z     vdW  Elec       q    Type
REMARK                         _______ _______ _______ _____ _____    ______ ____
ROOT
ATOM      1  C   UNL     1       0.812   9.217  20.243  0.00  0.00    +0.000 A 
ATOM      2  C   UNL     1       1.354   8.042  20.795  0.00  0.00    +0.000 A 
ATOM      3  C   UNL     1       2.184   7.199  20.048  0.00  0.00    +0.000 A 
ATOM      4  C   UNL     1       2.482   7.509  18.722  0.00  0.00    +0.000 A 
ATOM      5  C   UNL     1       1.929   8.654  18.142  0.00  0.00    +0.000 A 
ATOM      6  C   UNL     1       1.126   9.506  18.904  0.00  0.00    +0.000 A 
ENDROOT
BRANCH   1  10
ATOM      7  C   UNL     1      -2.187  13.253  20.520  0.00  0.00    +0.000 C 
ATOM      8  C   UNL     1      -1.539  12.072  21.180  0.00  0.00    +0.000 A 
ATOM      9  C   UNL     1      -0.722  11.205  20.437  0.00  0.00    +0.000 A 
ATOM     10  C   UNL     1      -0.075  10.104  21.028  0.00  0.00    +0.000 A 
ATOM     11  C   UNL     1      -0.294   9.887  22.401  0.00  0.00    +0.000 A 
ATOM     12  C   UNL     1      -1.116  10.729  23.152  0.00  0.00    +0.000 A 
ATOM     13  C   UNL     1      -1.726  11.818  22.539  0.00  0.00    +0.000 A 
BRANCH  13  14
ATOM     14  O   UNL     1      -2.520  12.662  23.263  0.00  0.00    +0.000 OA
ATOM     15  H   UNL     1      -2.472  13.547  22.868  0.00  0.00    +0.000 HD
ENDBRANCH  13  14
ENDBRANCH   1  10
BRANCH   4  16
ATOM     16  C   UNL     1       3.348   6.579  17.954  0.00  0.00    +0.000 C 
ATOM     17  O   UNL     1       4.134   7.026  17.128  0.00  0.00    +0.000 OA
BRANCH  16  18
ATOM     18  C   UNL     1       3.300   5.112  18.179  0.00  0.00    +0.000 A 
ATOM     19  C   UNL     1       2.293   4.375  17.536  0.00  0.00    +0.000 A 
ATOM     20  C   UNL     1       2.237   2.988  17.686  0.00  0.00    +0.000 A 
ATOM     21  C   UNL     1       3.178   2.347  18.483  0.00  0.00    +0.000 A 
ATOM     22  F   UNL     1       3.138   1.015  18.609  0.00  0.00    +0.000 F 
ATOM     23  C   UNL     1       4.159   3.081  19.143  0.00  0.00    +0.000 A 
ATOM     24  F   UNL     1       5.069   2.459  19.906  0.00  0.00    +0.000 F 
ATOM     25  C   UNL     1       4.217   4.463  19.014  0.00  0.00    +0.000 A 
ENDBRANCH  16  18
ENDBRANCH   4  16
TORSDOF 4
ENDMDL
MODEL 9
REMARK VINA RESULT:      -8.3      4.645      8.717
REMARK  Name = 
REMARK  5 active torsions:
REMARK  status: ('A' for Active; 'I' for Inactive)
REMARK    1  A    between atoms: C_1  and  C_2
REMARK    2  A    between atoms: C_4  and  C_5
REMARK    3  A    between atoms: C_8  and  C_9
REMARK    4  A    between atoms: C_9  and  C_11
REMARK    5  A    between atoms: C_23  and  O_24
REMARK                            x       y       z     vdW  Elec       q    Type
REMARK                         _______ _______ _______ _____ _____    ______ ____
ROOT
ATOM      1  C   UNL     1       2.113   7.584  19.482  0.00  0.00    +0.000 A 
ATOM      2  C   UNL     1       2.837   7.691  18.280  0.00  0.00    +0.000 A 
ATOM      3  C   UNL     1       3.654   6.651  17.824  0.00  0.00    +0.000 A 
ATOM      4  C   UNL     1       3.775   5.480  18.571  0.00  0.00    +0.000 A 
ATOM      5  C   UNL     1       3.091   5.364  19.784  0.00  0.00    +0.000 A 
ATOM      6  C   UNL     1       2.254   6.394  20.216  0.00  0.00    +0.000 A 
ENDROOT
BRANCH   1  10
ATOM      7  C   UNL     1      -0.411   9.820  23.222  0.00  0.00    +0.000 C 
ATOM      8  C   UNL     1       0.018   9.789  21.785  0.00  0.00    +0.000 A 
ATOM      9  C   UNL     1       0.858   8.766  21.318  0.00  0.00    +0.000 A 
ATOM     10  C   UNL     1       1.257   8.688  19.970  0.00  0.00    +0.000 A 
ATOM     11  C   UNL     1       0.799   9.696  19.102  0.00  0.00    +0.000 A 
ATOM     12  C   UNL     1      -0.023  10.730  19.551  0.00  0.00    +0.000 A 
ATOM     13  C   UNL     1      -0.412  10.766  20.886  0.00  0.00    +0.000 A 
BRANCH  13  14
ATOM     14  O   UNL     1      -1.231  11.762  21.339  0.00  0.00    +0.000 OA
ATOM     15  H   UNL     1      -1.055  12.565  20.823  0.00  0.00    +0.000 HD
ENDBRANCH  13  14
ENDBRANCH   1  10
BRANCH   4  16
ATOM     16  C   UNL     1       4.669   4.407  18.066  0.00  0.00    +0.000 C 
ATOM     17  O   UNL     1       4.800   3.374  18.712  0.00  0.00    +0.000 OA
BRANCH  16  18
ATOM     18  C   UNL     1       5.397   4.546  16.780  0.00  0.00    +0.000 A 
ATOM     19  C   UNL     1       6.715   5.027  16.812  0.00  0.00    +0.000 A 
ATOM     20  C   UNL     1       7.450   5.133  15.630  0.00  0.00    +0.000 A 
ATOM     21  C   UNL     1       6.863   4.769  14.423  0.00  0.00    +0.000 A 
ATOM     22  F   UNL     1       7.575   4.850  13.293  0.00  0.00    +0.000 F 
ATOM     23  C   UNL     1       5.547   4.319  14.388  0.00  0.00    +0.000 A 
ATOM     24  F   UNL     1       4.986   3.962  13.225  0.00  0.00    +0.000 F 
ATOM     25  C   UNL     1       4.800   4.223  15.555  0.00  0.00    +0.000 A 
ENDBRANCH  16  18
ENDBRANCH   4  16
TORSDOF 4
ENDMDL
