MODEL 1
REMARK VINA RESULT:      -7.3      0.000      0.000
REMARK  Name = 
REMARK  7 active torsions:
REMARK  status: ('A' for Active; 'I' for Inactive)
REMARK    1  A    between atoms: C_1  and  C_2
REMARK    2  A    between atoms: C_2  and  C_3
REMARK    3  A    between atoms: C_3  and  N_4
REMARK    4  A    between atoms: N_4  and  C_20
REMARK    5  A    between atoms: C_5  and  C_7
REMARK    6  A    between atoms: C_12  and  C_13
REMARK    7  A    between atoms: C_13  and  C_14
REMARK                            x       y       z     vdW  Elec       q    Type
REMARK                         _______ _______ _______ _____ _____    ______ ____
ROOT
ATOM      1  N   UNL     1       5.007   3.732  17.404  0.00  0.00    +0.000 N 
ATOM      2  C   UNL     1       3.998   2.839  17.878  0.00  0.00    +0.000 C 
ATOM      3  O   UNL     1       3.695   1.829  17.258  0.00  0.00    +0.000 OA
ENDROOT
BRANCH   1   4
ATOM      4  C   UNL     1       5.793   4.601  18.339  0.00  0.00    +0.000 C 
ATOM      5  C   UNL     1       5.153   5.989  18.575  0.00  0.00    +0.000 C 
ATOM      6  C   UNL     1       5.801   7.006  17.663  0.00  0.00    +0.000 C 
ATOM      7  S   UNL     1       7.502   6.533  17.594  0.00  0.00    +0.000 S 
ATOM      8  O   UNL     1       8.195   7.186  18.683  0.00  0.00    +0.000 OA
ATOM      9  O   UNL     1       7.951   6.635  16.219  0.00  0.00    +0.000 OA
ATOM     10  C   UNL     1       7.287   4.814  18.015  0.00  0.00    +0.000 C 
ENDBRANCH   1   4
BRANCH   2  11
ATOM     11  C   UNL     1       3.244   3.105  19.181  0.00  0.00    +0.000 A 
ATOM     12  C   UNL     1       3.602   2.402  20.341  0.00  0.00    +0.000 A 
ATOM     13  C   UNL     1       2.884   2.495  21.536  0.00  0.00    +0.000 A 
ATOM     14  C   UNL     1       1.846   3.404  21.636  0.00  0.00    +0.000 A 
ATOM     15  C   UNL     1       1.542   4.209  20.546  0.00  0.00    +0.000 A 
ATOM     16  C   UNL     1       2.219   4.074  19.305  0.00  0.00    +0.000 A 
BRANCH  16  17
ATOM     17  C   UNL     1       1.814   5.044  18.211  0.00  0.00    +0.000 C 
BRANCH  17  18
ATOM     18  C   UNL     1       1.850   6.521  18.558  0.00  0.00    +0.000 A 
ATOM     19  C   UNL     1       1.957   7.451  17.509  0.00  0.00    +0.000 A 
ATOM     20  C   UNL     1       1.981   8.823  17.761  0.00  0.00    +0.000 A 
ATOM     21  C   UNL     1       1.878   9.292  19.070  0.00  0.00    +0.000 A 
ATOM     22  C   UNL     1       1.743   8.389  20.118  0.00  0.00    +0.000 A 
ATOM     23  C   UNL     1       1.716   7.015  19.867  0.00  0.00    +0.000 A 
ENDBRANCH  17  18
ENDBRANCH  16  17
ENDBRANCH   2  11
BRANCH   1  24
ATOM     24  C   UNL     1       5.624   3.488  16.075  0.00  0.00    +0.000 C 
BRANCH  24  26
ATOM     25  C   UNL     1       5.870   3.900  13.538  0.00  0.00    +0.000 C 
ATOM     26  C   UNL     1       5.451   4.446  14.888  0.00  0.00    +0.000 C 
ENDBRANCH  24  26
ENDBRANCH   1  24
TORSDOF 6
ENDMDL
MODEL 2
REMARK VINA RESULT:      -7.0      2.503      6.646
REMARK  Name = 
REMARK  7 active torsions:
REMARK  status: ('A' for Active; 'I' for Inactive)
REMARK    1  A    between atoms: C_1  and  C_2
REMARK    2  A    between atoms: C_2  and  C_3
REMARK    3  A    between atoms: C_3  and  N_4
REMARK    4  A    between atoms: N_4  and  C_20
REMARK    5  A    between atoms: C_5  and  C_7
REMARK    6  A    between atoms: C_12  and  C_13
REMARK    7  A    between atoms: C_13  and  C_14
REMARK                            x       y       z     vdW  Elec       q    Type
REMARK                         _______ _______ _______ _____ _____    ______ ____
ROOT
ATOM      1  N   UNL     1       3.317   6.085  18.637  0.00  0.00    +0.000 N 
ATOM      2  C   UNL     1       4.451   6.551  17.903  0.00  0.00    +0.000 C 
ATOM      3  O   UNL     1       4.405   7.579  17.241  0.00  0.00    +0.000 OA
ENDROOT
BRANCH   1   4
ATOM      4  C   UNL     1       3.466   5.228  19.858  0.00  0.00    +0.000 C 
ATOM      5  C   UNL     1       3.956   3.795  19.548  0.00  0.00    +0.000 C 
ATOM      6  C   UNL     1       2.770   2.859  19.479  0.00  0.00    +0.000 C 
ATOM      7  S   UNL     1       1.663   3.440  20.728  0.00  0.00    +0.000 S 
ATOM      8  O   UNL     1       2.005   2.786  21.972  0.00  0.00    +0.000 OA
ATOM      9  O   UNL     1       0.317   3.424  20.189  0.00  0.00    +0.000 OA
ATOM     10  C   UNL     1       2.247   5.122  20.798  0.00  0.00    +0.000 C 
ENDBRANCH   1   4
BRANCH   2  11
ATOM     11  C   UNL     1       5.773   5.784  17.905  0.00  0.00    +0.000 A 
ATOM     12  C   UNL     1       6.631   5.894  19.010  0.00  0.00    +0.000 A 
ATOM     13  C   UNL     1       7.908   5.328  19.036  0.00  0.00    +0.000 A 
ATOM     14  C   UNL     1       8.316   4.522  17.989  0.00  0.00    +0.000 A 
ATOM     15  C   UNL     1       7.445   4.288  16.933  0.00  0.00    +0.000 A 
ATOM     16  C   UNL     1       6.172   4.913  16.863  0.00  0.00    +0.000 A 
BRANCH  16  17
ATOM     17  C   UNL     1       5.305   4.538  15.675  0.00  0.00    +0.000 C 
BRANCH  17  18
ATOM     18  C   UNL     1       6.005   4.396  14.336  0.00  0.00    +0.000 A 
ATOM     19  C   UNL     1       5.485   3.479  13.405  0.00  0.00    +0.000 A 
ATOM     20  C   UNL     1       6.074   3.312  12.152  0.00  0.00    +0.000 A 
ATOM     21  C   UNL     1       7.186   4.074  11.798  0.00  0.00    +0.000 A 
ATOM     22  C   UNL     1       7.698   5.006  12.693  0.00  0.00    +0.000 A 
ATOM     23  C   UNL     1       7.107   5.178  13.948  0.00  0.00    +0.000 A 
ENDBRANCH  17  18
ENDBRANCH  16  17
ENDBRANCH   2  11
BRANCH   1  24
ATOM     24  C   UNL     1       2.023   6.804  18.505  0.00  0.00    +0.000 C 
BRANCH  24  26
ATOM     25  C   UNL     1       1.352   9.226  17.913  0.00  0.00    +0.000 C 
ATOM     26  C   UNL     1       1.825   8.252  18.973  0.00  0.00    +0.000 C 
ENDBRANCH  24  26
ENDBRANCH   1  24
TORSDOF 6
ENDMDL
MODEL 3
REMARK VINA RESULT:      -7.0      1.459      4.015
REMARK  Name = 
REMARK  7 active torsions:
REMARK  status: ('A' for Active; 'I' for Inactive)
REMARK    1  A    between atoms: C_1  and  C_2
REMARK    2  A    between atoms: C_2  and  C_3
REMARK    3  A    between atoms: C_3  and  N_4
REMARK    4  A    between atoms: N_4  and  C_20
REMARK    5  A    between atoms: C_5  and  C_7
REMARK    6  A    between atoms: C_12  and  C_13
REMARK    7  A    between atoms: C_13  and  C_14
REMARK                            x       y       z     vdW  Elec       q    Type
REMARK                         _______ _______ _______ _____ _____    ______ ____
ROOT
ATOM      1  N   UNL     1       4.181   5.479  17.435  0.00  0.00    +0.000 N 
ATOM      2  C   UNL     1       2.783   5.646  17.678  0.00  0.00    +0.000 C 
ATOM      3  O   UNL     1       1.964   4.826  17.287  0.00  0.00    +0.000 OA
ENDROOT
BRANCH   1   4
ATOM      4  C   UNL     1       5.215   6.084  18.336  0.00  0.00    +0.000 C 
ATOM      5  C   UNL     1       6.084   7.159  17.642  0.00  0.00    +0.000 C 
ATOM      6  C   UNL     1       7.380   6.535  17.174  0.00  0.00    +0.000 C 
ATOM      7  S   UNL     1       7.800   5.368  18.432  0.00  0.00    +0.000 S 
ATOM      8  O   UNL     1       8.585   6.052  19.436  0.00  0.00    +0.000 OA
ATOM      9  O   UNL     1       8.254   4.149  17.792  0.00  0.00    +0.000 OA
ATOM     10  C   UNL     1       6.158   5.115  19.078  0.00  0.00    +0.000 C 
ENDBRANCH   1   4
BRANCH   2  11
ATOM     11  C   UNL     1       2.243   6.860  18.433  0.00  0.00    +0.000 A 
ATOM     12  C   UNL     1       1.765   7.964  17.712  0.00  0.00    +0.000 A 
ATOM     13  C   UNL     1       1.374   9.158  18.324  0.00  0.00    +0.000 A 
ATOM     14  C   UNL     1       1.335   9.233  19.704  0.00  0.00    +0.000 A 
ATOM     15  C   UNL     1       1.682   8.116  20.454  0.00  0.00    +0.000 A 
ATOM     16  C   UNL     1       2.147   6.922  19.844  0.00  0.00    +0.000 A 
BRANCH  16  17
ATOM     17  C   UNL     1       2.454   5.766  20.780  0.00  0.00    +0.000 C 
BRANCH  17  18
ATOM     18  C   UNL     1       2.102   4.375  20.286  0.00  0.00    +0.000 A 
ATOM     19  C   UNL     1       3.145   3.455  20.082  0.00  0.00    +0.000 A 
ATOM     20  C   UNL     1       2.887   2.157  19.643  0.00  0.00    +0.000 A 
ATOM     21  C   UNL     1       1.573   1.747  19.419  0.00  0.00    +0.000 A 
ATOM     22  C   UNL     1       0.525   2.633  19.643  0.00  0.00    +0.000 A 
ATOM     23  C   UNL     1       0.783   3.933  20.085  0.00  0.00    +0.000 A 
ENDBRANCH  17  18
ENDBRANCH  16  17
ENDBRANCH   2  11
BRANCH   1  24
ATOM     24  C   UNL     1       4.640   4.343  16.595  0.00  0.00    +0.000 C 
BRANCH  24  26
ATOM     25  C   UNL     1       6.435   4.099  14.755  0.00  0.00    +0.000 C 
ATOM     26  C   UNL     1       5.019   4.502  15.116  0.00  0.00    +0.000 C 
ENDBRANCH  24  26
ENDBRANCH   1  24
TORSDOF 6
ENDMDL
MODEL 4
REMARK VINA RESULT:      -7.0      1.896      3.073
REMARK  Name = 
REMARK  7 active torsions:
REMARK  status: ('A' for Active; 'I' for Inactive)
REMARK    1  A    between atoms: C_1  and  C_2
REMARK    2  A    between atoms: C_2  and  C_3
REMARK    3  A    between atoms: C_3  and  N_4
REMARK    4  A    between atoms: N_4  and  C_20
REMARK    5  A    between atoms: C_5  and  C_7
REMARK    6  A    between atoms: C_12  and  C_13
REMARK    7  A    between atoms: C_13  and  C_14
REMARK                            x       y       z     vdW  Elec       q    Type
REMARK                         _______ _______ _______ _____ _____    ______ ____
ROOT
ATOM      1  N   UNL     1       5.816   4.319  18.156  0.00  0.00    +0.000 N 
ATOM      2  C   UNL     1       5.044   4.018  19.320  0.00  0.00    +0.000 C 
ATOM      3  O   UNL     1       5.519   4.112  20.444  0.00  0.00    +0.000 OA
ENDROOT
BRANCH   1   4
ATOM      4  C   UNL     1       5.173   4.775  16.880  0.00  0.00    +0.000 C 
ATOM      5  C   UNL     1       4.964   3.636  15.855  0.00  0.00    +0.000 C 
ATOM      6  C   UNL     1       6.102   3.638  14.859  0.00  0.00    +0.000 C 
ATOM      7  S   UNL     1       6.477   5.346  14.604  0.00  0.00    +0.000 S 
ATOM      8  O   UNL     1       5.641   5.835  13.530  0.00  0.00    +0.000 OA
ATOM      9  O   UNL     1       7.919   5.502  14.597  0.00  0.00    +0.000 OA
ATOM     10  C   UNL     1       5.829   5.963  16.146  0.00  0.00    +0.000 C 
ENDBRANCH   1   4
BRANCH   2  11
ATOM     11  C   UNL     1       3.589   3.561  19.217  0.00  0.00    +0.000 A 
ATOM     12  C   UNL     1       3.301   2.295  18.686  0.00  0.00    +0.000 A 
ATOM     13  C   UNL     1       1.997   1.854  18.441  0.00  0.00    +0.000 A 
ATOM     14  C   UNL     1       0.929   2.635  18.845  0.00  0.00    +0.000 A 
ATOM     15  C   UNL     1       1.175   3.841  19.489  0.00  0.00    +0.000 A 
ATOM     16  C   UNL     1       2.494   4.330  19.680  0.00  0.00    +0.000 A 
BRANCH  16  17
ATOM     17  C   UNL     1       2.621   5.642  20.433  0.00  0.00    +0.000 C 
BRANCH  17  18
ATOM     18  C   UNL     1       2.303   6.908  19.659  0.00  0.00    +0.000 A 
ATOM     19  C   UNL     1       1.604   7.935  20.317  0.00  0.00    +0.000 A 
ATOM     20  C   UNL     1       1.294   9.129  19.666  0.00  0.00    +0.000 A 
ATOM     21  C   UNL     1       1.696   9.326  18.346  0.00  0.00    +0.000 A 
ATOM     22  C   UNL     1       2.413   8.334  17.687  0.00  0.00    +0.000 A 
ATOM     23  C   UNL     1       2.727   7.139  18.339  0.00  0.00    +0.000 A 
ENDBRANCH  17  18
ENDBRANCH  16  17
ENDBRANCH   2  11
BRANCH   1  24
ATOM     24  C   UNL     1       7.257   4.645  18.307  0.00  0.00    +0.000 C 
BRANCH  24  26
ATOM     25  C   UNL     1       8.011   7.111  18.453  0.00  0.00    +0.000 C 
ATOM     26  C   UNL     1       7.762   5.803  19.179  0.00  0.00    +0.000 C 
ENDBRANCH  24  26
ENDBRANCH   1  24
TORSDOF 6
ENDMDL
MODEL 5
REMARK VINA RESULT:      -7.0      3.814      6.386
REMARK  Name = 
REMARK  7 active torsions:
REMARK  status: ('A' for Active; 'I' for Inactive)
REMARK    1  A    between atoms: C_1  and  C_2
REMARK    2  A    between atoms: C_2  and  C_3
REMARK    3  A    between atoms: C_3  and  N_4
REMARK    4  A    between atoms: N_4  and  C_20
REMARK    5  A    between atoms: C_5  and  C_7
REMARK    6  A    between atoms: C_12  and  C_13
REMARK    7  A    between atoms: C_13  and  C_14
REMARK                            x       y       z     vdW  Elec       q    Type
REMARK                         _______ _______ _______ _____ _____    ______ ____
ROOT
ATOM      1  N   UNL     1       1.746   7.955  19.564  0.00  0.00    +0.000 N 
ATOM      2  C   UNL     1       2.436   6.900  18.890  0.00  0.00    +0.000 C 
ATOM      3  O   UNL     1       3.059   7.103  17.857  0.00  0.00    +0.000 OA
ENDROOT
BRANCH   1   4
ATOM      4  C   UNL     1       1.487   7.910  21.040  0.00  0.00    +0.000 C 
ATOM      5  C   UNL     1       0.018   7.587  21.398  0.00  0.00    +0.000 C 
ATOM      6  C   UNL     1      -0.729   8.873  21.672  0.00  0.00    +0.000 C 
ATOM      7  S   UNL     1       0.442   9.910  22.494  0.00  0.00    +0.000 S 
ATOM      8  O   UNL     1       0.355   9.649  23.914  0.00  0.00    +0.000 OA
ATOM      9  O   UNL     1       0.336  11.247  21.943  0.00  0.00    +0.000 OA
ATOM     10  C   UNL     1       1.922   9.135  21.870  0.00  0.00    +0.000 C 
ENDBRANCH   1   4
BRANCH   2  11
ATOM     11  C   UNL     1       2.424   5.469  19.425  0.00  0.00    +0.000 A 
ATOM     12  C   UNL     1       1.199   4.811  19.605  0.00  0.00    +0.000 A 
ATOM     13  C   UNL     1       1.095   3.553  20.206  0.00  0.00    +0.000 A 
ATOM     14  C   UNL     1       2.246   2.859  20.533  0.00  0.00    +0.000 A 
ATOM     15  C   UNL     1       3.482   3.426  20.254  0.00  0.00    +0.000 A 
ATOM     16  C   UNL     1       3.599   4.732  19.708  0.00  0.00    +0.000 A 
BRANCH  16  17
ATOM     17  C   UNL     1       5.009   5.213  19.417  0.00  0.00    +0.000 C 
BRANCH  17  18
ATOM     18  C   UNL     1       5.527   4.998  18.006  0.00  0.00    +0.000 A 
ATOM     19  C   UNL     1       6.673   5.703  17.601  0.00  0.00    +0.000 A 
ATOM     20  C   UNL     1       7.207   5.539  16.323  0.00  0.00    +0.000 A 
ATOM     21  C   UNL     1       6.614   4.647  15.430  0.00  0.00    +0.000 A 
ATOM     22  C   UNL     1       5.497   3.919  15.822  0.00  0.00    +0.000 A 
ATOM     23  C   UNL     1       4.962   4.080  17.103  0.00  0.00    +0.000 A 
ENDBRANCH  17  18
ENDBRANCH  16  17
ENDBRANCH   2  11
BRANCH   1  24
ATOM     24  C   UNL     1       1.692   9.301  18.939  0.00  0.00    +0.000 C 
BRANCH  24  26
ATOM     25  C   UNL     1      -0.619  10.348  18.460  0.00  0.00    +0.000 C 
ATOM     26  C   UNL     1       0.631   9.696  17.903  0.00  0.00    +0.000 C 
ENDBRANCH  24  26
ENDBRANCH   1  24
TORSDOF 6
ENDMDL
MODEL 6
REMARK VINA RESULT:      -6.8      2.501      6.705
REMARK  Name = 
REMARK  7 active torsions:
REMARK  status: ('A' for Active; 'I' for Inactive)
REMARK    1  A    between atoms: C_1  and  C_2
REMARK    2  A    between atoms: C_2  and  C_3
REMARK    3  A    between atoms: C_3  and  N_4
REMARK    4  A    between atoms: N_4  and  C_20
REMARK    5  A    between atoms: C_5  and  C_7
REMARK    6  A    between atoms: C_12  and  C_13
REMARK    7  A    between atoms: C_13  and  C_14
REMARK                            x       y       z     vdW  Elec       q    Type
REMARK                         _______ _______ _______ _____ _____    ______ ____
ROOT
ATOM      1  N   UNL     1       3.218   5.983  18.736  0.00  0.00    +0.000 N 
ATOM      2  C   UNL     1       4.327   6.496  17.996  0.00  0.00    +0.000 C 
ATOM      3  O   UNL     1       4.254   7.552  17.384  0.00  0.00    +0.000 OA
ENDROOT
BRANCH   1   4
ATOM      4  C   UNL     1       3.407   5.072  19.911  0.00  0.00    +0.000 C 
ATOM      5  C   UNL     1       3.903   3.660  19.523  0.00  0.00    +0.000 C 
ATOM      6  C   UNL     1       2.725   2.716  19.440  0.00  0.00    +0.000 C 
ATOM      7  S   UNL     1       1.645   3.225  20.743  0.00  0.00    +0.000 S 
ATOM      8  O   UNL     1       2.027   2.518  21.946  0.00  0.00    +0.000 OA
ATOM      9  O   UNL     1       0.286   3.220  20.239  0.00  0.00    +0.000 OA
ATOM     10  C   UNL     1       2.215   4.909  20.876  0.00  0.00    +0.000 C 
ENDBRANCH   1   4
BRANCH   2  11
ATOM     11  C   UNL     1       5.657   5.745  17.929  0.00  0.00    +0.000 A 
ATOM     12  C   UNL     1       6.540   5.808  19.017  0.00  0.00    +0.000 A 
ATOM     13  C   UNL     1       7.823   5.256  18.984  0.00  0.00    +0.000 A 
ATOM     14  C   UNL     1       8.214   4.509  17.889  0.00  0.00    +0.000 A 
ATOM     15  C   UNL     1       7.320   4.318  16.843  0.00  0.00    +0.000 A 
ATOM     16  C   UNL     1       6.039   4.932  16.835  0.00  0.00    +0.000 A 
BRANCH  16  17
ATOM     17  C   UNL     1       5.148   4.607  15.649  0.00  0.00    +0.000 C 
BRANCH  17  18
ATOM     18  C   UNL     1       5.836   4.412  14.311  0.00  0.00    +0.000 A 
ATOM     19  C   UNL     1       6.998   5.155  14.043  0.00  0.00    +0.000 A 
ATOM     20  C   UNL     1       7.685   5.011  12.837  0.00  0.00    +0.000 A 
ATOM     21  C   UNL     1       7.230   4.103  11.882  0.00  0.00    +0.000 A 
ATOM     22  C   UNL     1       6.099   3.338  12.140  0.00  0.00    +0.000 A 
ATOM     23  C   UNL     1       5.412   3.479  13.348  0.00  0.00    +0.000 A 
ENDBRANCH  17  18
ENDBRANCH  16  17
ENDBRANCH   2  11
BRANCH   1  24
ATOM     24  C   UNL     1       1.914   6.693  18.671  0.00  0.00    +0.000 C 
BRANCH  24  26
ATOM     25  C   UNL     1       1.422   8.364  20.577  0.00  0.00    +0.000 C 
ATOM     26  C   UNL     1       1.738   8.153  19.110  0.00  0.00    +0.000 C 
ENDBRANCH  24  26
ENDBRANCH   1  24
TORSDOF 6
ENDMDL
MODEL 7
REMARK VINA RESULT:      -6.8      1.919      3.118
REMARK  Name = 
REMARK  7 active torsions:
REMARK  status: ('A' for Active; 'I' for Inactive)
REMARK    1  A    between atoms: C_1  and  C_2
REMARK    2  A    between atoms: C_2  and  C_3
REMARK    3  A    between atoms: C_3  and  N_4
REMARK    4  A    between atoms: N_4  and  C_20
REMARK    5  A    between atoms: C_5  and  C_7
REMARK    6  A    between atoms: C_12  and  C_13
REMARK    7  A    between atoms: C_13  and  C_14
REMARK                            x       y       z     vdW  Elec       q    Type
REMARK                         _______ _______ _______ _____ _____    ______ ____
ROOT
ATOM      1  N   UNL     1       5.973   4.913  17.846  0.00  0.00    +0.000 N 
ATOM      2  C   UNL     1       5.238   5.009  19.068  0.00  0.00    +0.000 C 
ATOM      3  O   UNL     1       5.709   5.555  20.055  0.00  0.00    +0.000 OA
ENDROOT
BRANCH   1   4
ATOM      4  C   UNL     1       5.285   4.803  16.519  0.00  0.00    +0.000 C 
ATOM      5  C   UNL     1       5.348   3.384  15.907  0.00  0.00    +0.000 C 
ATOM      6  C   UNL     1       6.488   3.311  14.916  0.00  0.00    +0.000 C 
ATOM      7  S   UNL     1       6.502   4.893  14.128  0.00  0.00    +0.000 S 
ATOM      8  O   UNL     1       5.612   4.836  12.989  0.00  0.00    +0.000 OA
ATOM      9  O   UNL     1       7.878   5.335  14.015  0.00  0.00    +0.000 OA
ATOM     10  C   UNL     1       5.696   5.811  15.426  0.00  0.00    +0.000 C 
ENDBRANCH   1   4
BRANCH   2  11
ATOM     11  C   UNL     1       3.830   4.431  19.199  0.00  0.00    +0.000 A 
ATOM     12  C   UNL     1       3.647   3.204  19.856  0.00  0.00    +0.000 A 
ATOM     13  C   UNL     1       2.414   2.548  19.908  0.00  0.00    +0.000 A 
ATOM     14  C   UNL     1       1.289   3.175  19.402  0.00  0.00    +0.000 A 
ATOM     15  C   UNL     1       1.408   4.446  18.856  0.00  0.00    +0.000 A 
ATOM     16  C   UNL     1       2.667   5.092  18.735  0.00  0.00    +0.000 A 
BRANCH  16  17
ATOM     17  C   UNL     1       2.648   6.495  18.156  0.00  0.00    +0.000 C 
BRANCH  17  18
ATOM     18  C   UNL     1       2.054   7.587  19.027  0.00  0.00    +0.000 A 
ATOM     19  C   UNL     1       1.647   8.784  18.412  0.00  0.00    +0.000 A 
ATOM     20  C   UNL     1       1.081   9.820  19.155  0.00  0.00    +0.000 A 
ATOM     21  C   UNL     1       0.893   9.669  20.528  0.00  0.00    +0.000 A 
ATOM     22  C   UNL     1       1.262   8.482  21.150  0.00  0.00    +0.000 A 
ATOM     23  C   UNL     1       1.827   7.442  20.406  0.00  0.00    +0.000 A 
ENDBRANCH  17  18
ENDBRANCH  16  17
ENDBRANCH   2  11
BRANCH   1  24
ATOM     24  C   UNL     1       7.380   5.387  17.808  0.00  0.00    +0.000 C 
BRANCH  24  26
ATOM     25  C   UNL     1       7.743   7.932  17.563  0.00  0.00    +0.000 C 
ATOM     26  C   UNL     1       7.832   6.706  18.450  0.00  0.00    +0.000 C 
ENDBRANCH  24  26
ENDBRANCH   1  24
TORSDOF 6
ENDMDL
MODEL 8
REMARK VINA RESULT:      -6.7      1.430      1.695
REMARK  Name = 
REMARK  7 active torsions:
REMARK  status: ('A' for Active; 'I' for Inactive)
REMARK    1  A    between atoms: C_1  and  C_2
REMARK    2  A    between atoms: C_2  and  C_3
REMARK    3  A    between atoms: C_3  and  N_4
REMARK    4  A    between atoms: N_4  and  C_20
REMARK    5  A    between atoms: C_5  and  C_7
REMARK    6  A    between atoms: C_12  and  C_13
REMARK    7  A    between atoms: C_13  and  C_14
REMARK                            x       y       z     vdW  Elec       q    Type
REMARK                         _______ _______ _______ _____ _____    ______ ____
ROOT
ATOM      1  N   UNL     1       4.371   5.052  16.939  0.00  0.00    +0.000 N 
ATOM      2  C   UNL     1       3.250   4.190  17.144  0.00  0.00    +0.000 C 
ATOM      3  O   UNL     1       2.870   3.419  16.274  0.00  0.00    +0.000 OA
ENDROOT
BRANCH   1   4
ATOM      4  C   UNL     1       5.201   5.550  18.084  0.00  0.00    +0.000 C 
ATOM      5  C   UNL     1       6.042   6.801  17.736  0.00  0.00    +0.000 C 
ATOM      6  C   UNL     1       7.448   6.378  17.372  0.00  0.00    +0.000 C 
ATOM      7  S   UNL     1       7.808   5.027  18.453  0.00  0.00    +0.000 S 
ATOM      8  O   UNL     1       8.370   5.564  19.673  0.00  0.00    +0.000 OA
ATOM      9  O   UNL     1       8.471   3.991  17.685  0.00  0.00    +0.000 OA
ATOM     10  C   UNL     1       6.127   4.531  18.779  0.00  0.00    +0.000 C 
ENDBRANCH   1   4
BRANCH   2  11
ATOM     11  C   UNL     1       2.469   4.193  18.458  0.00  0.00    +0.000 A 
ATOM     12  C   UNL     1       1.981   2.983  18.973  0.00  0.00    +0.000 A 
ATOM     13  C   UNL     1       1.154   2.917  20.097  0.00  0.00    +0.000 A 
ATOM     14  C   UNL     1       0.892   4.069  20.817  0.00  0.00    +0.000 A 
ATOM     15  C   UNL     1       1.461   5.268  20.409  0.00  0.00    +0.000 A 
ATOM     16  C   UNL     1       2.246   5.359  19.229  0.00  0.00    +0.000 A 
BRANCH  16  17
ATOM     17  C   UNL     1       2.839   6.722  18.922  0.00  0.00    +0.000 C 
BRANCH  17  18
ATOM     18  C   UNL     1       1.945   7.926  19.155  0.00  0.00    +0.000 A 
ATOM     19  C   UNL     1       1.535   8.678  18.040  0.00  0.00    +0.000 A 
ATOM     20  C   UNL     1       0.701   9.787  18.186  0.00  0.00    +0.000 A 
ATOM     21  C   UNL     1       0.244  10.153  19.451  0.00  0.00    +0.000 A 
ATOM     22  C   UNL     1       0.615   9.404  20.562  0.00  0.00    +0.000 A 
ATOM     23  C   UNL     1       1.447   8.292  20.418  0.00  0.00    +0.000 A 
ENDBRANCH  17  18
ENDBRANCH  16  17
ENDBRANCH   2  11
BRANCH   1  24
ATOM     24  C   UNL     1       5.020   5.093  15.604  0.00  0.00    +0.000 C 
BRANCH  24  26
ATOM     25  C   UNL     1       6.071   3.876  13.583  0.00  0.00    +0.000 C 
ATOM     26  C   UNL     1       5.936   3.974  15.089  0.00  0.00    +0.000 C 
ENDBRANCH  24  26
ENDBRANCH   1  24
TORSDOF 6
ENDMDL
MODEL 9
REMARK VINA RESULT:      -6.6      8.564     11.690
REMARK  Name = 
REMARK  7 active torsions:
REMARK  status: ('A' for Active; 'I' for Inactive)
REMARK    1  A    between atoms: C_1  and  C_2
REMARK    2  A    between atoms: C_2  and  C_3
REMARK    3  A    between atoms: C_3  and  N_4
REMARK    4  A    between atoms: N_4  and  C_20
REMARK    5  A    between atoms: C_5  and  C_7
REMARK    6  A    between atoms: C_12  and  C_13
REMARK    7  A    between atoms: C_13  and  C_14
REMARK                            x       y       z     vdW  Elec       q    Type
REMARK                         _______ _______ _______ _____ _____    ______ ____
ROOT
ATOM      1  N   UNL     1      -2.479  13.524  22.067  0.00  0.00    +0.000 N 
ATOM      2  C   UNL     1      -1.138  13.032  22.095  0.00  0.00    +0.000 C 
ATOM      3  O   UNL     1      -0.183  13.786  22.218  0.00  0.00    +0.000 OA
ENDROOT
BRANCH   1   4
ATOM      4  C   UNL     1      -3.639  12.675  22.493  0.00  0.00    +0.000 C 
ATOM      5  C   UNL     1      -4.768  12.600  21.439  0.00  0.00    +0.000 C 
ATOM      6  C   UNL     1      -5.845  13.606  21.779  0.00  0.00    +0.000 C 
ATOM      7  S   UNL     1      -5.932  13.595  23.544  0.00  0.00    +0.000 S 
ATOM      8  O   UNL     1      -6.873  12.572  23.942  0.00  0.00    +0.000 OA
ATOM      9  O   UNL     1      -6.037  14.966  24.005  0.00  0.00    +0.000 OA
ATOM     10  C   UNL     1      -4.283  12.995  23.858  0.00  0.00    +0.000 C 
ENDBRANCH   1   4
BRANCH   2  11
ATOM     11  C   UNL     1      -0.833  11.540  21.967  0.00  0.00    +0.000 A 
ATOM     12  C   UNL     1      -0.921  10.718  23.101  0.00  0.00    +0.000 A 
ATOM     13  C   UNL     1      -0.537   9.375  23.095  0.00  0.00    +0.000 A 
ATOM     14  C   UNL     1      -0.166   8.779  21.903  0.00  0.00    +0.000 A 
ATOM     15  C   UNL     1      -0.187   9.529  20.735  0.00  0.00    +0.000 A 
ATOM     16  C   UNL     1      -0.507  10.912  20.740  0.00  0.00    +0.000 A 
BRANCH  16  17
ATOM     17  C   UNL     1      -0.530  11.601  19.388  0.00  0.00    +0.000 C 
BRANCH  17  18
ATOM     18  C   UNL     1      -1.664  11.230  18.451  0.00  0.00    +0.000 A 
ATOM     19  C   UNL     1      -1.431  10.241  17.479  0.00  0.00    +0.000 A 
ATOM     20  C   UNL     1      -2.437   9.845  16.597  0.00  0.00    +0.000 A 
ATOM     21  C   UNL     1      -3.704  10.419  16.684  0.00  0.00    +0.000 A 
ATOM     22  C   UNL     1      -3.963  11.378  17.656  0.00  0.00    +0.000 A 
ATOM     23  C   UNL     1      -2.957  11.774  18.542  0.00  0.00    +0.000 A 
ENDBRANCH  17  18
ENDBRANCH  16  17
ENDBRANCH   2  11
BRANCH   1  24
ATOM     24  C   UNL     1      -2.713  14.990  22.076  0.00  0.00    +0.000 C 
BRANCH  24  26
ATOM     25  C   UNL     1      -4.045  16.791  20.791  0.00  0.00    +0.000 C 
ATOM     26  C   UNL     1      -2.886  15.814  20.793  0.00  0.00    +0.000 C 
ENDBRANCH  24  26
ENDBRANCH   1  24
TORSDOF 6
ENDMDL
