MODEL 1
REMARK VINA RESULT:      -8.0      0.000      0.000
REMARK  Name = 
REMARK  6 active torsions:
REMARK  status: ('A' for Active; 'I' for Inactive)
REMARK    1  A    between atoms: O_1  and  C_2
REMARK    2  A    between atoms: C_4  and  N_5
REMARK    3  A    between atoms: C_16  and  C_17
REMARK    4  A    between atoms: C_17  and  O_18
REMARK    5  A    between atoms: O_18  and  C_19
REMARK    6  A    between atoms: C_19  and  C_20
REMARK                            x       y       z     vdW  Elec       q    Type
REMARK                         _______ _______ _______ _____ _____    ______ ____
ROOT
ATOM      1  C   UNL     1       3.342   2.310  18.741  0.00  0.00    +0.000 C 
ATOM      2  C   UNL     1       4.584   3.158  18.810  0.00  0.00    +0.000 C 
ATOM      3  C   UNL     1       4.745   3.632  17.370  0.00  0.00    +0.000 C 
ATOM      4  O   UNL     1       3.427   3.677  16.792  0.00  0.00    +0.000 OA
ATOM      5  C   UNL     1       2.502   2.993  17.660  0.00  0.00    +0.000 C 
ENDROOT
BRANCH   3   6
ATOM      6  N   UNL     1       5.374   4.928  17.215  0.00  0.00    +0.000 N 
ATOM      7  C   UNL     1       5.074   5.854  16.245  0.00  0.00    +0.000 A 
ATOM      8  N   UNL     1       5.839   6.920  16.325  0.00  0.00    +0.000 NA
ATOM      9  C   UNL     1       6.681   6.677  17.393  0.00  0.00    +0.000 A 
ATOM     10  C   UNL     1       7.709   7.377  18.005  0.00  0.00    +0.000 A 
ATOM     11 CL   UNL     1       8.152   8.898  17.396  0.00  0.00    +0.000 Cl
ATOM     12  N   UNL     1       8.378   6.889  19.063  0.00  0.00    +0.000 NA
ATOM     13  C   UNL     1       8.000   5.672  19.500  0.00  0.00    +0.000 A 
ATOM     14  N   UNL     1       7.033   4.874  19.007  0.00  0.00    +0.000 NA
ATOM     15  C   UNL     1       6.413   5.434  17.953  0.00  0.00    +0.000 A 
ENDBRANCH   3   6
BRANCH   1  16
ATOM     16  O   UNL     1       3.719   1.001  18.319  0.00  0.00    +0.000 OA
ATOM     17  H   UNL     1       4.245   0.601  19.034  0.00  0.00    +0.000 HD
ENDBRANCH   1  16
BRANCH   5  18
ATOM     18  C   UNL     1       1.533   4.027  18.246  0.00  0.00    +0.000 C 
BRANCH  18  19
ATOM     19  O   UNL     1       2.002   5.347  17.967  0.00  0.00    +0.000 OA
BRANCH  19  20
ATOM     20  C   UNL     1       2.454   5.997  19.151  0.00  0.00    +0.000 C 
BRANCH  20  21
ATOM     21  C   UNL     1       2.010   7.433  19.138  0.00  0.00    +0.000 A 
ATOM     22  C   UNL     1       2.085   8.189  17.958  0.00  0.00    +0.000 A 
ATOM     23  C   UNL     1       1.647   9.513  17.936  0.00  0.00    +0.000 A 
ATOM     24  C   UNL     1       1.132  10.097  19.089  0.00  0.00    +0.000 A 
ATOM     25  C   UNL     1       1.061   9.359  20.272  0.00  0.00    +0.000 A 
ATOM     26  C   UNL     1       1.498   8.035  20.296  0.00  0.00    +0.000 A 
ENDBRANCH  20  21
ENDBRANCH  19  20
ENDBRANCH  18  19
ENDBRANCH   5  18
TORSDOF 6
ENDMDL
MODEL 2
REMARK VINA RESULT:      -8.0      1.328      2.338
REMARK  Name = 
REMARK  6 active torsions:
REMARK  status: ('A' for Active; 'I' for Inactive)
REMARK    1  A    between atoms: O_1  and  C_2
REMARK    2  A    between atoms: C_4  and  N_5
REMARK    3  A    between atoms: C_16  and  C_17
REMARK    4  A    between atoms: C_17  and  O_18
REMARK    5  A    between atoms: O_18  and  C_19
REMARK    6  A    between atoms: C_19  and  C_20
REMARK                            x       y       z     vdW  Elec       q    Type
REMARK                         _______ _______ _______ _____ _____    ______ ____
ROOT
ATOM      1  C   UNL     1       1.636   2.342  19.613  0.00  0.00    +0.000 C 
ATOM      2  C   UNL     1       3.138   2.434  19.576  0.00  0.00    +0.000 C 
ATOM      3  C   UNL     1       3.383   3.442  18.458  0.00  0.00    +0.000 C 
ATOM      4  O   UNL     1       2.237   4.314  18.419  0.00  0.00    +0.000 OA
ATOM      5  C   UNL     1       1.181   3.749  19.221  0.00  0.00    +0.000 C 
ENDROOT
BRANCH   3   6
ATOM      6  N   UNL     1       4.582   4.243  18.602  0.00  0.00    +0.000 N 
ATOM      7  C   UNL     1       5.433   4.226  19.680  0.00  0.00    +0.000 A 
ATOM      8  N   UNL     1       6.414   5.091  19.551  0.00  0.00    +0.000 NA
ATOM      9  C   UNL     1       6.190   5.706  18.334  0.00  0.00    +0.000 A 
ATOM     10  C   UNL     1       6.834   6.695  17.607  0.00  0.00    +0.000 A 
ATOM     11 CL   UNL     1       8.230   7.416  18.247  0.00  0.00    +0.000 Cl
ATOM     12  N   UNL     1       6.386   7.111  16.411  0.00  0.00    +0.000 NA
ATOM     13  C   UNL     1       5.267   6.519  15.952  0.00  0.00    +0.000 A 
ATOM     14  N   UNL     1       4.531   5.558  16.544  0.00  0.00    +0.000 NA
ATOM     15  C   UNL     1       5.045   5.197  17.733  0.00  0.00    +0.000 A 
ENDBRANCH   3   6
BRANCH   1  16
ATOM     16  O   UNL     1       1.223   1.397  18.627  0.00  0.00    +0.000 OA
ATOM     17  H   UNL     1       0.323   1.640  18.345  0.00  0.00    +0.000 HD
ENDBRANCH   1  16
BRANCH   5  18
ATOM     18  C   UNL     1       0.966   4.649  20.443  0.00  0.00    +0.000 C 
BRANCH  18  19
ATOM     19  O   UNL     1       2.040   5.584  20.555  0.00  0.00    +0.000 OA
BRANCH  19  20
ATOM     20  C   UNL     1       1.585   6.839  21.053  0.00  0.00    +0.000 C 
BRANCH  20  21
ATOM     21  C   UNL     1       1.659   7.870  19.962  0.00  0.00    +0.000 A 
ATOM     22  C   UNL     1       2.386   7.614  18.790  0.00  0.00    +0.000 A 
ATOM     23  C   UNL     1       2.433   8.558  17.764  0.00  0.00    +0.000 A 
ATOM     24  C   UNL     1       1.757   9.767  17.899  0.00  0.00    +0.000 A 
ATOM     25  C   UNL     1       1.039  10.039  19.064  0.00  0.00    +0.000 A 
ATOM     26  C   UNL     1       0.990   9.096  20.090  0.00  0.00    +0.000 A 
ENDBRANCH  20  21
ENDBRANCH  19  20
ENDBRANCH  18  19
ENDBRANCH   5  18
TORSDOF 6
ENDMDL
MODEL 3
REMARK VINA RESULT:      -8.0      3.202      5.554
REMARK  Name = 
REMARK  6 active torsions:
REMARK  status: ('A' for Active; 'I' for Inactive)
REMARK    1  A    between atoms: O_1  and  C_2
REMARK    2  A    between atoms: C_4  and  N_5
REMARK    3  A    between atoms: C_16  and  C_17
REMARK    4  A    between atoms: C_17  and  O_18
REMARK    5  A    between atoms: O_18  and  C_19
REMARK    6  A    between atoms: C_19  and  C_20
REMARK                            x       y       z     vdW  Elec       q    Type
REMARK                         _______ _______ _______ _____ _____    ______ ____
ROOT
ATOM      1  C   UNL     1       1.657   3.047  20.612  0.00  0.00    +0.000 C 
ATOM      2  C   UNL     1       1.010   4.402  20.493  0.00  0.00    +0.000 C 
ATOM      3  C   UNL     1       2.193   5.351  20.647  0.00  0.00    +0.000 C 
ATOM      4  O   UNL     1       3.358   4.654  20.165  0.00  0.00    +0.000 OA
ATOM      5  C   UNL     1       3.043   3.257  20.000  0.00  0.00    +0.000 C 
ENDROOT
BRANCH   3   6
ATOM      6  N   UNL     1       2.070   6.610  19.941  0.00  0.00    +0.000 N 
ATOM      7  C   UNL     1       2.513   6.861  18.666  0.00  0.00    +0.000 A 
ATOM      8  N   UNL     1       2.302   8.108  18.304  0.00  0.00    +0.000 NA
ATOM      9  C   UNL     1       1.697   8.698  19.397  0.00  0.00    +0.000 A 
ATOM     10  C   UNL     1       1.224   9.970  19.680  0.00  0.00    +0.000 A 
ATOM     11 CL   UNL     1       1.366  11.187  18.507  0.00  0.00    +0.000 Cl
ATOM     12  N   UNL     1       0.660  10.277  20.861  0.00  0.00    +0.000 NA
ATOM     13  C   UNL     1       0.583   9.282  21.764  0.00  0.00    +0.000 A 
ATOM     14  N   UNL     1       1.005   8.008  21.637  0.00  0.00    +0.000 NA
ATOM     15  C   UNL     1       1.554   7.782  20.431  0.00  0.00    +0.000 A 
ENDBRANCH   3   6
BRANCH   1  16
ATOM     16  O   UNL     1       1.772   2.729  21.997  0.00  0.00    +0.000 OA
ATOM     17  H   UNL     1       2.153   3.504  22.447  0.00  0.00    +0.000 HD
ENDBRANCH   1  16
BRANCH   5  18
ATOM     18  C   UNL     1       3.070   2.928  18.503  0.00  0.00    +0.000 C 
BRANCH  18  19
ATOM     19  O   UNL     1       4.392   3.103  17.990  0.00  0.00    +0.000 OA
BRANCH  19  20
ATOM     20  C   UNL     1       4.442   4.165  17.041  0.00  0.00    +0.000 C 
BRANCH  20  21
ATOM     21  C   UNL     1       5.559   5.106  17.397  0.00  0.00    +0.000 A 
ATOM     22  C   UNL     1       6.576   4.702  18.274  0.00  0.00    +0.000 A 
ATOM     23  C   UNL     1       7.629   5.564  18.583  0.00  0.00    +0.000 A 
ATOM     24  C   UNL     1       7.676   6.836  18.022  0.00  0.00    +0.000 A 
ATOM     25  C   UNL     1       6.665   7.255  17.156  0.00  0.00    +0.000 A 
ATOM     26  C   UNL     1       5.612   6.394  16.845  0.00  0.00    +0.000 A 
ENDBRANCH  20  21
ENDBRANCH  19  20
ENDBRANCH  18  19
ENDBRANCH   5  18
TORSDOF 6
ENDMDL
MODEL 4
REMARK VINA RESULT:      -8.0      3.415      5.224
REMARK  Name = 
REMARK  6 active torsions:
REMARK  status: ('A' for Active; 'I' for Inactive)
REMARK    1  A    between atoms: O_1  and  C_2
REMARK    2  A    between atoms: C_4  and  N_5
REMARK    3  A    between atoms: C_16  and  C_17
REMARK    4  A    between atoms: C_17  and  O_18
REMARK    5  A    between atoms: O_18  and  C_19
REMARK    6  A    between atoms: C_19  and  C_20
REMARK                            x       y       z     vdW  Elec       q    Type
REMARK                         _______ _______ _______ _____ _____    ______ ____
ROOT
ATOM      1  C   UNL     1       7.196   6.873  18.624  0.00  0.00    +0.000 C 
ATOM      2  C   UNL     1       7.003   6.712  17.140  0.00  0.00    +0.000 C 
ATOM      3  C   UNL     1       7.447   5.273  16.899  0.00  0.00    +0.000 C 
ATOM      4  O   UNL     1       7.194   4.546  18.117  0.00  0.00    +0.000 OA
ATOM      5  C   UNL     1       6.904   5.477  19.177  0.00  0.00    +0.000 C 
ENDROOT
BRANCH   3   6
ATOM      6  N   UNL     1       6.788   4.600  15.799  0.00  0.00    +0.000 N 
ATOM      7  C   UNL     1       5.769   3.686  15.914  0.00  0.00    +0.000 A 
ATOM      8  N   UNL     1       5.398   3.209  14.746  0.00  0.00    +0.000 NA
ATOM      9  C   UNL     1       6.217   3.837  13.827  0.00  0.00    +0.000 A 
ATOM     10  C   UNL     1       6.352   3.789  12.449  0.00  0.00    +0.000 A 
ATOM     11 CL   UNL     1       5.353   2.752  11.553  0.00  0.00    +0.000 Cl
ATOM     12  N   UNL     1       7.258   4.534  11.792  0.00  0.00    +0.000 NA
ATOM     13  C   UNL     1       8.038   5.331  12.547  0.00  0.00    +0.000 A 
ATOM     14  N   UNL     1       8.030   5.476  13.887  0.00  0.00    +0.000 NA
ATOM     15  C   UNL     1       7.098   4.700  14.467  0.00  0.00    +0.000 A 
ENDBRANCH   3   6
BRANCH   1  16
ATOM     16  O   UNL     1       8.559   7.222  18.861  0.00  0.00    +0.000 OA
ATOM     17  H   UNL     1       8.566   8.015  19.425  0.00  0.00    +0.000 HD
ENDBRANCH   1  16
BRANCH   5  18
ATOM     18  C   UNL     1       5.434   5.311  19.580  0.00  0.00    +0.000 C 
BRANCH  18  19
ATOM     19  O   UNL     1       4.586   5.824  18.551  0.00  0.00    +0.000 OA
BRANCH  19  20
ATOM     20  C   UNL     1       3.330   6.244  19.078  0.00  0.00    +0.000 C 
BRANCH  20  21
ATOM     21  C   UNL     1       2.420   5.055  19.217  0.00  0.00    +0.000 A 
ATOM     22  C   UNL     1       2.147   4.237  18.111  0.00  0.00    +0.000 A 
ATOM     23  C   UNL     1       1.326   3.116  18.244  0.00  0.00    +0.000 A 
ATOM     24  C   UNL     1       0.769   2.803  19.480  0.00  0.00    +0.000 A 
ATOM     25  C   UNL     1       1.025   3.615  20.586  0.00  0.00    +0.000 A 
ATOM     26  C   UNL     1       1.846   4.734  20.455  0.00  0.00    +0.000 A 
ENDBRANCH  20  21
ENDBRANCH  19  20
ENDBRANCH  18  19
ENDBRANCH   5  18
TORSDOF 6
ENDMDL
MODEL 5
REMARK VINA RESULT:      -7.8      2.999      5.506
REMARK  Name = 
REMARK  6 active torsions:
REMARK  status: ('A' for Active; 'I' for Inactive)
REMARK    1  A    between atoms: O_1  and  C_2
REMARK    2  A    between atoms: C_4  and  N_5
REMARK    3  A    between atoms: C_16  and  C_17
REMARK    4  A    between atoms: C_17  and  O_18
REMARK    5  A    between atoms: O_18  and  C_19
REMARK    6  A    between atoms: C_19  and  C_20
REMARK                            x       y       z     vdW  Elec       q    Type
REMARK                         _______ _______ _______ _____ _____    ______ ____
ROOT
ATOM      1  C   UNL     1       6.616   5.178  16.729  0.00  0.00    +0.000 C 
ATOM      2  C   UNL     1       6.113   6.025  17.868  0.00  0.00    +0.000 C 
ATOM      3  C   UNL     1       4.775   6.532  17.341  0.00  0.00    +0.000 C 
ATOM      4  O   UNL     1       4.282   5.539  16.421  0.00  0.00    +0.000 OA
ATOM      5  C   UNL     1       5.337   4.606  16.116  0.00  0.00    +0.000 C 
ENDROOT
BRANCH   3   6
ATOM      6  N   UNL     1       3.768   6.780  18.353  0.00  0.00    +0.000 N 
ATOM      7  C   UNL     1       3.484   5.963  19.420  0.00  0.00    +0.000 A 
ATOM      8  N   UNL     1       2.492   6.424  20.148  0.00  0.00    +0.000 NA
ATOM      9  C   UNL     1       2.106   7.595  19.524  0.00  0.00    +0.000 A 
ATOM     10  C   UNL     1       1.136   8.556  19.765  0.00  0.00    +0.000 A 
ATOM     11 CL   UNL     1       0.102   8.372  21.097  0.00  0.00    +0.000 Cl
ATOM     12  N   UNL     1       0.979   9.630  18.973  0.00  0.00    +0.000 NA
ATOM     13  C   UNL     1       1.813   9.724  17.920  0.00  0.00    +0.000 A 
ATOM     14  N   UNL     1       2.792   8.872  17.554  0.00  0.00    +0.000 NA
ATOM     15  C   UNL     1       2.884   7.828  18.396  0.00  0.00    +0.000 A 
ENDBRANCH   3   6
BRANCH   1  16
ATOM     16  O   UNL     1       7.272   6.033  15.794  0.00  0.00    +0.000 OA
ATOM     17  H   UNL     1       6.708   6.816  15.665  0.00  0.00    +0.000 HD
ENDBRANCH   1  16
BRANCH   5  18
ATOM     18  C   UNL     1       4.967   3.244  16.715  0.00  0.00    +0.000 C 
BRANCH  18  19
ATOM     19  O   UNL     1       3.586   3.229  17.077  0.00  0.00    +0.000 OA
BRANCH  19  20
ATOM     20  C   UNL     1       3.256   2.056  17.816  0.00  0.00    +0.000 C 
BRANCH  20  21
ATOM     21  C   UNL     1       2.597   2.446  19.110  0.00  0.00    +0.000 A 
ATOM     22  C   UNL     1       1.267   2.891  19.124  0.00  0.00    +0.000 A 
ATOM     23  C   UNL     1       0.644   3.225  20.327  0.00  0.00    +0.000 A 
ATOM     24  C   UNL     1       1.343   3.121  21.526  0.00  0.00    +0.000 A 
ATOM     25  C   UNL     1       2.670   2.689  21.525  0.00  0.00    +0.000 A 
ATOM     26  C   UNL     1       3.294   2.354  20.324  0.00  0.00    +0.000 A 
ENDBRANCH  20  21
ENDBRANCH  19  20
ENDBRANCH  18  19
ENDBRANCH   5  18
TORSDOF 6
ENDMDL
MODEL 6
REMARK VINA RESULT:      -7.7      4.029      6.793
REMARK  Name = 
REMARK  6 active torsions:
REMARK  status: ('A' for Active; 'I' for Inactive)
REMARK    1  A    between atoms: O_1  and  C_2
REMARK    2  A    between atoms: C_4  and  N_5
REMARK    3  A    between atoms: C_16  and  C_17
REMARK    4  A    between atoms: C_17  and  O_18
REMARK    5  A    between atoms: O_18  and  C_19
REMARK    6  A    between atoms: C_19  and  C_20
REMARK                            x       y       z     vdW  Elec       q    Type
REMARK                         _______ _______ _______ _____ _____    ______ ____
ROOT
ATOM      1  C   UNL     1       6.981   6.376  16.089  0.00  0.00    +0.000 C 
ATOM      2  C   UNL     1       5.566   5.947  16.372  0.00  0.00    +0.000 C 
ATOM      3  C   UNL     1       5.752   4.842  17.406  0.00  0.00    +0.000 C 
ATOM      4  O   UNL     1       6.965   5.137  18.124  0.00  0.00    +0.000 OA
ATOM      5  C   UNL     1       7.692   6.168  17.427  0.00  0.00    +0.000 C 
ENDROOT
BRANCH   3   6
ATOM      6  N   UNL     1       4.665   4.694  18.352  0.00  0.00    +0.000 N 
ATOM      7  C   UNL     1       4.326   5.595  19.332  0.00  0.00    +0.000 A 
ATOM      8  N   UNL     1       3.323   5.172  20.069  0.00  0.00    +0.000 NA
ATOM      9  C   UNL     1       2.996   3.935  19.549  0.00  0.00    +0.000 A 
ATOM     10  C   UNL     1       2.050   2.968  19.855  0.00  0.00    +0.000 A 
ATOM     11 CL   UNL     1       0.989   3.227  21.153  0.00  0.00    +0.000 Cl
ATOM     12  N   UNL     1       1.948   1.822  19.160  0.00  0.00    +0.000 NA
ATOM     13  C   UNL     1       2.821   1.655  18.149  0.00  0.00    +0.000 A 
ATOM     14  N   UNL     1       3.794   2.495  17.742  0.00  0.00    +0.000 NA
ATOM     15  C   UNL     1       3.829   3.615  18.485  0.00  0.00    +0.000 A 
ENDBRANCH   3   6
BRANCH   1  16
ATOM     16  O   UNL     1       7.522   5.500  15.101  0.00  0.00    +0.000 OA
ATOM     17  H   UNL     1       6.898   4.762  14.988  0.00  0.00    +0.000 HD
ENDBRANCH   1  16
BRANCH   5  18
ATOM     18  C   UNL     1       7.684   7.435  18.290  0.00  0.00    +0.000 C 
BRANCH  18  19
ATOM     19  O   UNL     1       8.459   8.457  17.662  0.00  0.00    +0.000 OA
BRANCH  19  20
ATOM     20  C   UNL     1       8.032   9.754  18.070  0.00  0.00    +0.000 C 
BRANCH  20  21
ATOM     21  C   UNL     1       9.198  10.511  18.642  0.00  0.00    +0.000 A 
ATOM     22  C   UNL     1      10.195  11.024  17.799  0.00  0.00    +0.000 A 
ATOM     23  C   UNL     1      11.263  11.751  18.326  0.00  0.00    +0.000 A 
ATOM     24  C   UNL     1      11.348  11.971  19.697  0.00  0.00    +0.000 A 
ATOM     25  C   UNL     1      10.368  11.457  20.548  0.00  0.00    +0.000 A 
ATOM     26  C   UNL     1       9.299  10.731  20.023  0.00  0.00    +0.000 A 
ENDBRANCH  20  21
ENDBRANCH  19  20
ENDBRANCH  18  19
ENDBRANCH   5  18
TORSDOF 6
ENDMDL
MODEL 7
REMARK VINA RESULT:      -7.6      4.140      6.784
REMARK  Name = 
REMARK  6 active torsions:
REMARK  status: ('A' for Active; 'I' for Inactive)
REMARK    1  A    between atoms: O_1  and  C_2
REMARK    2  A    between atoms: C_4  and  N_5
REMARK    3  A    between atoms: C_16  and  C_17
REMARK    4  A    between atoms: C_17  and  O_18
REMARK    5  A    between atoms: O_18  and  C_19
REMARK    6  A    between atoms: C_19  and  C_20
REMARK                            x       y       z     vdW  Elec       q    Type
REMARK                         _______ _______ _______ _____ _____    ______ ____
ROOT
ATOM      1  C   UNL     1       6.816   6.310  15.869  0.00  0.00    +0.000 C 
ATOM      2  C   UNL     1       5.500   5.665  16.213  0.00  0.00    +0.000 C 
ATOM      3  C   UNL     1       5.837   4.870  17.470  0.00  0.00    +0.000 C 
ATOM      4  O   UNL     1       6.916   5.561  18.128  0.00  0.00    +0.000 OA
ATOM      5  C   UNL     1       7.466   6.548  17.233  0.00  0.00    +0.000 C 
ENDROOT
BRANCH   3   6
ATOM      6  N   UNL     1       4.742   4.703  18.405  0.00  0.00    +0.000 N 
ATOM      7  C   UNL     1       4.395   5.585  19.399  0.00  0.00    +0.000 A 
ATOM      8  N   UNL     1       3.386   5.147  20.119  0.00  0.00    +0.000 NA
ATOM      9  C   UNL     1       3.064   3.919  19.573  0.00  0.00    +0.000 A 
ATOM     10  C   UNL     1       2.117   2.946  19.852  0.00  0.00    +0.000 A 
ATOM     11 CL   UNL     1       1.046   3.179  21.146  0.00  0.00    +0.000 Cl
ATOM     12  N   UNL     1       2.022   1.813  19.135  0.00  0.00    +0.000 NA
ATOM     13  C   UNL     1       2.904   1.667  18.128  0.00  0.00    +0.000 A 
ATOM     14  N   UNL     1       3.879   2.515  17.745  0.00  0.00    +0.000 NA
ATOM     15  C   UNL     1       3.907   3.621  18.510  0.00  0.00    +0.000 A 
ENDBRANCH   3   6
BRANCH   1  16
ATOM     16  O   UNL     1       7.586   5.378  15.112  0.00  0.00    +0.000 OA
ATOM     17  H   UNL     1       7.388   5.530  14.170  0.00  0.00    +0.000 HD
ENDBRANCH   1  16
BRANCH   5  18
ATOM     18  C   UNL     1       7.146   7.939  17.792  0.00  0.00    +0.000 C 
BRANCH  18  19
ATOM     19  O   UNL     1       8.205   8.845  17.477  0.00  0.00    +0.000 OA
BRANCH  19  20
ATOM     20  C   UNL     1       8.716   9.472  18.651  0.00  0.00    +0.000 C 
BRANCH  20  21
ATOM     21  C   UNL     1       9.297  10.811  18.293  0.00  0.00    +0.000 A 
ATOM     22  C   UNL     1      10.681  11.029  18.369  0.00  0.00    +0.000 A 
ATOM     23  C   UNL     1      11.225  12.262  18.010  0.00  0.00    +0.000 A 
ATOM     24  C   UNL     1      10.395  13.290  17.573  0.00  0.00    +0.000 A 
ATOM     25  C   UNL     1       9.015  13.090  17.503  0.00  0.00    +0.000 A 
ATOM     26  C   UNL     1       8.470  11.857  17.860  0.00  0.00    +0.000 A 
ENDBRANCH  20  21
ENDBRANCH  19  20
ENDBRANCH  18  19
ENDBRANCH   5  18
TORSDOF 6
ENDMDL
MODEL 8
REMARK VINA RESULT:      -7.6      2.909      5.538
REMARK  Name = 
REMARK  6 active torsions:
REMARK  status: ('A' for Active; 'I' for Inactive)
REMARK    1  A    between atoms: O_1  and  C_2
REMARK    2  A    between atoms: C_4  and  N_5
REMARK    3  A    between atoms: C_16  and  C_17
REMARK    4  A    between atoms: C_17  and  O_18
REMARK    5  A    between atoms: O_18  and  C_19
REMARK    6  A    between atoms: C_19  and  C_20
REMARK                            x       y       z     vdW  Elec       q    Type
REMARK                         _______ _______ _______ _____ _____    ______ ____
ROOT
ATOM      1  C   UNL     1       2.762   3.228  18.144  0.00  0.00    +0.000 C 
ATOM      2  C   UNL     1       1.850   4.411  18.331  0.00  0.00    +0.000 C 
ATOM      3  C   UNL     1       2.761   5.431  19.005  0.00  0.00    +0.000 C 
ATOM      4  O   UNL     1       4.104   5.149  18.567  0.00  0.00    +0.000 OA
ATOM      5  C   UNL     1       4.133   3.865  17.913  0.00  0.00    +0.000 C 
ENDROOT
BRANCH   3   6
ATOM      6  N   UNL     1       2.451   6.817  18.720  0.00  0.00    +0.000 N 
ATOM      7  C   UNL     1       2.765   7.487  17.562  0.00  0.00    +0.000 A 
ATOM      8  N   UNL     1       2.397   8.749  17.605  0.00  0.00    +0.000 NA
ATOM      9  C   UNL     1       1.821   8.911  18.850  0.00  0.00    +0.000 A 
ATOM     10  C   UNL     1       1.241   9.973  19.526  0.00  0.00    +0.000 A 
ATOM     11 CL   UNL     1       1.162  11.490  18.772  0.00  0.00    +0.000 Cl
ATOM     12  N   UNL     1       0.743   9.845  20.768  0.00  0.00    +0.000 NA
ATOM     13  C   UNL     1       0.842   8.626  21.330  0.00  0.00    +0.000 A 
ATOM     14  N   UNL     1       1.383   7.508  20.805  0.00  0.00    +0.000 NA
ATOM     15  C   UNL     1       1.856   7.719  19.564  0.00  0.00    +0.000 A 
ENDBRANCH   3   6
BRANCH   1  16
ATOM     16  O   UNL     1       2.766   2.472  19.354  0.00  0.00    +0.000 OA
ATOM     17  H   UNL     1       2.455   3.057  20.067  0.00  0.00    +0.000 HD
ENDBRANCH   1  16
BRANCH   5  18
ATOM     18  C   UNL     1       4.426   4.085  16.425  0.00  0.00    +0.000 C 
BRANCH  18  19
ATOM     19  O   UNL     1       5.693   3.517  16.089  0.00  0.00    +0.000 OA
BRANCH  19  20
ATOM     20  C   UNL     1       6.577   4.501  15.559  0.00  0.00    +0.000 C 
BRANCH  20  21
ATOM     21  C   UNL     1       7.124   5.341  16.679  0.00  0.00    +0.000 A 
ATOM     22  C   UNL     1       7.150   6.740  16.571  0.00  0.00    +0.000 A 
ATOM     23  C   UNL     1       7.630   7.523  17.621  0.00  0.00    +0.000 A 
ATOM     24  C   UNL     1       8.089   6.919  18.787  0.00  0.00    +0.000 A 
ATOM     25  C   UNL     1       8.078   5.529  18.904  0.00  0.00    +0.000 A 
ATOM     26  C   UNL     1       7.597   4.744  17.856  0.00  0.00    +0.000 A 
ENDBRANCH  20  21
ENDBRANCH  19  20
ENDBRANCH  18  19
ENDBRANCH   5  18
TORSDOF 6
ENDMDL
MODEL 9
REMARK VINA RESULT:      -7.5      3.794      6.404
REMARK  Name = 
REMARK  6 active torsions:
REMARK  status: ('A' for Active; 'I' for Inactive)
REMARK    1  A    between atoms: O_1  and  C_2
REMARK    2  A    between atoms: C_4  and  N_5
REMARK    3  A    between atoms: C_16  and  C_17
REMARK    4  A    between atoms: C_17  and  O_18
REMARK    5  A    between atoms: O_18  and  C_19
REMARK    6  A    between atoms: C_19  and  C_20
REMARK                            x       y       z     vdW  Elec       q    Type
REMARK                         _______ _______ _______ _____ _____    ______ ____
ROOT
ATOM      1  C   UNL     1       6.794   5.964  15.731  0.00  0.00    +0.000 C 
ATOM      2  C   UNL     1       5.457   5.282  15.847  0.00  0.00    +0.000 C 
ATOM      3  C   UNL     1       5.729   4.188  16.874  0.00  0.00    +0.000 C 
ATOM      4  O   UNL     1       6.786   4.667  17.728  0.00  0.00    +0.000 OA
ATOM      5  C   UNL     1       7.385   5.835  17.135  0.00  0.00    +0.000 C 
ENDROOT
BRANCH   3   6
ATOM      6  N   UNL     1       4.593   3.814  17.692  0.00  0.00    +0.000 N 
ATOM      7  C   UNL     1       4.072   2.549  17.809  0.00  0.00    +0.000 A 
ATOM      8  N   UNL     1       3.013   2.520  18.588  0.00  0.00    +0.000 NA
ATOM      9  C   UNL     1       2.832   3.828  18.993  0.00  0.00    +0.000 A 
ATOM     10  C   UNL     1       1.916   4.480  19.805  0.00  0.00    +0.000 A 
ATOM     11 CL   UNL     1       0.665   3.589  20.524  0.00  0.00    +0.000 Cl
ATOM     12  N   UNL     1       1.980   5.802  20.037  0.00  0.00    +0.000 NA
ATOM     13  C   UNL     1       2.981   6.469  19.432  0.00  0.00    +0.000 A 
ATOM     14  N   UNL     1       3.934   5.977  18.616  0.00  0.00    +0.000 NA
ATOM     15  C   UNL     1       3.802   4.651  18.435  0.00  0.00    +0.000 A 
ENDBRANCH   3   6
BRANCH   1  16
ATOM     16  O   UNL     1       7.586   5.237  14.793  0.00  0.00    +0.000 OA
ATOM     17  H   UNL     1       7.981   5.881  14.179  0.00  0.00    +0.000 HD
ENDBRANCH   1  16
BRANCH   5  18
ATOM     18  C   UNL     1       7.057   7.048  18.015  0.00  0.00    +0.000 C 
BRANCH  18  19
ATOM     19  O   UNL     1       8.225   7.852  18.190  0.00  0.00    +0.000 OA
BRANCH  19  20
ATOM     20  C   UNL     1       7.982   9.205  17.815  0.00  0.00    +0.000 C 
BRANCH  20  21
ATOM     21  C   UNL     1       8.999  10.099  18.469  0.00  0.00    +0.000 A 
ATOM     22  C   UNL     1       9.877  10.865  17.688  0.00  0.00    +0.000 A 
ATOM     23  C   UNL     1      10.803  11.716  18.293  0.00  0.00    +0.000 A 
ATOM     24  C   UNL     1      10.862  11.810  19.680  0.00  0.00    +0.000 A 
ATOM     25  C   UNL     1      10.000  11.046  20.468  0.00  0.00    +0.000 A 
ATOM     26  C   UNL     1       9.073  10.195  19.865  0.00  0.00    +0.000 A 
ENDBRANCH  20  21
ENDBRANCH  19  20
ENDBRANCH  18  19
ENDBRANCH   5  18
TORSDOF 6
ENDMDL
