MODEL 1
REMARK VINA RESULT:      -9.3      0.000      0.000
REMARK  Name = 
REMARK  6 active torsions:
REMARK  status: ('A' for Active; 'I' for Inactive)
REMARK    1  A    between atoms: C_2  and  C_26
REMARK    2  A    between atoms: N_3  and  C_4
REMARK    3  A    between atoms: C_4  and  C_5
REMARK    4  A    between atoms: C_4  and  C_15
REMARK    5  A    between atoms: C_5  and  C_6
REMARK    6  A    between atoms: C_17  and  C_18
REMARK                            x       y       z     vdW  Elec       q    Type
REMARK                         _______ _______ _______ _____ _____    ______ ____
ROOT
ATOM      1  C   UNL     1       7.110   6.784  17.642  0.00  0.00    +0.000 C 
ENDROOT
BRANCH   1   2
ATOM      2  C   UNL     1       7.628   8.190  17.826  0.00  0.00    +0.000 A 
ATOM      3  N   UNL     1       8.646   8.576  18.573  0.00  0.00    +0.000 NA
ATOM      4  C   UNL     1       8.760   9.933  18.384  0.00  0.00    +0.000 A 
ATOM      5  C   UNL     1       7.796  10.378  17.511  0.00  0.00    +0.000 A 
ATOM      6  N   UNL     1       7.094   9.264  17.156  0.00  0.00    +0.000 N 
ATOM      7  H   UNL     1       6.326   9.236  16.500  0.00  0.00    +0.000 HD
BRANCH   4   8
ATOM      8  C   UNL     1       9.805  10.743  18.975  0.00  0.00    +0.000 A 
ATOM      9  C   UNL     1      10.901  11.130  18.195  0.00  0.00    +0.000 A 
ATOM     10  C   UNL     1      11.901  11.942  18.733  0.00  0.00    +0.000 A 
ATOM     11  C   UNL     1      11.816  12.364  20.059  0.00  0.00    +0.000 A 
ATOM     12  C   UNL     1      10.734  11.976  20.847  0.00  0.00    +0.000 A 
ATOM     13  C   UNL     1       9.730  11.170  20.307  0.00  0.00    +0.000 A 
ENDBRANCH   4   8
ENDBRANCH   1   2
BRANCH   1  16
ATOM     14  N   UNL     1       7.965   4.124  16.608  0.00  0.00    +0.000 NA
ATOM     15  C   UNL     1       7.326   4.989  15.885  0.00  0.00    +0.000 C 
ATOM     16  N   UNL     1       7.199   6.309  16.254  0.00  0.00    +0.000 N 
ATOM     17  H   UNL     1       8.398   4.606  17.382  0.00  0.00    +0.000 HD
ATOM     18  H   UNL     1       6.649   6.888  15.617  0.00  0.00    +0.000 HD
BRANCH  15  19
ATOM     19  C   UNL     1       6.745   4.493  14.598  0.00  0.00    +0.000 A 
ATOM     20  C   UNL     1       7.520   4.567  13.427  0.00  0.00    +0.000 A 
ATOM     21  C   UNL     1       6.998   4.124  12.210  0.00  0.00    +0.000 A 
ATOM     22  C   UNL     1       5.710   3.608  12.168  0.00  0.00    +0.000 A 
ATOM     23  F   UNL     1       5.211   3.181  11.001  0.00  0.00    +0.000 F 
ATOM     24  C   UNL     1       4.928   3.525  13.313  0.00  0.00    +0.000 A 
ATOM     25  C   UNL     1       5.451   3.973  14.522  0.00  0.00    +0.000 A 
ATOM     26  F   UNL     1       4.672   3.892  15.613  0.00  0.00    +0.000 F 
ENDBRANCH  15  19
ENDBRANCH   1  16
BRANCH   1  27
ATOM     27  C   UNL     1       5.654   6.725  18.176  0.00  0.00    +0.000 C 
BRANCH  27  28
ATOM     28  C   UNL     1       5.196   5.358  18.600  0.00  0.00    +0.000 A 
ATOM     29  C   UNL     1       5.936   4.403  19.272  0.00  0.00    +0.000 A 
ATOM     30  N   UNL     1       5.156   3.288  19.429  0.00  0.00    +0.000 N 
ATOM     31  C   UNL     1       3.901   3.508  18.912  0.00  0.00    +0.000 A 
ATOM     32  C   UNL     1       2.785   2.663  18.862  0.00  0.00    +0.000 A 
ATOM     33  C   UNL     1       1.612   3.171  18.295  0.00  0.00    +0.000 A 
ATOM     34  C   UNL     1       1.561   4.471  17.801  0.00  0.00    +0.000 A 
ATOM     35  C   UNL     1       2.690   5.296  17.845  0.00  0.00    +0.000 A 
ATOM     36  C   UNL     1       3.887   4.808  18.407  0.00  0.00    +0.000 A 
ATOM     37  H   UNL     1       5.448   2.429  19.871  0.00  0.00    +0.000 HD
ENDBRANCH  27  28
ENDBRANCH   1  27
TORSDOF 6
ENDMDL
MODEL 2
REMARK VINA RESULT:      -9.3      0.819      1.453
REMARK  Name = 
REMARK  6 active torsions:
REMARK  status: ('A' for Active; 'I' for Inactive)
REMARK    1  A    between atoms: C_2  and  C_26
REMARK    2  A    between atoms: N_3  and  C_4
REMARK    3  A    between atoms: C_4  and  C_5
REMARK    4  A    between atoms: C_4  and  C_15
REMARK    5  A    between atoms: C_5  and  C_6
REMARK    6  A    between atoms: C_17  and  C_18
REMARK                            x       y       z     vdW  Elec       q    Type
REMARK                         _______ _______ _______ _____ _____    ______ ____
ROOT
ATOM      1  C   UNL     1       7.136   6.793  17.618  0.00  0.00    +0.000 C 
ENDROOT
BRANCH   1   2
ATOM      2  C   UNL     1       7.636   8.205  17.807  0.00  0.00    +0.000 A 
ATOM      3  N   UNL     1       8.659   8.600  18.542  0.00  0.00    +0.000 NA
ATOM      4  C   UNL     1       8.751   9.959  18.364  0.00  0.00    +0.000 A 
ATOM      5  C   UNL     1       7.768  10.399  17.509  0.00  0.00    +0.000 A 
ATOM      6  N   UNL     1       7.077   9.278  17.154  0.00  0.00    +0.000 N 
ATOM      7  H   UNL     1       6.300   9.244  16.510  0.00  0.00    +0.000 HD
BRANCH   4   8
ATOM      8  C   UNL     1       9.793  10.780  18.947  0.00  0.00    +0.000 A 
ATOM      9  C   UNL     1       9.692  11.174  20.286  0.00  0.00    +0.000 A 
ATOM     10  C   UNL     1      10.703  11.934  20.879  0.00  0.00    +0.000 A 
ATOM     11  C   UNL     1      11.816  12.313  20.131  0.00  0.00    +0.000 A 
ATOM     12  C   UNL     1      11.921  11.935  18.793  0.00  0.00    +0.000 A 
ATOM     13  C   UNL     1      10.915  11.170  18.203  0.00  0.00    +0.000 A 
ENDBRANCH   4   8
ENDBRANCH   1   2
BRANCH   1  16
ATOM     14  N   UNL     1       7.970   4.126  16.586  0.00  0.00    +0.000 NA
ATOM     15  C   UNL     1       7.353   5.002  15.857  0.00  0.00    +0.000 C 
ATOM     16  N   UNL     1       7.239   6.322  16.229  0.00  0.00    +0.000 N 
ATOM     17  H   UNL     1       8.398   4.599  17.368  0.00  0.00    +0.000 HD
ATOM     18  H   UNL     1       6.705   6.910  15.586  0.00  0.00    +0.000 HD
BRANCH  15  19
ATOM     19  C   UNL     1       6.784   4.518  14.560  0.00  0.00    +0.000 A 
ATOM     20  C   UNL     1       5.588   3.778  14.575  0.00  0.00    +0.000 A 
ATOM     21  C   UNL     1       5.042   3.302  13.382  0.00  0.00    +0.000 A 
ATOM     22  C   UNL     1       5.687   3.568  12.182  0.00  0.00    +0.000 A 
ATOM     23  F   UNL     1       5.162   3.113  11.037  0.00  0.00    +0.000 F 
ATOM     24  C   UNL     1       6.869   4.297  12.145  0.00  0.00    +0.000 A 
ATOM     25  C   UNL     1       7.413   4.765  13.338  0.00  0.00    +0.000 A 
ATOM     26  F   UNL     1       8.561   5.458  13.278  0.00  0.00    +0.000 F 
ENDBRANCH  15  19
ENDBRANCH   1  16
BRANCH   1  27
ATOM     27  C   UNL     1       5.678   6.717  18.144  0.00  0.00    +0.000 C 
BRANCH  27  28
ATOM     28  C   UNL     1       5.236   5.345  18.569  0.00  0.00    +0.000 A 
ATOM     29  C   UNL     1       5.981   4.407  19.258  0.00  0.00    +0.000 A 
ATOM     30  N   UNL     1       5.217   3.279  19.410  0.00  0.00    +0.000 N 
ATOM     31  C   UNL     1       3.967   3.475  18.872  0.00  0.00    +0.000 A 
ATOM     32  C   UNL     1       2.867   2.612  18.809  0.00  0.00    +0.000 A 
ATOM     33  C   UNL     1       1.695   3.096  18.221  0.00  0.00    +0.000 A 
ATOM     34  C   UNL     1       1.629   4.392  17.718  0.00  0.00    +0.000 A 
ATOM     35  C   UNL     1       2.744   5.236  17.775  0.00  0.00    +0.000 A 
ATOM     36  C   UNL     1       3.940   4.771  18.359  0.00  0.00    +0.000 A 
ATOM     37  H   UNL     1       5.517   2.428  19.862  0.00  0.00    +0.000 HD
ENDBRANCH  27  28
ENDBRANCH   1  27
TORSDOF 6
ENDMDL
MODEL 3
REMARK VINA RESULT:      -9.1      6.962     10.256
REMARK  Name = 
REMARK  6 active torsions:
REMARK  status: ('A' for Active; 'I' for Inactive)
REMARK    1  A    between atoms: C_2  and  C_26
REMARK    2  A    between atoms: N_3  and  C_4
REMARK    3  A    between atoms: C_4  and  C_5
REMARK    4  A    between atoms: C_4  and  C_15
REMARK    5  A    between atoms: C_5  and  C_6
REMARK    6  A    between atoms: C_17  and  C_18
REMARK                            x       y       z     vdW  Elec       q    Type
REMARK                         _______ _______ _______ _____ _____    ______ ____
ROOT
ATOM      1  C   UNL     1       0.722  10.405  18.781  0.00  0.00    +0.000 C 
ENDROOT
BRANCH   1   2
ATOM      2  C   UNL     1       1.460   9.090  18.845  0.00  0.00    +0.000 A 
ATOM      3  N   UNL     1       2.119   8.493  17.868  0.00  0.00    +0.000 NA
ATOM      4  C   UNL     1       2.656   7.352  18.416  0.00  0.00    +0.000 A 
ATOM      5  C   UNL     1       2.318   7.253  19.745  0.00  0.00    +0.000 A 
ATOM      6  N   UNL     1       1.572   8.364  20.007  0.00  0.00    +0.000 N 
ATOM      7  H   UNL     1       1.185   8.615  20.906  0.00  0.00    +0.000 HD
BRANCH   4   8
ATOM      8  C   UNL     1       3.517   6.439  17.692  0.00  0.00    +0.000 A 
ATOM      9  C   UNL     1       3.291   5.061  17.785  0.00  0.00    +0.000 A 
ATOM     10  C   UNL     1       4.086   4.165  17.066  0.00  0.00    +0.000 A 
ATOM     11  C   UNL     1       5.117   4.642  16.259  0.00  0.00    +0.000 A 
ATOM     12  C   UNL     1       5.356   6.012  16.169  0.00  0.00    +0.000 A 
ATOM     13  C   UNL     1       4.558   6.909  16.881  0.00  0.00    +0.000 A 
ENDBRANCH   4   8
ENDBRANCH   1   2
BRANCH   1  16
ATOM     14  N   UNL     1       2.675  12.037  17.233  0.00  0.00    +0.000 NA
ATOM     15  C   UNL     1       2.188  12.415  18.372  0.00  0.00    +0.000 C 
ATOM     16  N   UNL     1       1.535  11.549  19.219  0.00  0.00    +0.000 N 
ATOM     17  H   UNL     1       2.571  11.036  17.151  0.00  0.00    +0.000 HD
ATOM     18  H   UNL     1       1.170  11.970  20.075  0.00  0.00    +0.000 HD
BRANCH  15  19
ATOM     19  C   UNL     1       2.390  13.850  18.748  0.00  0.00    +0.000 A 
ATOM     20  C   UNL     1       3.694  14.311  18.997  0.00  0.00    +0.000 A 
ATOM     21  C   UNL     1       3.911  15.641  19.363  0.00  0.00    +0.000 A 
ATOM     22  C   UNL     1       2.829  16.503  19.475  0.00  0.00    +0.000 A 
ATOM     23  F   UNL     1       3.038  17.779  19.824  0.00  0.00    +0.000 F 
ATOM     24  C   UNL     1       1.532  16.068  19.234  0.00  0.00    +0.000 A 
ATOM     25  C   UNL     1       1.321  14.740  18.874  0.00  0.00    +0.000 A 
ATOM     26  F   UNL     1       0.058  14.340  18.657  0.00  0.00    +0.000 F 
ENDBRANCH  15  19
ENDBRANCH   1  16
BRANCH   1  27
ATOM     27  C   UNL     1      -0.582  10.275  19.612  0.00  0.00    +0.000 C 
BRANCH  27  28
ATOM     28  C   UNL     1      -1.776  10.966  19.017  0.00  0.00    +0.000 A 
ATOM     29  C   UNL     1      -2.497  12.007  19.569  0.00  0.00    +0.000 A 
ATOM     30  N   UNL     1      -3.527  12.314  18.720  0.00  0.00    +0.000 N 
ATOM     31  C   UNL     1      -3.469  11.524  17.596  0.00  0.00    +0.000 A 
ATOM     32  C   UNL     1      -4.300  11.496  16.469  0.00  0.00    +0.000 A 
ATOM     33  C   UNL     1      -3.981  10.594  15.450  0.00  0.00    +0.000 A 
ATOM     34  C   UNL     1      -2.874   9.757  15.556  0.00  0.00    +0.000 A 
ATOM     35  C   UNL     1      -2.064   9.787  16.696  0.00  0.00    +0.000 A 
ATOM     36  C   UNL     1      -2.366  10.684  17.741  0.00  0.00    +0.000 A 
ATOM     37  H   UNL     1      -4.224  13.027  18.881  0.00  0.00    +0.000 HD
ENDBRANCH  27  28
ENDBRANCH   1  27
TORSDOF 6
ENDMDL
MODEL 4
REMARK VINA RESULT:      -8.9      6.973     10.337
REMARK  Name = 
REMARK  6 active torsions:
REMARK  status: ('A' for Active; 'I' for Inactive)
REMARK    1  A    between atoms: C_2  and  C_26
REMARK    2  A    between atoms: N_3  and  C_4
REMARK    3  A    between atoms: C_4  and  C_5
REMARK    4  A    between atoms: C_4  and  C_15
REMARK    5  A    between atoms: C_5  and  C_6
REMARK    6  A    between atoms: C_17  and  C_18
REMARK                            x       y       z     vdW  Elec       q    Type
REMARK                         _______ _______ _______ _____ _____    ______ ____
ROOT
ATOM      1  C   UNL     1       0.696  10.549  18.917  0.00  0.00    +0.000 C 
ENDROOT
BRANCH   1   2
ATOM      2  C   UNL     1       1.393   9.212  18.982  0.00  0.00    +0.000 A 
ATOM      3  N   UNL     1       2.041   8.598  18.009  0.00  0.00    +0.000 NA
ATOM      4  C   UNL     1       2.538   7.440  18.557  0.00  0.00    +0.000 A 
ATOM      5  C   UNL     1       2.186   7.346  19.883  0.00  0.00    +0.000 A 
ATOM      6  N   UNL     1       1.473   8.479  20.143  0.00  0.00    +0.000 N 
ATOM      7  H   UNL     1       1.086   8.738  21.039  0.00  0.00    +0.000 HD
BRANCH   4   8
ATOM      8  C   UNL     1       3.377   6.503  17.837  0.00  0.00    +0.000 A 
ATOM      9  C   UNL     1       3.078   5.136  17.881  0.00  0.00    +0.000 A 
ATOM     10  C   UNL     1       3.851   4.219  17.165  0.00  0.00    +0.000 A 
ATOM     11  C   UNL     1       4.933   4.664  16.409  0.00  0.00    +0.000 A 
ATOM     12  C   UNL     1       5.245   6.022  16.366  0.00  0.00    +0.000 A 
ATOM     13  C   UNL     1       4.469   6.939  17.076  0.00  0.00    +0.000 A 
ENDBRANCH   4   8
ENDBRANCH   1   2
BRANCH   1  16
ATOM     14  N   UNL     1       2.560  12.213  17.294  0.00  0.00    +0.000 NA
ATOM     15  C   UNL     1       2.155  12.557  18.476  0.00  0.00    +0.000 C 
ATOM     16  N   UNL     1       1.550  11.670  19.336  0.00  0.00    +0.000 N 
ATOM     17  H   UNL     1       2.439  11.216  17.188  0.00  0.00    +0.000 HD
ATOM     18  H   UNL     1       1.248  12.066  20.228  0.00  0.00    +0.000 HD
BRANCH  15  19
ATOM     19  C   UNL     1       2.399  13.977  18.884  0.00  0.00    +0.000 A 
ATOM     20  C   UNL     1       1.368  14.688  19.522  0.00  0.00    +0.000 A 
ATOM     21  C   UNL     1       1.564  16.018  19.902  0.00  0.00    +0.000 A 
ATOM     22  C   UNL     1       2.784  16.628  19.645  0.00  0.00    +0.000 A 
ATOM     23  F   UNL     1       2.971  17.903  20.010  0.00  0.00    +0.000 F 
ATOM     24  C   UNL     1       3.815  15.943  19.015  0.00  0.00    +0.000 A 
ATOM     25  C   UNL     1       3.613  14.620  18.635  0.00  0.00    +0.000 A 
ATOM     26  F   UNL     1       4.621  13.982  18.018  0.00  0.00    +0.000 F 
ENDBRANCH  15  19
ENDBRANCH   1  16
BRANCH   1  27
ATOM     27  C   UNL     1      -0.601  10.466  19.765  0.00  0.00    +0.000 C 
BRANCH  27  28
ATOM     28  C   UNL     1      -1.805  11.103  19.131  0.00  0.00    +0.000 A 
ATOM     29  C   UNL     1      -2.568  12.136  19.643  0.00  0.00    +0.000 A 
ATOM     30  N   UNL     1      -3.592  12.388  18.768  0.00  0.00    +0.000 N 
ATOM     31  C   UNL     1      -3.490  11.570  17.668  0.00  0.00    +0.000 A 
ATOM     32  C   UNL     1      -4.301  11.486  16.529  0.00  0.00    +0.000 A 
ATOM     33  C   UNL     1      -3.936  10.567  15.540  0.00  0.00    +0.000 A 
ATOM     34  C   UNL     1      -2.806   9.768  15.687  0.00  0.00    +0.000 A 
ATOM     35  C   UNL     1      -2.017   9.855  16.839  0.00  0.00    +0.000 A 
ATOM     36  C   UNL     1      -2.364  10.770  17.854  0.00  0.00    +0.000 A 
ATOM     37  H   UNL     1      -4.313  13.083  18.899  0.00  0.00    +0.000 HD
ENDBRANCH  27  28
ENDBRANCH   1  27
TORSDOF 6
ENDMDL
MODEL 5
REMARK VINA RESULT:      -8.8      2.036      5.320
REMARK  Name = 
REMARK  6 active torsions:
REMARK  status: ('A' for Active; 'I' for Inactive)
REMARK    1  A    between atoms: C_2  and  C_26
REMARK    2  A    between atoms: N_3  and  C_4
REMARK    3  A    between atoms: C_4  and  C_5
REMARK    4  A    between atoms: C_4  and  C_15
REMARK    5  A    between atoms: C_5  and  C_6
REMARK    6  A    between atoms: C_17  and  C_18
REMARK                            x       y       z     vdW  Elec       q    Type
REMARK                         _______ _______ _______ _____ _____    ______ ____
ROOT
ATOM      1  C   UNL     1       6.490   6.592  17.266  0.00  0.00    +0.000 C 
ENDROOT
BRANCH   1   2
ATOM      2  C   UNL     1       7.430   7.660  17.771  0.00  0.00    +0.000 A 
ATOM      3  N   UNL     1       7.512   8.913  17.363  0.00  0.00    +0.000 NA
ATOM      4  C   UNL     1       8.475   9.504  18.145  0.00  0.00    +0.000 A 
ATOM      5  C   UNL     1       8.988   8.596  19.041  0.00  0.00    +0.000 A 
ATOM      6  N   UNL     1       8.310   7.437  18.803  0.00  0.00    +0.000 N 
ATOM      7  H   UNL     1       8.427   6.572  19.311  0.00  0.00    +0.000 HD
BRANCH   4   8
ATOM      8  C   UNL     1       8.828  10.906  18.067  0.00  0.00    +0.000 A 
ATOM      9  C   UNL     1      10.093  11.324  18.498  0.00  0.00    +0.000 A 
ATOM     10  C   UNL     1      10.467  12.665  18.397  0.00  0.00    +0.000 A 
ATOM     11  C   UNL     1       9.574  13.599  17.874  0.00  0.00    +0.000 A 
ATOM     12  C   UNL     1       8.309  13.195  17.452  0.00  0.00    +0.000 A 
ATOM     13  C   UNL     1       7.937  11.853  17.546  0.00  0.00    +0.000 A 
ENDBRANCH   4   8
ENDBRANCH   1   2
BRANCH   1  16
ATOM     14  N   UNL     1       3.634   7.438  17.344  0.00  0.00    +0.000 NA
ATOM     15  C   UNL     1       4.093   6.440  18.032  0.00  0.00    +0.000 C 
ATOM     16  N   UNL     1       5.439   6.239  18.232  0.00  0.00    +0.000 N 
ATOM     17  H   UNL     1       4.405   8.040  17.092  0.00  0.00    +0.000 HD
ATOM     18  H   UNL     1       5.679   5.402  18.766  0.00  0.00    +0.000 HD
BRANCH  15  19
ATOM     19  C   UNL     1       3.081   5.516  18.633  0.00  0.00    +0.000 A 
ATOM     20  C   UNL     1       2.599   5.781  19.926  0.00  0.00    +0.000 A 
ATOM     21  C   UNL     1       1.665   4.927  20.517  0.00  0.00    +0.000 A 
ATOM     22  C   UNL     1       1.215   3.818  19.814  0.00  0.00    +0.000 A 
ATOM     23  F   UNL     1       0.317   3.001  20.381  0.00  0.00    +0.000 F 
ATOM     24  C   UNL     1       1.677   3.538  18.535  0.00  0.00    +0.000 A 
ATOM     25  C   UNL     1       2.612   4.389  17.953  0.00  0.00    +0.000 A 
ATOM     26  F   UNL     1       3.052   4.091  16.720  0.00  0.00    +0.000 F 
ENDBRANCH  15  19
ENDBRANCH   1  16
BRANCH   1  27
ATOM     27  C   UNL     1       7.331   5.355  16.854  0.00  0.00    +0.000 C 
BRANCH  27  28
ATOM     28  C   UNL     1       6.739   4.536  15.742  0.00  0.00    +0.000 A 
ATOM     29  C   UNL     1       5.802   3.527  15.859  0.00  0.00    +0.000 A 
ATOM     30  N   UNL     1       5.563   3.017  14.610  0.00  0.00    +0.000 N 
ATOM     31  C   UNL     1       6.292   3.703  13.668  0.00  0.00    +0.000 A 
ATOM     32  C   UNL     1       6.353   3.537  12.279  0.00  0.00    +0.000 A 
ATOM     33  C   UNL     1       7.172   4.411  11.557  0.00  0.00    +0.000 A 
ATOM     34  C   UNL     1       7.897   5.409  12.201  0.00  0.00    +0.000 A 
ATOM     35  C   UNL     1       7.835   5.550  13.591  0.00  0.00    +0.000 A 
ATOM     36  C   UNL     1       7.021   4.679  14.344  0.00  0.00    +0.000 A 
ATOM     37  H   UNL     1       4.932   2.256  14.402  0.00  0.00    +0.000 HD
ENDBRANCH  27  28
ENDBRANCH   1  27
TORSDOF 6
ENDMDL
MODEL 6
REMARK VINA RESULT:      -8.7      7.062     10.566
REMARK  Name = 
REMARK  6 active torsions:
REMARK  status: ('A' for Active; 'I' for Inactive)
REMARK    1  A    between atoms: C_2  and  C_26
REMARK    2  A    between atoms: N_3  and  C_4
REMARK    3  A    between atoms: C_4  and  C_5
REMARK    4  A    between atoms: C_4  and  C_15
REMARK    5  A    between atoms: C_5  and  C_6
REMARK    6  A    between atoms: C_17  and  C_18
REMARK                            x       y       z     vdW  Elec       q    Type
REMARK                         _______ _______ _______ _____ _____    ______ ____
ROOT
ATOM      1  C   UNL     1       0.803  10.531  18.752  0.00  0.00    +0.000 C 
ENDROOT
BRANCH   1   2
ATOM      2  C   UNL     1       1.601   9.252  18.684  0.00  0.00    +0.000 A 
ATOM      3  N   UNL     1       1.496   8.199  19.474  0.00  0.00    +0.000 NA
ATOM      4  C   UNL     1       2.392   7.274  18.994  0.00  0.00    +0.000 A 
ATOM      5  C   UNL     1       3.054   7.773  17.896  0.00  0.00    +0.000 A 
ATOM      6  N   UNL     1       2.536   9.019  17.703  0.00  0.00    +0.000 N 
ATOM      7  H   UNL     1       2.787   9.652  16.957  0.00  0.00    +0.000 HD
BRANCH   4   8
ATOM      8  C   UNL     1       2.545   5.941  19.540  0.00  0.00    +0.000 A 
ATOM      9  C   UNL     1       3.523   5.089  19.014  0.00  0.00    +0.000 A 
ATOM     10  C   UNL     1       3.712   3.813  19.550  0.00  0.00    +0.000 A 
ATOM     11  C   UNL     1       2.916   3.379  20.608  0.00  0.00    +0.000 A 
ATOM     12  C   UNL     1       1.932   4.216  21.132  0.00  0.00    +0.000 A 
ATOM     13  C   UNL     1       1.748   5.493  20.601  0.00  0.00    +0.000 A 
ENDBRANCH   4   8
ENDBRANCH   1   2
BRANCH   1  16
ATOM     14  N   UNL     1       2.690  12.369  17.361  0.00  0.00    +0.000 NA
ATOM     15  C   UNL     1       2.186  12.626  18.527  0.00  0.00    +0.000 C 
ATOM     16  N   UNL     1       1.568  11.665  19.292  0.00  0.00    +0.000 N 
ATOM     17  H   UNL     1       2.627  11.376  17.193  0.00  0.00    +0.000 HD
ATOM     18  H   UNL     1       1.184  11.995  20.179  0.00  0.00    +0.000 HD
BRANCH  15  19
ATOM     19  C   UNL     1       2.329  14.030  19.026  0.00  0.00    +0.000 A 
ATOM     20  C   UNL     1       3.613  14.520  19.323  0.00  0.00    +0.000 A 
ATOM     21  C   UNL     1       3.775  15.821  19.804  0.00  0.00    +0.000 A 
ATOM     22  C   UNL     1       2.658  16.626  19.983  0.00  0.00    +0.000 A 
ATOM     23  F   UNL     1       2.814  17.874  20.443  0.00  0.00    +0.000 F 
ATOM     24  C   UNL     1       1.380  16.161  19.697  0.00  0.00    +0.000 A 
ATOM     25  C   UNL     1       1.224  14.862  19.223  0.00  0.00    +0.000 A 
ATOM     26  F   UNL     1      -0.021  14.433  18.963  0.00  0.00    +0.000 F 
ENDBRANCH  15  19
ENDBRANCH   1  16
BRANCH   1  27
ATOM     27  C   UNL     1      -0.483  10.261  19.577  0.00  0.00    +0.000 C 
BRANCH  27  28
ATOM     28  C   UNL     1      -1.717  10.942  19.055  0.00  0.00    +0.000 A 
ATOM     29  C   UNL     1      -2.445  11.938  19.678  0.00  0.00    +0.000 A 
ATOM     30  N   UNL     1      -3.514  12.252  18.880  0.00  0.00    +0.000 N 
ATOM     31  C   UNL     1      -3.476  11.513  17.722  0.00  0.00    +0.000 A 
ATOM     32  C   UNL     1      -4.347  11.509  16.625  0.00  0.00    +0.000 A 
ATOM     33  C   UNL     1      -4.041  10.661  15.556  0.00  0.00    +0.000 A 
ATOM     34  C   UNL     1      -2.909   9.852  15.586  0.00  0.00    +0.000 A 
ATOM     35  C   UNL     1      -2.058   9.857  16.697  0.00  0.00    +0.000 A 
ATOM     36  C   UNL     1      -2.346  10.699  17.791  0.00  0.00    +0.000 A 
ATOM     37  H   UNL     1      -4.223  12.937  19.097  0.00  0.00    +0.000 HD
ENDBRANCH  27  28
ENDBRANCH   1  27
TORSDOF 6
ENDMDL
MODEL 7
REMARK VINA RESULT:      -8.6      2.599      5.336
REMARK  Name = 
REMARK  6 active torsions:
REMARK  status: ('A' for Active; 'I' for Inactive)
REMARK    1  A    between atoms: C_2  and  C_26
REMARK    2  A    between atoms: N_3  and  C_4
REMARK    3  A    between atoms: C_4  and  C_5
REMARK    4  A    between atoms: C_4  and  C_15
REMARK    5  A    between atoms: C_5  and  C_6
REMARK    6  A    between atoms: C_17  and  C_18
REMARK                            x       y       z     vdW  Elec       q    Type
REMARK                         _______ _______ _______ _____ _____    ______ ____
ROOT
ATOM      1  C   UNL     1       6.521   6.740  17.263  0.00  0.00    +0.000 C 
ENDROOT
BRANCH   1   2
ATOM      2  C   UNL     1       7.464   7.801  17.776  0.00  0.00    +0.000 A 
ATOM      3  N   UNL     1       7.539   9.061  17.388  0.00  0.00    +0.000 NA
ATOM      4  C   UNL     1       8.509   9.641  18.171  0.00  0.00    +0.000 A 
ATOM      5  C   UNL     1       9.033   8.719  19.047  0.00  0.00    +0.000 A 
ATOM      6  N   UNL     1       8.355   7.563  18.796  0.00  0.00    +0.000 N 
ATOM      7  H   UNL     1       8.477   6.690  19.288  0.00  0.00    +0.000 HD
BRANCH   4   8
ATOM      8  C   UNL     1       8.858  11.045  18.112  0.00  0.00    +0.000 A 
ATOM      9  C   UNL     1      10.090  11.471  18.623  0.00  0.00    +0.000 A 
ATOM     10  C   UNL     1      10.463  12.814  18.544  0.00  0.00    +0.000 A 
ATOM     11  C   UNL     1       9.600  13.742  17.963  0.00  0.00    +0.000 A 
ATOM     12  C   UNL     1       8.367  13.330  17.460  0.00  0.00    +0.000 A 
ATOM     13  C   UNL     1       7.997  11.987  17.533  0.00  0.00    +0.000 A 
ENDBRANCH   4   8
ENDBRANCH   1   2
BRANCH   1  16
ATOM     14  N   UNL     1       3.624   7.428  17.177  0.00  0.00    +0.000 NA
ATOM     15  C   UNL     1       4.108   6.511  17.953  0.00  0.00    +0.000 C 
ATOM     16  N   UNL     1       5.454   6.400  18.215  0.00  0.00    +0.000 N 
ATOM     17  H   UNL     1       4.371   8.052  16.907  0.00  0.00    +0.000 HD
ATOM     18  H   UNL     1       5.717   5.620  18.819  0.00  0.00    +0.000 HD
BRANCH  15  19
ATOM     19  C   UNL     1       3.124   5.578  18.587  0.00  0.00    +0.000 A 
ATOM     20  C   UNL     1       2.924   4.308  18.016  0.00  0.00    +0.000 A 
ATOM     21  C   UNL     1       2.002   3.423  18.578  0.00  0.00    +0.000 A 
ATOM     22  C   UNL     1       1.288   3.805  19.705  0.00  0.00    +0.000 A 
ATOM     23  F   UNL     1       0.405   2.955  20.244  0.00  0.00    +0.000 F 
ATOM     24  C   UNL     1       1.470   5.055  20.285  0.00  0.00    +0.000 A 
ATOM     25  C   UNL     1       2.387   5.936  19.718  0.00  0.00    +0.000 A 
ATOM     26  F   UNL     1       2.537   7.141  20.290  0.00  0.00    +0.000 F 
ENDBRANCH  15  19
ENDBRANCH   1  16
BRANCH   1  27
ATOM     27  C   UNL     1       7.357   5.494  16.867  0.00  0.00    +0.000 C 
BRANCH  27  28
ATOM     28  C   UNL     1       6.743   4.643  15.791  0.00  0.00    +0.000 A 
ATOM     29  C   UNL     1       5.792   3.653  15.953  0.00  0.00    +0.000 A 
ATOM     30  N   UNL     1       5.535   3.100  14.726  0.00  0.00    +0.000 N 
ATOM     31  C   UNL     1       6.267   3.739  13.753  0.00  0.00    +0.000 A 
ATOM     32  C   UNL     1       6.314   3.521  12.371  0.00  0.00    +0.000 A 
ATOM     33  C   UNL     1       7.140   4.355  11.610  0.00  0.00    +0.000 A 
ATOM     34  C   UNL     1       7.885   5.365  12.211  0.00  0.00    +0.000 A 
ATOM     35  C   UNL     1       7.837   5.559  13.596  0.00  0.00    +0.000 A 
ATOM     36  C   UNL     1       7.016   4.730  14.387  0.00  0.00    +0.000 A 
ATOM     37  H   UNL     1       4.892   2.342  14.551  0.00  0.00    +0.000 HD
ENDBRANCH  27  28
ENDBRANCH   1  27
TORSDOF 6
ENDMDL
MODEL 8
REMARK VINA RESULT:      -8.6      2.246      5.490
REMARK  Name = 
REMARK  6 active torsions:
REMARK  status: ('A' for Active; 'I' for Inactive)
REMARK    1  A    between atoms: C_2  and  C_26
REMARK    2  A    between atoms: N_3  and  C_4
REMARK    3  A    between atoms: C_4  and  C_5
REMARK    4  A    between atoms: C_4  and  C_15
REMARK    5  A    between atoms: C_5  and  C_6
REMARK    6  A    between atoms: C_17  and  C_18
REMARK                            x       y       z     vdW  Elec       q    Type
REMARK                         _______ _______ _______ _____ _____    ______ ____
ROOT
ATOM      1  C   UNL     1       6.493   6.544  17.493  0.00  0.00    +0.000 C 
ENDROOT
BRANCH   1   2
ATOM      2  C   UNL     1       7.449   7.644  17.887  0.00  0.00    +0.000 A 
ATOM      3  N   UNL     1       7.513   8.865  17.390  0.00  0.00    +0.000 NA
ATOM      4  C   UNL     1       8.504   9.508  18.092  0.00  0.00    +0.000 A 
ATOM      5  C   UNL     1       9.053   8.664  19.029  0.00  0.00    +0.000 A 
ATOM      6  N   UNL     1       8.369   7.492  18.897  0.00  0.00    +0.000 N 
ATOM      7  H   UNL     1       8.506   6.664  19.459  0.00  0.00    +0.000 HD
BRANCH   4   8
ATOM      8  C   UNL     1       8.851  10.902  17.903  0.00  0.00    +0.000 A 
ATOM      9  C   UNL     1       7.849  11.824  17.580  0.00  0.00    +0.000 A 
ATOM     10  C   UNL     1       8.155  13.178  17.430  0.00  0.00    +0.000 A 
ATOM     11  C   UNL     1       9.468  13.616  17.593  0.00  0.00    +0.000 A 
ATOM     12  C   UNL     1      10.475  12.705  17.905  0.00  0.00    +0.000 A 
ATOM     13  C   UNL     1      10.168  11.352  18.061  0.00  0.00    +0.000 A 
ENDBRANCH   4   8
ENDBRANCH   1   2
BRANCH   1  16
ATOM     14  N   UNL     1       3.528   6.801  17.626  0.00  0.00    +0.000 NA
ATOM     15  C   UNL     1       4.207   6.051  18.435  0.00  0.00    +0.000 C 
ATOM     16  N   UNL     1       5.572   6.161  18.573  0.00  0.00    +0.000 N 
ATOM     17  H   UNL     1       4.147   7.492  17.228  0.00  0.00    +0.000 HD
ATOM     18  H   UNL     1       5.999   5.495  19.220  0.00  0.00    +0.000 HD
BRANCH  15  19
ATOM     19  C   UNL     1       3.431   5.061  19.247  0.00  0.00    +0.000 A 
ATOM     20  C   UNL     1       2.174   5.433  19.755  0.00  0.00    +0.000 A 
ATOM     21  C   UNL     1       1.434   4.535  20.527  0.00  0.00    +0.000 A 
ATOM     22  C   UNL     1       1.950   3.272  20.785  0.00  0.00    +0.000 A 
ATOM     23  F   UNL     1       1.239   2.411  21.524  0.00  0.00    +0.000 F 
ATOM     24  C   UNL     1       3.189   2.884  20.293  0.00  0.00    +0.000 A 
ATOM     25  C   UNL     1       3.925   3.785  19.528  0.00  0.00    +0.000 A 
ATOM     26  F   UNL     1       5.124   3.391  19.072  0.00  0.00    +0.000 F 
ENDBRANCH  15  19
ENDBRANCH   1  16
BRANCH   1  27
ATOM     27  C   UNL     1       7.321   5.333  16.988  0.00  0.00    +0.000 C 
BRANCH  27  28
ATOM     28  C   UNL     1       6.691   4.570  15.857  0.00  0.00    +0.000 A 
ATOM     29  C   UNL     1       5.683   3.629  15.948  0.00  0.00    +0.000 A 
ATOM     30  N   UNL     1       5.428   3.150  14.689  0.00  0.00    +0.000 N 
ATOM     31  C   UNL     1       6.220   3.793  13.767  0.00  0.00    +0.000 A 
ATOM     32  C   UNL     1       6.292   3.638  12.377  0.00  0.00    +0.000 A 
ATOM     33  C   UNL     1       7.182   4.460  11.678  0.00  0.00    +0.000 A 
ATOM     34  C   UNL     1       7.965   5.397  12.345  0.00  0.00    +0.000 A 
ATOM     35  C   UNL     1       7.891   5.527  13.736  0.00  0.00    +0.000 A 
ATOM     36  C   UNL     1       7.005   4.708  14.466  0.00  0.00    +0.000 A 
ATOM     37  H   UNL     1       4.749   2.439  14.462  0.00  0.00    +0.000 HD
ENDBRANCH  27  28
ENDBRANCH   1  27
TORSDOF 6
ENDMDL
MODEL 9
REMARK VINA RESULT:      -8.6      4.701      7.665
REMARK  Name = 
REMARK  6 active torsions:
REMARK  status: ('A' for Active; 'I' for Inactive)
REMARK    1  A    between atoms: C_2  and  C_26
REMARK    2  A    between atoms: N_3  and  C_4
REMARK    3  A    between atoms: C_4  and  C_5
REMARK    4  A    between atoms: C_4  and  C_15
REMARK    5  A    between atoms: C_5  and  C_6
REMARK    6  A    between atoms: C_17  and  C_18
REMARK                            x       y       z     vdW  Elec       q    Type
REMARK                         _______ _______ _______ _____ _____    ______ ____
ROOT
ATOM      1  C   UNL     1       2.481   7.660  17.967  0.00  0.00    +0.000 C 
ENDROOT
BRANCH   1   2
ATOM      2  C   UNL     1       1.700   8.843  18.486  0.00  0.00    +0.000 A 
ATOM      3  N   UNL     1       1.005   8.914  19.606  0.00  0.00    +0.000 NA
ATOM      4  C   UNL     1       0.514  10.196  19.667  0.00  0.00    +0.000 A 
ATOM      5  C   UNL     1       0.916  10.916  18.566  0.00  0.00    +0.000 A 
ATOM      6  N   UNL     1       1.676  10.053  17.833  0.00  0.00    +0.000 N 
ATOM      7  H   UNL     1       2.150  10.273  16.970  0.00  0.00    +0.000 HD
BRANCH   4   8
ATOM      8  C   UNL     1      -0.252  10.713  20.782  0.00  0.00    +0.000 A 
ATOM      9  C   UNL     1      -0.238  10.031  22.004  0.00  0.00    +0.000 A 
ATOM     10  C   UNL     1      -0.940  10.532  23.103  0.00  0.00    +0.000 A 
ATOM     11  C   UNL     1      -1.669  11.714  22.981  0.00  0.00    +0.000 A 
ATOM     12  C   UNL     1      -1.698  12.396  21.766  0.00  0.00    +0.000 A 
ATOM     13  C   UNL     1      -0.991  11.899  20.670  0.00  0.00    +0.000 A 
ENDBRANCH   4   8
ENDBRANCH   1   2
BRANCH   1  16
ATOM     14  N   UNL     1       1.479   4.871  17.663  0.00  0.00    +0.000 NA
ATOM     15  C   UNL     1       2.314   5.223  18.589  0.00  0.00    +0.000 C 
ATOM     16  N   UNL     1       2.540   6.540  18.917  0.00  0.00    +0.000 N 
ATOM     17  H   UNL     1       0.998   5.694  17.331  0.00  0.00    +0.000 HD
ATOM     18  H   UNL     1       3.242   6.693  19.643  0.00  0.00    +0.000 HD
BRANCH  15  19
ATOM     19  C   UNL     1       3.015   4.120  19.318  0.00  0.00    +0.000 A 
ATOM     20  C   UNL     1       4.151   3.532  18.735  0.00  0.00    +0.000 A 
ATOM     21  C   UNL     1       4.816   2.491  19.387  0.00  0.00    +0.000 A 
ATOM     22  C   UNL     1       4.347   2.045  20.615  0.00  0.00    +0.000 A 
ATOM     23  F   UNL     1       4.986   1.048  21.240  0.00  0.00    +0.000 F 
ATOM     24  C   UNL     1       3.226   2.612  21.209  0.00  0.00    +0.000 A 
ATOM     25  C   UNL     1       2.564   3.646  20.553  0.00  0.00    +0.000 A 
ATOM     26  F   UNL     1       1.477   4.170  21.141  0.00  0.00    +0.000 F 
ENDBRANCH  15  19
ENDBRANCH   1  16
BRANCH   1  27
ATOM     27  C   UNL     1       3.899   8.148  17.565  0.00  0.00    +0.000 C 
BRANCH  27  28
ATOM     28  C   UNL     1       4.722   7.136  16.820  0.00  0.00    +0.000 A 
ATOM     29  C   UNL     1       4.633   6.814  15.479  0.00  0.00    +0.000 A 
ATOM     30  N   UNL     1       5.536   5.817  15.216  0.00  0.00    +0.000 N 
ATOM     31  C   UNL     1       6.249   5.510  16.351  0.00  0.00    +0.000 A 
ATOM     32  C   UNL     1       7.272   4.573  16.547  0.00  0.00    +0.000 A 
ATOM     33  C   UNL     1       7.845   4.495  17.820  0.00  0.00    +0.000 A 
ATOM     34  C   UNL     1       7.411   5.322  18.852  0.00  0.00    +0.000 A 
ATOM     35  C   UNL     1       6.378   6.242  18.642  0.00  0.00    +0.000 A 
ATOM     36  C   UNL     1       5.779   6.338  17.369  0.00  0.00    +0.000 A 
ATOM     37  H   UNL     1       5.674   5.378  14.318  0.00  0.00    +0.000 HD
ENDBRANCH  27  28
ENDBRANCH   1  27
TORSDOF 6
ENDMDL
