MODEL 1
REMARK VINA RESULT:      -8.8      0.000      0.000
REMARK  Name = 
REMARK  7 active torsions:
REMARK  status: ('A' for Active; 'I' for Inactive)
REMARK    1  A    between atoms: C_1  and  C_2
REMARK    2  A    between atoms: C_2  and  N_3
REMARK    3  A    between atoms: C_5  and  C_6
REMARK    4  A    between atoms: C_6  and  C_7
REMARK    5  A    between atoms: C_7  and  C_8
REMARK    6  A    between atoms: C_11  and  C_12
REMARK    7  A    between atoms: C_15  and  C_16
REMARK                            x       y       z     vdW  Elec       q    Type
REMARK                         _______ _______ _______ _____ _____    ______ ____
ROOT
ATOM      1  C   UNL     1       8.202   7.829  18.170  0.00  0.00    +0.000 C 
ENDROOT
BRANCH   1   4
ATOM      2  N   UNL     1       6.219   5.161  16.191  0.00  0.00    +0.000 N 
ATOM      3  N   UNL     1       7.420   5.924  16.286  0.00  0.00    +0.000 NA
ATOM      4  C   UNL     1       7.220   6.677  17.433  0.00  0.00    +0.000 A 
ATOM      5  N   UNL     1       5.988   6.408  17.999  0.00  0.00    +0.000 NA
ATOM      6  C   UNL     1       5.418   5.448  17.299  0.00  0.00    +0.000 A 
ATOM      7  N   UNL     1       4.170   4.919  17.469  0.00  0.00    +0.000 N 
ATOM      8  C   UNL     1       3.005   5.617  17.987  0.00  0.00    +0.000 C 
ATOM      9  C   UNL     1       2.173   4.467  18.562  0.00  0.00    +0.000 C 
ATOM     10  C   UNL     1       2.370   3.368  17.520  0.00  0.00    +0.000 C 
ATOM     11  C   UNL     1       3.780   3.614  16.934  0.00  0.00    +0.000 C 
BRANCH   2  13
ATOM     12  C   UNL     1       6.631   4.363  13.807  0.00  0.00    +0.000 C 
ATOM     13  C   UNL     1       5.773   4.242  15.088  0.00  0.00    +0.000 C 
ENDBRANCH   2  13
ENDBRANCH   1   4
BRANCH   1  14
ATOM     14  C   UNL     1       7.943   9.397  17.829  0.00  0.00    +0.000 C 
BRANCH  14  15
ATOM     15  C   UNL     1       9.058  10.629  18.276  0.00  0.00    +0.000 A 
ATOM     16  N   UNL     1      10.056  11.235  17.466  0.00  0.00    +0.000 NA
ATOM     17  C   UNL     1      10.657  12.148  18.248  0.00  0.00    +0.000 A 
ATOM     18  C   UNL     1      11.560  13.251  18.001  0.00  0.00    +0.000 A 
ATOM     19  C   UNL     1      12.333  13.435  16.771  0.00  0.00    +0.000 C 
ATOM     20  N   UNL     1      11.808  14.104  18.933  0.00  0.00    +0.000 NA
ATOM     21  C   UNL     1      11.482  14.018  20.298  0.00  0.00    +0.000 A 
ATOM     22  C   UNL     1      10.475  13.073  20.515  0.00  0.00    +0.000 A 
ATOM     23  C   UNL     1       9.544  12.695  21.764  0.00  0.00    +0.000 C 
ATOM     24  N   UNL     1      10.093  12.144  19.488  0.00  0.00    +0.000 N 
ATOM     25  N   UNL     1       9.053  11.215  19.502  0.00  0.00    +0.000 NA
ENDBRANCH  14  15
ENDBRANCH   1  14
TORSDOF 4
ENDMDL
MODEL 2
REMARK VINA RESULT:      -8.8      0.743      2.062
REMARK  Name = 
REMARK  7 active torsions:
REMARK  status: ('A' for Active; 'I' for Inactive)
REMARK    1  A    between atoms: C_1  and  C_2
REMARK    2  A    between atoms: C_2  and  N_3
REMARK    3  A    between atoms: C_5  and  C_6
REMARK    4  A    between atoms: C_6  and  C_7
REMARK    5  A    between atoms: C_7  and  C_8
REMARK    6  A    between atoms: C_11  and  C_12
REMARK    7  A    between atoms: C_15  and  C_16
REMARK                            x       y       z     vdW  Elec       q    Type
REMARK                         _______ _______ _______ _____ _____    ______ ____
ROOT
ATOM      1  C   UNL     1       8.188   7.548  18.397  0.00  0.00    +0.000 C 
ENDROOT
BRANCH   1   4
ATOM      2  N   UNL     1       6.271   4.712  16.597  0.00  0.00    +0.000 N 
ATOM      3  N   UNL     1       7.499   5.427  16.720  0.00  0.00    +0.000 NA
ATOM      4  C   UNL     1       7.223   6.346  17.721  0.00  0.00    +0.000 A 
ATOM      5  N   UNL     1       5.924   6.215  18.176  0.00  0.00    +0.000 NA
ATOM      6  C   UNL     1       5.375   5.191  17.556  0.00  0.00    +0.000 A 
ATOM      7  N   UNL     1       4.088   4.746  17.655  0.00  0.00    +0.000 N 
ATOM      8  C   UNL     1       2.918   5.561  17.937  0.00  0.00    +0.000 C 
ATOM      9  C   UNL     1       1.963   4.544  18.568  0.00  0.00    +0.000 C 
ATOM     10  C   UNL     1       2.204   3.298  17.718  0.00  0.00    +0.000 C 
ATOM     11  C   UNL     1       3.680   3.396  17.267  0.00  0.00    +0.000 C 
BRANCH   2  13
ATOM     12  C   UNL     1       6.191   4.080  14.130  0.00  0.00    +0.000 C 
ATOM     13  C   UNL     1       5.891   3.663  15.589  0.00  0.00    +0.000 C 
ENDBRANCH   2  13
ENDBRANCH   1   4
BRANCH   1  14
ATOM     14  C   UNL     1       8.258   8.992  17.653  0.00  0.00    +0.000 C 
BRANCH  14  15
ATOM     15  C   UNL     1       8.957  10.376  18.400  0.00  0.00    +0.000 A 
ATOM     16  N   UNL     1       8.750  10.848  19.724  0.00  0.00    +0.000 NA
ATOM     17  C   UNL     1       9.520  11.943  19.847  0.00  0.00    +0.000 A 
ATOM     18  C   UNL     1       9.963  12.744  20.966  0.00  0.00    +0.000 A 
ATOM     19  C   UNL     1       9.358  12.721  22.300  0.00  0.00    +0.000 C 
ATOM     20  N   UNL     1      10.888  13.625  20.804  0.00  0.00    +0.000 NA
ATOM     21  C   UNL     1      11.429  14.105  19.598  0.00  0.00    +0.000 A 
ATOM     22  C   UNL     1      11.152  13.231  18.542  0.00  0.00    +0.000 A 
ATOM     23  C   UNL     1      11.671  13.102  17.031  0.00  0.00    +0.000 C 
ATOM     24  N   UNL     1      10.189  12.175  18.683  0.00  0.00    +0.000 N 
ATOM     25  N   UNL     1       9.870  11.165  17.776  0.00  0.00    +0.000 NA
ENDBRANCH  14  15
ENDBRANCH   1  14
TORSDOF 4
ENDMDL
MODEL 3
REMARK VINA RESULT:      -8.3      6.459      8.594
REMARK  Name = 
REMARK  7 active torsions:
REMARK  status: ('A' for Active; 'I' for Inactive)
REMARK    1  A    between atoms: C_1  and  C_2
REMARK    2  A    between atoms: C_2  and  N_3
REMARK    3  A    between atoms: C_5  and  C_6
REMARK    4  A    between atoms: C_6  and  C_7
REMARK    5  A    between atoms: C_7  and  C_8
REMARK    6  A    between atoms: C_11  and  C_12
REMARK    7  A    between atoms: C_15  and  C_16
REMARK                            x       y       z     vdW  Elec       q    Type
REMARK                         _______ _______ _______ _____ _____    ______ ____
ROOT
ATOM      1  C   UNL     1       2.476   9.039  17.893  0.00  0.00    +0.000 C 
ENDROOT
BRANCH   1   4
ATOM      2  N   UNL     1       3.732   5.380  17.890  0.00  0.00    +0.000 N 
ATOM      3  N   UNL     1       3.787   6.658  17.259  0.00  0.00    +0.000 NA
ATOM      4  C   UNL     1       2.934   7.426  18.038  0.00  0.00    +0.000 A 
ATOM      5  N   UNL     1       2.387   6.679  19.065  0.00  0.00    +0.000 NA
ATOM      6  C   UNL     1       2.919   5.474  19.023  0.00  0.00    +0.000 A 
ATOM      7  N   UNL     1       2.619   4.401  19.811  0.00  0.00    +0.000 N 
ATOM      8  C   UNL     1       1.329   4.115  20.418  0.00  0.00    +0.000 C 
ATOM      9  C   UNL     1       1.726   3.273  21.633  0.00  0.00    +0.000 C 
ATOM     10  C   UNL     1       2.847   2.400  21.073  0.00  0.00    +0.000 C 
ATOM     11  C   UNL     1       3.516   3.256  19.973  0.00  0.00    +0.000 C 
BRANCH   2  13
ATOM     12  C   UNL     1       5.354   4.253  16.282  0.00  0.00    +0.000 C 
ATOM     13  C   UNL     1       4.346   4.083  17.443  0.00  0.00    +0.000 C 
ENDBRANCH   2  13
ENDBRANCH   1   4
BRANCH   1  14
ATOM     14  C   UNL     1       0.891   9.394  17.880  0.00  0.00    +0.000 C 
BRANCH  14  15
ATOM     15  C   UNL     1       0.117  10.192  19.195  0.00  0.00    +0.000 A 
ATOM     16  N   UNL     1      -0.760  11.308  19.141  0.00  0.00    +0.000 NA
ATOM     17  C   UNL     1      -1.116  11.554  20.414  0.00  0.00    +0.000 A 
ATOM     18  C   UNL     1      -2.141  12.364  21.036  0.00  0.00    +0.000 A 
ATOM     19  C   UNL     1      -2.881  13.433  20.363  0.00  0.00    +0.000 C 
ATOM     20  N   UNL     1      -2.388  12.238  22.293  0.00  0.00    +0.000 NA
ATOM     21  C   UNL     1      -1.640  11.544  23.261  0.00  0.00    +0.000 A 
ATOM     22  C   UNL     1      -0.772  10.627  22.660  0.00  0.00    +0.000 A 
ATOM     23  C   UNL     1       0.136   9.422  23.205  0.00  0.00    +0.000 C 
ATOM     24  N   UNL     1      -0.514  10.661  21.248  0.00  0.00    +0.000 N 
ATOM     25  N   UNL     1       0.235   9.770  20.481  0.00  0.00    +0.000 NA
ENDBRANCH  14  15
ENDBRANCH   1  14
TORSDOF 4
ENDMDL
MODEL 4
REMARK VINA RESULT:      -8.3      6.552      9.744
REMARK  Name = 
REMARK  7 active torsions:
REMARK  status: ('A' for Active; 'I' for Inactive)
REMARK    1  A    between atoms: C_1  and  C_2
REMARK    2  A    between atoms: C_2  and  N_3
REMARK    3  A    between atoms: C_5  and  C_6
REMARK    4  A    between atoms: C_6  and  C_7
REMARK    5  A    between atoms: C_7  and  C_8
REMARK    6  A    between atoms: C_11  and  C_12
REMARK    7  A    between atoms: C_15  and  C_16
REMARK                            x       y       z     vdW  Elec       q    Type
REMARK                         _______ _______ _______ _____ _____    ______ ____
ROOT
ATOM      1  C   UNL     1       2.083   9.041  17.741  0.00  0.00    +0.000 C 
ENDROOT
BRANCH   1   4
ATOM      2  N   UNL     1       3.920   5.670  18.211  0.00  0.00    +0.000 N 
ATOM      3  N   UNL     1       3.923   6.949  17.581  0.00  0.00    +0.000 NA
ATOM      4  C   UNL     1       2.761   7.535  18.060  0.00  0.00    +0.000 A 
ATOM      5  N   UNL     1       2.087   6.681  18.914  0.00  0.00    +0.000 NA
ATOM      6  C   UNL     1       2.815   5.593  19.063  0.00  0.00    +0.000 A 
ATOM      7  N   UNL     1       2.500   4.466  19.768  0.00  0.00    +0.000 N 
ATOM      8  C   UNL     1       1.163   3.941  19.993  0.00  0.00    +0.000 C 
ATOM      9  C   UNL     1       1.342   3.159  21.297  0.00  0.00    +0.000 C 
ATOM     10  C   UNL     1       2.714   2.514  21.106  0.00  0.00    +0.000 C 
ATOM     11  C   UNL     1       3.504   3.500  20.214  0.00  0.00    +0.000 C 
BRANCH   2  13
ATOM     12  C   UNL     1       5.096   4.188  16.505  0.00  0.00    +0.000 C 
ATOM     13  C   UNL     1       4.857   4.514  17.998  0.00  0.00    +0.000 C 
ENDBRANCH   2  13
ENDBRANCH   1   4
BRANCH   1  14
ATOM     14  C   UNL     1       1.169   9.737  18.891  0.00  0.00    +0.000 C 
BRANCH  14  15
ATOM     15  C   UNL     1      -0.450  10.243  18.595  0.00  0.00    +0.000 A 
ATOM     16  N   UNL     1      -1.297  10.992  19.455  0.00  0.00    +0.000 NA
ATOM     17  C   UNL     1      -2.450  11.152  18.782  0.00  0.00    +0.000 A 
ATOM     18  C   UNL     1      -3.613  11.994  18.959  0.00  0.00    +0.000 A 
ATOM     19  C   UNL     1      -3.955  12.692  20.201  0.00  0.00    +0.000 C 
ATOM     20  N   UNL     1      -4.489  12.091  18.021  0.00  0.00    +0.000 NA
ATOM     21  C   UNL     1      -4.610  11.305  16.861  0.00  0.00    +0.000 A 
ATOM     22  C   UNL     1      -3.418  10.628  16.588  0.00  0.00    +0.000 A 
ATOM     23  C   UNL     1      -2.865   9.796  15.334  0.00  0.00    +0.000 C 
ATOM     24  N   UNL     1      -2.366  10.551  17.562  0.00  0.00    +0.000 N 
ATOM     25  N   UNL     1      -1.089  10.009  17.420  0.00  0.00    +0.000 NA
ENDBRANCH  14  15
ENDBRANCH   1  14
TORSDOF 4
ENDMDL
MODEL 5
REMARK VINA RESULT:      -8.3      6.184      8.469
REMARK  Name = 
REMARK  7 active torsions:
REMARK  status: ('A' for Active; 'I' for Inactive)
REMARK    1  A    between atoms: C_1  and  C_2
REMARK    2  A    between atoms: C_2  and  N_3
REMARK    3  A    between atoms: C_5  and  C_6
REMARK    4  A    between atoms: C_6  and  C_7
REMARK    5  A    between atoms: C_7  and  C_8
REMARK    6  A    between atoms: C_11  and  C_12
REMARK    7  A    between atoms: C_15  and  C_16
REMARK                            x       y       z     vdW  Elec       q    Type
REMARK                         _______ _______ _______ _____ _____    ______ ____
ROOT
ATOM      1  C   UNL     1       2.536   9.086  17.909  0.00  0.00    +0.000 C 
ENDROOT
BRANCH   1   4
ATOM      2  N   UNL     1       4.317   5.693  17.383  0.00  0.00    +0.000 N 
ATOM      3  N   UNL     1       4.392   7.111  17.247  0.00  0.00    +0.000 NA
ATOM      4  C   UNL     1       3.176   7.537  17.758  0.00  0.00    +0.000 A 
ATOM      5  N   UNL     1       2.404   6.466  18.170  0.00  0.00    +0.000 NA
ATOM      6  C   UNL     1       3.114   5.367  18.013  0.00  0.00    +0.000 A 
ATOM      7  N   UNL     1       2.718   4.079  18.234  0.00  0.00    +0.000 N 
ATOM      8  C   UNL     1       1.367   3.561  18.098  0.00  0.00    +0.000 C 
ATOM      9  C   UNL     1       1.383   2.366  19.055  0.00  0.00    +0.000 C 
ATOM     10  C   UNL     1       2.771   1.775  18.817  0.00  0.00    +0.000 C 
ATOM     11  C   UNL     1       3.662   2.978  18.430  0.00  0.00    +0.000 C 
BRANCH   2  13
ATOM     12  C   UNL     1       5.336   4.545  15.350  0.00  0.00    +0.000 C 
ATOM     13  C   UNL     1       5.280   4.649  16.892  0.00  0.00    +0.000 C 
ENDBRANCH   2  13
ENDBRANCH   1   4
BRANCH   1  14
ATOM     14  C   UNL     1       0.921   9.252  17.976  0.00  0.00    +0.000 C 
BRANCH  14  15
ATOM     15  C   UNL     1       0.136  10.094  19.256  0.00  0.00    +0.000 A 
ATOM     16  N   UNL     1      -0.725  11.219  19.158  0.00  0.00    +0.000 NA
ATOM     17  C   UNL     1      -1.099  11.504  20.417  0.00  0.00    +0.000 A 
ATOM     18  C   UNL     1      -2.123  12.343  21.000  0.00  0.00    +0.000 A 
ATOM     19  C   UNL     1      -2.837  13.404  20.287  0.00  0.00    +0.000 C 
ATOM     20  N   UNL     1      -2.394  12.253  22.256  0.00  0.00    +0.000 NA
ATOM     21  C   UNL     1      -1.672  11.575  23.254  0.00  0.00    +0.000 A 
ATOM     22  C   UNL     1      -0.807  10.631  22.693  0.00  0.00    +0.000 A 
ATOM     23  C   UNL     1       0.075   9.430  23.284  0.00  0.00    +0.000 C 
ATOM     24  N   UNL     1      -0.524  10.625  21.285  0.00  0.00    +0.000 N 
ATOM     25  N   UNL     1       0.226   9.704  20.555  0.00  0.00    +0.000 NA
ENDBRANCH  14  15
ENDBRANCH   1  14
TORSDOF 4
ENDMDL
MODEL 6
REMARK VINA RESULT:      -8.2      6.397      8.464
REMARK  Name = 
REMARK  7 active torsions:
REMARK  status: ('A' for Active; 'I' for Inactive)
REMARK    1  A    between atoms: C_1  and  C_2
REMARK    2  A    between atoms: C_2  and  N_3
REMARK    3  A    between atoms: C_5  and  C_6
REMARK    4  A    between atoms: C_6  and  C_7
REMARK    5  A    between atoms: C_7  and  C_8
REMARK    6  A    between atoms: C_11  and  C_12
REMARK    7  A    between atoms: C_15  and  C_16
REMARK                            x       y       z     vdW  Elec       q    Type
REMARK                         _______ _______ _______ _____ _____    ______ ____
ROOT
ATOM      1  C   UNL     1       2.706   8.952  17.729  0.00  0.00    +0.000 C 
ENDROOT
BRANCH   1   4
ATOM      2  N   UNL     1       3.829   5.251  17.801  0.00  0.00    +0.000 N 
ATOM      3  N   UNL     1       3.913   6.508  17.132  0.00  0.00    +0.000 NA
ATOM      4  C   UNL     1       3.109   7.328  17.909  0.00  0.00    +0.000 A 
ATOM      5  N   UNL     1       2.563   6.631  18.972  0.00  0.00    +0.000 NA
ATOM      6  C   UNL     1       3.050   5.407  18.951  0.00  0.00    +0.000 A 
ATOM      7  N   UNL     1       2.733   4.367  19.778  0.00  0.00    +0.000 N 
ATOM      8  C   UNL     1       1.450   4.147  20.425  0.00  0.00    +0.000 C 
ATOM      9  C   UNL     1       1.849   3.325  21.654  0.00  0.00    +0.000 C 
ATOM     10  C   UNL     1       2.923   2.396  21.092  0.00  0.00    +0.000 C 
ATOM     11  C   UNL     1       3.593   3.196  19.950  0.00  0.00    +0.000 C 
BRANCH   2  13
ATOM     12  C   UNL     1       5.512   4.036  16.325  0.00  0.00    +0.000 C 
ATOM     13  C   UNL     1       4.384   3.920  17.377  0.00  0.00    +0.000 C 
ENDBRANCH   2  13
ENDBRANCH   1   4
BRANCH   1  14
ATOM     14  C   UNL     1       1.136   9.368  17.774  0.00  0.00    +0.000 C 
BRANCH  14  15
ATOM     15  C   UNL     1       0.371   9.915  19.216  0.00  0.00    +0.000 A 
ATOM     16  N   UNL     1       0.503   9.383  20.526  0.00  0.00    +0.000 NA
ATOM     17  C   UNL     1      -0.269  10.153  21.312  0.00  0.00    +0.000 A 
ATOM     18  C   UNL     1      -0.402  10.319  22.743  0.00  0.00    +0.000 A 
ATOM     19  C   UNL     1       0.097   9.372  23.743  0.00  0.00    +0.000 C 
ATOM     20  N   UNL     1      -1.083  11.303  23.218  0.00  0.00    +0.000 NA
ATOM     21  C   UNL     1      -1.939  12.180  22.529  0.00  0.00    +0.000 A 
ATOM     22  C   UNL     1      -1.685  12.152  21.155  0.00  0.00    +0.000 A 
ATOM     23  C   UNL     1      -2.143  13.056  19.912  0.00  0.00    +0.000 C 
ATOM     24  N   UNL     1      -0.866  11.127  20.570  0.00  0.00    +0.000 N 
ATOM     25  N   UNL     1      -0.434  11.009  19.250  0.00  0.00    +0.000 NA
ENDBRANCH  14  15
ENDBRANCH   1  14
TORSDOF 4
ENDMDL
MODEL 7
REMARK VINA RESULT:      -8.2      6.519      9.879
REMARK  Name = 
REMARK  7 active torsions:
REMARK  status: ('A' for Active; 'I' for Inactive)
REMARK    1  A    between atoms: C_1  and  C_2
REMARK    2  A    between atoms: C_2  and  N_3
REMARK    3  A    between atoms: C_5  and  C_6
REMARK    4  A    between atoms: C_6  and  C_7
REMARK    5  A    between atoms: C_7  and  C_8
REMARK    6  A    between atoms: C_11  and  C_12
REMARK    7  A    between atoms: C_15  and  C_16
REMARK                            x       y       z     vdW  Elec       q    Type
REMARK                         _______ _______ _______ _____ _____    ______ ____
ROOT
ATOM      1  C   UNL     1       1.884   9.558  18.794  0.00  0.00    +0.000 C 
ENDROOT
BRANCH   1   4
ATOM      2  N   UNL     1       3.383   6.055  18.132  0.00  0.00    +0.000 N 
ATOM      3  N   UNL     1       3.299   7.413  17.707  0.00  0.00    +0.000 NA
ATOM      4  C   UNL     1       2.461   7.983  18.653  0.00  0.00    +0.000 A 
ATOM      5  N   UNL     1       2.051   7.048  19.585  0.00  0.00    +0.000 NA
ATOM      6  C   UNL     1       2.659   5.911  19.318  0.00  0.00    +0.000 A 
ATOM      7  N   UNL     1       2.497   4.709  19.947  0.00  0.00    +0.000 N 
ATOM      8  C   UNL     1       1.282   4.233  20.588  0.00  0.00    +0.000 C 
ATOM      9  C   UNL     1       1.832   3.251  21.626  0.00  0.00    +0.000 C 
ATOM     10  C   UNL     1       2.963   2.565  20.861  0.00  0.00    +0.000 C 
ATOM     11  C   UNL     1       3.481   3.630  19.866  0.00  0.00    +0.000 C 
BRANCH   2  13
ATOM     12  C   UNL     1       5.028   5.323  16.330  0.00  0.00    +0.000 C 
ATOM     13  C   UNL     1       4.047   4.893  17.446  0.00  0.00    +0.000 C 
ENDBRANCH   2  13
ENDBRANCH   1   4
BRANCH   1  14
ATOM     14  C   UNL     1       0.454   9.793  19.530  0.00  0.00    +0.000 C 
BRANCH  14  15
ATOM     15  C   UNL     1      -0.943  10.321  18.673  0.00  0.00    +0.000 A 
ATOM     16  N   UNL     1      -1.274  10.076  17.314  0.00  0.00    +0.000 NA
ATOM     17  C   UNL     1      -2.462  10.673  17.114  0.00  0.00    +0.000 A 
ATOM     18  C   UNL     1      -3.458  10.612  16.067  0.00  0.00    +0.000 A 
ATOM     19  C   UNL     1      -3.223  10.080  14.723  0.00  0.00    +0.000 C 
ATOM     20  N   UNL     1      -4.619  11.139  16.248  0.00  0.00    +0.000 NA
ATOM     21  C   UNL     1      -5.033  11.993  17.286  0.00  0.00    +0.000 A 
ATOM     22  C   UNL     1      -4.163  11.914  18.377  0.00  0.00    +0.000 A 
ATOM     23  C   UNL     1      -4.214  12.441  19.890  0.00  0.00    +0.000 C 
ATOM     24  N   UNL     1      -2.885  11.269  18.264  0.00  0.00    +0.000 N 
ATOM     25  N   UNL     1      -1.949  11.016  19.267  0.00  0.00    +0.000 NA
ENDBRANCH  14  15
ENDBRANCH   1  14
TORSDOF 4
ENDMDL
MODEL 8
REMARK VINA RESULT:      -8.2      6.323      9.905
REMARK  Name = 
REMARK  7 active torsions:
REMARK  status: ('A' for Active; 'I' for Inactive)
REMARK    1  A    between atoms: C_1  and  C_2
REMARK    2  A    between atoms: C_2  and  N_3
REMARK    3  A    between atoms: C_5  and  C_6
REMARK    4  A    between atoms: C_6  and  C_7
REMARK    5  A    between atoms: C_7  and  C_8
REMARK    6  A    between atoms: C_11  and  C_12
REMARK    7  A    between atoms: C_15  and  C_16
REMARK                            x       y       z     vdW  Elec       q    Type
REMARK                         _______ _______ _______ _____ _____    ______ ____
ROOT
ATOM      1  C   UNL     1       1.090   8.861  20.824  0.00  0.00    +0.000 C 
ENDROOT
BRANCH   1   4
ATOM      2  N   UNL     1       2.221   5.299  19.827  0.00  0.00    +0.000 N 
ATOM      3  N   UNL     1       1.417   6.092  20.697  0.00  0.00    +0.000 NA
ATOM      4  C   UNL     1       1.669   7.384  20.261  0.00  0.00    +0.000 A 
ATOM      5  N   UNL     1       2.565   7.390  19.208  0.00  0.00    +0.000 NA
ATOM      6  C   UNL     1       2.841   6.139  18.899  0.00  0.00    +0.000 A 
ATOM      7  N   UNL     1       3.726   5.686  17.963  0.00  0.00    +0.000 N 
ATOM      8  C   UNL     1       4.947   6.353  17.542  0.00  0.00    +0.000 C 
ATOM      9  C   UNL     1       5.138   5.807  16.125  0.00  0.00    +0.000 C 
ATOM     10  C   UNL     1       4.734   4.342  16.282  0.00  0.00    +0.000 C 
ATOM     11  C   UNL     1       3.673   4.333  17.407  0.00  0.00    +0.000 C 
BRANCH   2  13
ATOM     12  C   UNL     1       2.503   3.247  21.309  0.00  0.00    +0.000 C 
ATOM     13  C   UNL     1       2.478   3.818  19.873  0.00  0.00    +0.000 C 
ENDBRANCH   2  13
ENDBRANCH   1   4
BRANCH   1  14
ATOM     14  C   UNL     1       0.991  10.101  19.779  0.00  0.00    +0.000 C 
BRANCH  14  15
ATOM     15  C   UNL     1      -0.461  10.475  18.933  0.00  0.00    +0.000 A 
ATOM     16  N   UNL     1      -0.819  10.099  17.611  0.00  0.00    +0.000 NA
ATOM     17  C   UNL     1      -2.046  10.607  17.406  0.00  0.00    +0.000 A 
ATOM     18  C   UNL     1      -3.068  10.403  16.403  0.00  0.00    +0.000 A 
ATOM     19  C   UNL     1      -2.843   9.774  15.099  0.00  0.00    +0.000 C 
ATOM     20  N   UNL     1      -4.252  10.875  16.582  0.00  0.00    +0.000 NA
ATOM     21  C   UNL     1      -4.685  11.787  17.561  0.00  0.00    +0.000 A 
ATOM     22  C   UNL     1      -3.778  11.850  18.623  0.00  0.00    +0.000 A 
ATOM     23  C   UNL     1      -3.815  12.497  20.089  0.00  0.00    +0.000 C 
ATOM     24  N   UNL     1      -2.468  11.271  18.517  0.00  0.00    +0.000 N 
ATOM     25  N   UNL     1      -1.488  11.157  19.503  0.00  0.00    +0.000 NA
ENDBRANCH  14  15
ENDBRANCH   1  14
TORSDOF 4
ENDMDL
MODEL 9
REMARK VINA RESULT:      -8.1      6.537     10.228
REMARK  Name = 
REMARK  7 active torsions:
REMARK  status: ('A' for Active; 'I' for Inactive)
REMARK    1  A    between atoms: C_1  and  C_2
REMARK    2  A    between atoms: C_2  and  N_3
REMARK    3  A    between atoms: C_5  and  C_6
REMARK    4  A    between atoms: C_6  and  C_7
REMARK    5  A    between atoms: C_7  and  C_8
REMARK    6  A    between atoms: C_11  and  C_12
REMARK    7  A    between atoms: C_15  and  C_16
REMARK                            x       y       z     vdW  Elec       q    Type
REMARK                         _______ _______ _______ _____ _____    ______ ____
ROOT
ATOM      1  C   UNL     1       1.112   9.552  19.106  0.00  0.00    +0.000 C 
ENDROOT
BRANCH   1   4
ATOM      2  N   UNL     1      -2.252  10.778  17.642  0.00  0.00    +0.000 N 
ATOM      3  N   UNL     1      -1.067  10.014  17.425  0.00  0.00    +0.000 NA
ATOM      4  C   UNL     1      -0.383  10.156  18.623  0.00  0.00    +0.000 A 
ATOM      5  N   UNL     1      -1.086  10.952  19.508  0.00  0.00    +0.000 NA
ATOM      6  C   UNL     1      -2.237  11.266  18.951  0.00  0.00    +0.000 A 
ATOM      7  N   UNL     1      -3.210  12.086  19.447  0.00  0.00    +0.000 N 
ATOM      8  C   UNL     1      -3.005  13.227  20.325  0.00  0.00    +0.000 C 
ATOM      9  C   UNL     1      -4.351  13.318  21.050  0.00  0.00    +0.000 C 
ATOM     10  C   UNL     1      -5.345  13.010  19.932  0.00  0.00    +0.000 C 
ATOM     11  C   UNL     1      -4.594  12.056  18.974  0.00  0.00    +0.000 C 
BRANCH   2  13
ATOM     12  C   UNL     1      -3.072  10.591  15.237  0.00  0.00    +0.000 C 
ATOM     13  C   UNL     1      -3.344  11.117  16.666  0.00  0.00    +0.000 C 
ENDBRANCH   2  13
ENDBRANCH   1   4
BRANCH   1  14
ATOM     14  C   UNL     1       2.036   8.802  18.000  0.00  0.00    +0.000 C 
BRANCH  14  15
ATOM     15  C   UNL     1       2.775   7.277  18.304  0.00  0.00    +0.000 A 
ATOM     16  N   UNL     1       3.989   6.775  17.763  0.00  0.00    +0.000 NA
ATOM     17  C   UNL     1       4.156   5.558  18.308  0.00  0.00    +0.000 A 
ATOM     18  C   UNL     1       5.263   4.629  18.383  0.00  0.00    +0.000 A 
ATOM     19  C   UNL     1       6.455   4.683  17.533  0.00  0.00    +0.000 C 
ATOM     20  N   UNL     1       5.201   3.612  19.169  0.00  0.00    +0.000 NA
ATOM     21  C   UNL     1       4.080   3.114  19.858  0.00  0.00    +0.000 A 
ATOM     22  C   UNL     1       3.074   4.080  19.942  0.00  0.00    +0.000 A 
ATOM     23  C   UNL     1       1.706   4.203  20.769  0.00  0.00    +0.000 C 
ATOM     24  N   UNL     1       3.124   5.278  19.152  0.00  0.00    +0.000 N 
ATOM     25  N   UNL     1       2.267   6.377  19.187  0.00  0.00    +0.000 NA
ENDBRANCH  14  15
ENDBRANCH   1  14
TORSDOF 4
ENDMDL
