MODEL 1
REMARK VINA RESULT:      -9.6      0.000      0.000
REMARK  Name = 
REMARK  4 active torsions:
REMARK  status: ('A' for Active; 'I' for Inactive)
REMARK    1  A    between atoms: C_2  and  C_3
REMARK    2  A    between atoms: C_6  and  N_7
REMARK    3  A    between atoms: C_12  and  C_13
REMARK    4  A    between atoms: C_28  and  N_29
REMARK                            x       y       z     vdW  Elec       q    Type
REMARK                         _______ _______ _______ _____ _____    ______ ____
ROOT
ATOM      1  C   UNL     1       1.837   7.944  19.486  0.00  0.00    +0.000 A 
ATOM      2  C   UNL     1       1.953   8.487  18.205  0.00  0.00    +0.000 A 
ATOM      3  C   UNL     1       1.350   9.703  17.912  0.00  0.00    +0.000 A 
ATOM      4  C   UNL     1       0.694  10.438  18.906  0.00  0.00    +0.000 A 
ATOM      5  C   UNL     1       0.715   9.946  20.217  0.00  0.00    +0.000 A 
ATOM      6  C   UNL     1       1.264   8.698  20.509  0.00  0.00    +0.000 A 
ENDROOT
BRANCH   1   8
ATOM      7  O   UNL     1       1.835   5.968  20.711  0.00  0.00    +0.000 OA
ATOM      8  C   UNL     1       2.348   6.588  19.783  0.00  0.00    +0.000 C 
ATOM      9  N   UNL     1       3.408   6.092  19.025  0.00  0.00    +0.000 N 
ATOM     10  C   UNL     1       4.016   4.846  19.458  0.00  0.00    +0.000 C 
ATOM     11  C   UNL     1       5.530   4.914  19.311  0.00  0.00    +0.000 C 
ATOM     12  C   UNL     1       6.008   5.342  17.912  0.00  0.00    +0.000 C 
ATOM     13  C   UNL     1       5.211   6.568  17.417  0.00  0.00    +0.000 C 
ATOM     14  C   UNL     1       3.705   6.463  17.633  0.00  0.00    +0.000 C 
BRANCH  12  15
ATOM     15  N   UNL     1       6.159   4.295  16.883  0.00  0.00    +0.000 NA
ATOM     16  C   UNL     1       7.342   4.292  16.029  0.00  0.00    +0.000 C 
ATOM     17  C   UNL     1       6.940   5.009  14.757  0.00  0.00    +0.000 C 
ATOM     18  C   UNL     1       5.490   4.621  14.580  0.00  0.00    +0.000 C 
ATOM     19  C   UNL     1       5.004   4.221  15.969  0.00  0.00    +0.000 C 
ENDBRANCH  12  15
ENDBRANCH   1   8
BRANCH   4  20
ATOM     20  N   UNL     1       0.092  11.646  18.533  0.00  0.00    +0.000 N 
ATOM     21  C   UNL     1       0.556  12.955  18.577  0.00  0.00    +0.000 A 
ATOM     22  N   UNL     1      -0.407  13.889  18.566  0.00  0.00    +0.000 NA
ATOM     23  C   UNL     1      -0.015  15.168  18.672  0.00  0.00    +0.000 A 
ATOM     24  C   UNL     1       1.296  15.553  18.787  0.00  0.00    +0.000 A 
ATOM     25  C   UNL     1       2.223  14.534  18.786  0.00  0.00    +0.000 A 
ATOM     26  N   UNL     1       1.859  13.241  18.672  0.00  0.00    +0.000 NA
ATOM     27  H   UNL     1      -0.915  11.681  18.609  0.00  0.00    +0.000 HD
BRANCH  25  28
ATOM     28  C   UNL     1       3.677  14.728  18.929  0.00  0.00    +0.000 A 
ATOM     29  C   UNL     1       4.645  14.725  17.939  0.00  0.00    +0.000 A 
ATOM     30  C   UNL     1       5.981  14.908  18.429  0.00  0.00    +0.000 A 
ATOM     31  C   UNL     1       7.219  14.964  17.743  0.00  0.00    +0.000 A 
ATOM     32  C   UNL     1       8.416  15.125  18.453  0.00  0.00    +0.000 A 
ATOM     33  C   UNL     1       8.396  15.248  19.836  0.00  0.00    +0.000 A 
ATOM     34  C   UNL     1       7.188  15.209  20.536  0.00  0.00    +0.000 A 
ATOM     35  C   UNL     1       5.990  15.042  19.815  0.00  0.00    +0.000 A 
ATOM     36  S   UNL     1       4.401  14.974  20.462  0.00  0.00    +0.000 S 
ENDBRANCH  25  28
ENDBRANCH   4  20
TORSDOF 4
ENDMDL
MODEL 2
REMARK VINA RESULT:      -9.6      3.327      9.997
REMARK  Name = 
REMARK  4 active torsions:
REMARK  status: ('A' for Active; 'I' for Inactive)
REMARK    1  A    between atoms: C_2  and  C_3
REMARK    2  A    between atoms: C_6  and  N_7
REMARK    3  A    between atoms: C_12  and  C_13
REMARK    4  A    between atoms: C_28  and  N_29
REMARK                            x       y       z     vdW  Elec       q    Type
REMARK                         _______ _______ _______ _____ _____    ______ ____
ROOT
ATOM      1  C   UNL     1       0.646   9.822  19.613  0.00  0.00    +0.000 A 
ATOM      2  C   UNL     1       0.248   9.452  20.899  0.00  0.00    +0.000 A 
ATOM      3  C   UNL     1       0.637   8.225  21.418  0.00  0.00    +0.000 A 
ATOM      4  C   UNL     1       1.494   7.381  20.701  0.00  0.00    +0.000 A 
ATOM      5  C   UNL     1       1.998   7.835  19.475  0.00  0.00    +0.000 A 
ATOM      6  C   UNL     1       1.566   9.038  18.920  0.00  0.00    +0.000 A 
ENDROOT
BRANCH   1   8
ATOM      7  O   UNL     1      -0.698  10.948  18.085  0.00  0.00    +0.000 OA
ATOM      8  C   UNL     1       0.130  11.059  18.987  0.00  0.00    +0.000 C 
ATOM      9  N   UNL     1       0.628  12.287  19.421  0.00  0.00    +0.000 N 
ATOM     10  C   UNL     1       0.251  13.467  18.664  0.00  0.00    +0.000 C 
ATOM     11  C   UNL     1       1.441  14.407  18.517  0.00  0.00    +0.000 C 
ATOM     12  C   UNL     1       2.132  14.761  19.847  0.00  0.00    +0.000 C 
ATOM     13  C   UNL     1       2.355  13.491  20.697  0.00  0.00    +0.000 C 
ATOM     14  C   UNL     1       1.144  12.567  20.769  0.00  0.00    +0.000 C 
BRANCH  12  15
ATOM     15  N   UNL     1       1.593  15.893  20.625  0.00  0.00    +0.000 NA
ATOM     16  C   UNL     1       0.723  16.865  19.970  0.00  0.00    +0.000 C 
ATOM     17  C   UNL     1       1.620  18.014  19.556  0.00  0.00    +0.000 C 
ATOM     18  C   UNL     1       2.648  18.071  20.661  0.00  0.00    +0.000 C 
ATOM     19  C   UNL     1       2.646  16.681  21.290  0.00  0.00    +0.000 C 
ENDBRANCH  12  15
ENDBRANCH   1   8
BRANCH   4  20
ATOM     20  N   UNL     1       1.828   6.149  21.277  0.00  0.00    +0.000 N 
ATOM     21  C   UNL     1       2.483   5.039  20.756  0.00  0.00    +0.000 A 
ATOM     22  N   UNL     1       2.249   3.895  21.415  0.00  0.00    +0.000 NA
ATOM     23  C   UNL     1       2.807   2.781  20.915  0.00  0.00    +0.000 A 
ATOM     24  C   UNL     1       3.587   2.763  19.787  0.00  0.00    +0.000 A 
ATOM     25  C   UNL     1       3.782   3.981  19.173  0.00  0.00    +0.000 A 
ATOM     26  N   UNL     1       3.242   5.117  19.658  0.00  0.00    +0.000 NA
ATOM     27  H   UNL     1       1.212   5.819  22.007  0.00  0.00    +0.000 HD
BRANCH  25  28
ATOM     28  C   UNL     1       4.560   4.177  17.937  0.00  0.00    +0.000 A 
ATOM     29  C   UNL     1       4.216   3.826  16.641  0.00  0.00    +0.000 A 
ATOM     30  C   UNL     1       5.225   4.129  15.668  0.00  0.00    +0.000 A 
ATOM     31  C   UNL     1       5.248   3.927  14.266  0.00  0.00    +0.000 A 
ATOM     32  C   UNL     1       6.378   4.283  13.517  0.00  0.00    +0.000 A 
ATOM     33  C   UNL     1       7.478   4.854  14.143  0.00  0.00    +0.000 A 
ATOM     34  C   UNL     1       7.476   5.076  15.522  0.00  0.00    +0.000 A 
ATOM     35  C   UNL     1       6.339   4.711  16.268  0.00  0.00    +0.000 A 
ATOM     36  S   UNL     1       6.114   4.896  17.960  0.00  0.00    +0.000 S 
ENDBRANCH  25  28
ENDBRANCH   4  20
TORSDOF 4
ENDMDL
MODEL 3
REMARK VINA RESULT:      -9.5      3.306      4.535
REMARK  Name = 
REMARK  4 active torsions:
REMARK  status: ('A' for Active; 'I' for Inactive)
REMARK    1  A    between atoms: C_2  and  C_3
REMARK    2  A    between atoms: C_6  and  N_7
REMARK    3  A    between atoms: C_12  and  C_13
REMARK    4  A    between atoms: C_28  and  N_29
REMARK                            x       y       z     vdW  Elec       q    Type
REMARK                         _______ _______ _______ _____ _____    ______ ____
ROOT
ATOM      1  C   UNL     1       1.583   8.511  19.803  0.00  0.00    +0.000 A 
ATOM      2  C   UNL     1       0.957   9.651  19.296  0.00  0.00    +0.000 A 
ATOM      3  C   UNL     1       0.199  10.457  20.135  0.00  0.00    +0.000 A 
ATOM      4  C   UNL     1       0.118  10.189  21.507  0.00  0.00    +0.000 A 
ATOM      5  C   UNL     1       0.871   9.125  22.020  0.00  0.00    +0.000 A 
ATOM      6  C   UNL     1       1.586   8.275  21.176  0.00  0.00    +0.000 A 
ENDROOT
BRANCH   1   8
ATOM      7  O   UNL     1       2.942   8.027  17.980  0.00  0.00    +0.000 OA
ATOM      8  C   UNL     1       2.277   7.564  18.903  0.00  0.00    +0.000 C 
ATOM      9  N   UNL     1       2.117   6.196  19.120  0.00  0.00    +0.000 N 
ATOM     10  C   UNL     1       2.647   5.292  18.114  0.00  0.00    +0.000 C 
ATOM     11  C   UNL     1       1.683   4.137  17.875  0.00  0.00    +0.000 C 
ATOM     12  C   UNL     1       1.256   3.399  19.157  0.00  0.00    +0.000 C 
ATOM     13  C   UNL     1       0.867   4.407  20.260  0.00  0.00    +0.000 C 
ATOM     14  C   UNL     1       1.845   5.566  20.420  0.00  0.00    +0.000 C 
BRANCH  12  15
ATOM     15  N   UNL     1       2.122   2.309  19.647  0.00  0.00    +0.000 NA
ATOM     16  C   UNL     1       3.110   2.588  20.685  0.00  0.00    +0.000 C 
ATOM     17  C   UNL     1       4.415   2.843  19.960  0.00  0.00    +0.000 C 
ATOM     18  C   UNL     1       4.343   1.912  18.772  0.00  0.00    +0.000 C 
ATOM     19  C   UNL     1       2.858   1.633  18.564  0.00  0.00    +0.000 C 
ENDBRANCH  12  15
ENDBRANCH   1   8
BRANCH   4  20
ATOM     20  N   UNL     1      -0.681  11.031  22.289  0.00  0.00    +0.000 N 
ATOM     21  C   UNL     1      -0.757  12.417  22.363  0.00  0.00    +0.000 A 
ATOM     22  N   UNL     1      -1.290  12.886  23.501  0.00  0.00    +0.000 NA
ATOM     23  C   UNL     1      -1.328  14.219  23.649  0.00  0.00    +0.000 A 
ATOM     24  C   UNL     1      -0.857  15.102  22.711  0.00  0.00    +0.000 A 
ATOM     25  C   UNL     1      -0.331  14.538  21.569  0.00  0.00    +0.000 A 
ATOM     26  N   UNL     1      -0.288  13.204  21.388  0.00  0.00    +0.000 NA
ATOM     27  H   UNL     1      -0.962  10.666  23.189  0.00  0.00    +0.000 HD
BRANCH  25  28
ATOM     28  C   UNL     1       0.254  15.304  20.454  0.00  0.00    +0.000 A 
ATOM     29  C   UNL     1      -0.358  16.250  19.647  0.00  0.00    +0.000 A 
ATOM     30  C   UNL     1       0.493  16.782  18.623  0.00  0.00    +0.000 A 
ATOM     31  C   UNL     1       0.241  17.750  17.620  0.00  0.00    +0.000 A 
ATOM     32  C   UNL     1       1.239  18.092  16.698  0.00  0.00    +0.000 A 
ATOM     33  C   UNL     1       2.491  17.496  16.771  0.00  0.00    +0.000 A 
ATOM     34  C   UNL     1       2.771  16.547  17.758  0.00  0.00    +0.000 A 
ATOM     35  C   UNL     1       1.761  16.206  18.678  0.00  0.00    +0.000 A 
ATOM     36  S   UNL     1       1.882  15.081  19.969  0.00  0.00    +0.000 S 
ENDBRANCH  25  28
ENDBRANCH   4  20
TORSDOF 4
ENDMDL
MODEL 4
REMARK VINA RESULT:      -9.4      3.497      8.234
REMARK  Name = 
REMARK  4 active torsions:
REMARK  status: ('A' for Active; 'I' for Inactive)
REMARK    1  A    between atoms: C_2  and  C_3
REMARK    2  A    between atoms: C_6  and  N_7
REMARK    3  A    between atoms: C_12  and  C_13
REMARK    4  A    between atoms: C_28  and  N_29
REMARK                            x       y       z     vdW  Elec       q    Type
REMARK                         _______ _______ _______ _____ _____    ______ ____
ROOT
ATOM      1  C   UNL     1       5.399  15.242  19.117  0.00  0.00    +0.000 A 
ATOM      2  C   UNL     1       4.743  14.736  20.240  0.00  0.00    +0.000 A 
ATOM      3  C   UNL     1       3.387  14.441  20.176  0.00  0.00    +0.000 A 
ATOM      4  C   UNL     1       2.681  14.567  18.973  0.00  0.00    +0.000 A 
ATOM      5  C   UNL     1       3.391  14.936  17.824  0.00  0.00    +0.000 A 
ATOM      6  C   UNL     1       4.738  15.292  17.892  0.00  0.00    +0.000 A 
ENDROOT
BRANCH   1   8
ATOM      7  O   UNL     1       7.022  16.834  19.608  0.00  0.00    +0.000 OA
ATOM      8  C   UNL     1       6.805  15.695  19.202  0.00  0.00    +0.000 C 
ATOM      9  N   UNL     1       7.813  14.826  18.786  0.00  0.00    +0.000 N 
ATOM     10  C   UNL     1       9.162  15.359  18.697  0.00  0.00    +0.000 C 
ATOM     11  C   UNL     1       9.861  14.831  17.452  0.00  0.00    +0.000 C 
ATOM     12  C   UNL     1       9.829  13.297  17.314  0.00  0.00    +0.000 C 
ATOM     13  C   UNL     1       8.408  12.758  17.590  0.00  0.00    +0.000 C 
ATOM     14  C   UNL     1       7.741  13.358  18.822  0.00  0.00    +0.000 C 
BRANCH  12  15
ATOM     15  N   UNL     1      10.885  12.521  17.990  0.00  0.00    +0.000 NA
ATOM     16  C   UNL     1      10.605  11.897  19.280  0.00  0.00    +0.000 C 
ATOM     17  C   UNL     1      11.114  12.864  20.329  0.00  0.00    +0.000 C 
ATOM     18  C   UNL     1      12.332  13.477  19.678  0.00  0.00    +0.000 C 
ATOM     19  C   UNL     1      12.128  13.290  18.179  0.00  0.00    +0.000 C 
ENDBRANCH  12  15
ENDBRANCH   1   8
BRANCH   4  20
ATOM     20  N   UNL     1       1.313  14.272  18.987  0.00  0.00    +0.000 N 
ATOM     21  C   UNL     1       0.629  13.078  18.792  0.00  0.00    +0.000 A 
ATOM     22  N   UNL     1      -0.656  13.223  18.438  0.00  0.00    +0.000 NA
ATOM     23  C   UNL     1      -1.345  12.101  18.175  0.00  0.00    +0.000 A 
ATOM     24  C   UNL     1      -0.805  10.843  18.252  0.00  0.00    +0.000 A 
ATOM     25  C   UNL     1       0.519  10.781  18.628  0.00  0.00    +0.000 A 
ATOM     26  N   UNL     1       1.233  11.890  18.906  0.00  0.00    +0.000 NA
ATOM     27  H   UNL     1       0.695  15.021  18.708  0.00  0.00    +0.000 HD
BRANCH  25  28
ATOM     28  C   UNL     1       1.296   9.534  18.742  0.00  0.00    +0.000 A 
ATOM     29  C   UNL     1       2.165   8.976  17.818  0.00  0.00    +0.000 A 
ATOM     30  C   UNL     1       2.733   7.726  18.233  0.00  0.00    +0.000 A 
ATOM     31  C   UNL     1       3.647   6.863  17.580  0.00  0.00    +0.000 A 
ATOM     32  C   UNL     1       4.041   5.661  18.182  0.00  0.00    +0.000 A 
ATOM     33  C   UNL     1       3.550   5.314  19.434  0.00  0.00    +0.000 A 
ATOM     34  C   UNL     1       2.657   6.153  20.106  0.00  0.00    +0.000 A 
ATOM     35  C   UNL     1       2.263   7.357  19.491  0.00  0.00    +0.000 A 
ATOM     36  S   UNL     1       1.191   8.535  20.130  0.00  0.00    +0.000 S 
ENDBRANCH  25  28
ENDBRANCH   4  20
TORSDOF 4
ENDMDL
MODEL 5
REMARK VINA RESULT:      -9.3      4.192     10.485
REMARK  Name = 
REMARK  4 active torsions:
REMARK  status: ('A' for Active; 'I' for Inactive)
REMARK    1  A    between atoms: C_2  and  C_3
REMARK    2  A    between atoms: C_6  and  N_7
REMARK    3  A    between atoms: C_12  and  C_13
REMARK    4  A    between atoms: C_28  and  N_29
REMARK                            x       y       z     vdW  Elec       q    Type
REMARK                         _______ _______ _______ _____ _____    ______ ____
ROOT
ATOM      1  C   UNL     1       1.050  10.306  19.795  0.00  0.00    +0.000 A 
ATOM      2  C   UNL     1       0.995  10.035  21.164  0.00  0.00    +0.000 A 
ATOM      3  C   UNL     1       1.204   8.740  21.621  0.00  0.00    +0.000 A 
ATOM      4  C   UNL     1       1.552   7.713  20.736  0.00  0.00    +0.000 A 
ATOM      5  C   UNL     1       1.745   8.037  19.388  0.00  0.00    +0.000 A 
ATOM      6  C   UNL     1       1.478   9.320  18.910  0.00  0.00    +0.000 A 
ENDROOT
BRANCH   1   8
ATOM      7  O   UNL     1       1.429  12.150  18.430  0.00  0.00    +0.000 OA
ATOM      8  C   UNL     1       0.693  11.644  19.274  0.00  0.00    +0.000 C 
ATOM      9  N   UNL     1      -0.437  12.282  19.786  0.00  0.00    +0.000 N 
ATOM     10  C   UNL     1      -0.656  13.665  19.402  0.00  0.00    +0.000 C 
ATOM     11  C   UNL     1      -1.147  14.477  20.594  0.00  0.00    +0.000 C 
ATOM     12  C   UNL     1      -2.367  13.868  21.309  0.00  0.00    +0.000 C 
ATOM     13  C   UNL     1      -2.162  12.355  21.541  0.00  0.00    +0.000 C 
ATOM     14  C   UNL     1      -1.625  11.605  20.328  0.00  0.00    +0.000 C 
BRANCH  12  15
ATOM     15  N   UNL     1      -3.708  14.199  20.790  0.00  0.00    +0.000 NA
ATOM     16  C   UNL     1      -4.222  15.557  20.941  0.00  0.00    +0.000 C 
ATOM     17  C   UNL     1      -5.079  15.541  22.190  0.00  0.00    +0.000 C 
ATOM     18  C   UNL     1      -5.691  14.160  22.177  0.00  0.00    +0.000 C 
ATOM     19  C   UNL     1      -4.760  13.311  21.318  0.00  0.00    +0.000 C 
ENDBRANCH  12  15
ENDBRANCH   1   8
BRANCH   4  20
ATOM     20  N   UNL     1       1.728   6.429  21.266  0.00  0.00    +0.000 N 
ATOM     21  C   UNL     1       2.285   5.279  20.719  0.00  0.00    +0.000 A 
ATOM     22  N   UNL     1       1.902   4.138  21.312  0.00  0.00    +0.000 NA
ATOM     23  C   UNL     1       2.363   2.994  20.782  0.00  0.00    +0.000 A 
ATOM     24  C   UNL     1       3.187   2.942  19.688  0.00  0.00    +0.000 A 
ATOM     25  C   UNL     1       3.537   4.158  19.142  0.00  0.00    +0.000 A 
ATOM     26  N   UNL     1       3.098   5.322  19.658  0.00  0.00    +0.000 NA
ATOM     27  H   UNL     1       1.047   6.135  21.953  0.00  0.00    +0.000 HD
BRANCH  25  28
ATOM     28  C   UNL     1       4.388   4.323  17.950  0.00  0.00    +0.000 A 
ATOM     29  C   UNL     1       4.125   3.931  16.647  0.00  0.00    +0.000 A 
ATOM     30  C   UNL     1       5.189   4.212  15.727  0.00  0.00    +0.000 A 
ATOM     31  C   UNL     1       5.299   3.969  14.337  0.00  0.00    +0.000 A 
ATOM     32  C   UNL     1       6.470   4.312  13.647  0.00  0.00    +0.000 A 
ATOM     33  C   UNL     1       7.527   4.910  14.321  0.00  0.00    +0.000 A 
ATOM     34  C   UNL     1       7.440   5.172  15.690  0.00  0.00    +0.000 A 
ATOM     35  C   UNL     1       6.262   4.820  16.376  0.00  0.00    +0.000 A 
ATOM     36  S   UNL     1       5.934   5.054  18.045  0.00  0.00    +0.000 S 
ENDBRANCH  25  28
ENDBRANCH   4  20
TORSDOF 4
ENDMDL
MODEL 6
REMARK VINA RESULT:      -9.3      0.610      1.071
REMARK  Name = 
REMARK  4 active torsions:
REMARK  status: ('A' for Active; 'I' for Inactive)
REMARK    1  A    between atoms: C_2  and  C_3
REMARK    2  A    between atoms: C_6  and  N_7
REMARK    3  A    between atoms: C_12  and  C_13
REMARK    4  A    between atoms: C_28  and  N_29
REMARK                            x       y       z     vdW  Elec       q    Type
REMARK                         _______ _______ _______ _____ _____    ______ ____
ROOT
ATOM      1  C   UNL     1       1.839   7.956  19.446  0.00  0.00    +0.000 A 
ATOM      2  C   UNL     1       1.959   8.495  18.164  0.00  0.00    +0.000 A 
ATOM      3  C   UNL     1       1.373   9.719  17.869  0.00  0.00    +0.000 A 
ATOM      4  C   UNL     1       0.729  10.465  18.863  0.00  0.00    +0.000 A 
ATOM      5  C   UNL     1       0.746   9.974  20.175  0.00  0.00    +0.000 A 
ATOM      6  C   UNL     1       1.279   8.720  20.468  0.00  0.00    +0.000 A 
ENDROOT
BRANCH   1   8
ATOM      7  O   UNL     1       1.799   5.975  20.663  0.00  0.00    +0.000 OA
ATOM      8  C   UNL     1       2.332   6.594  19.745  0.00  0.00    +0.000 C 
ATOM      9  N   UNL     1       3.397   6.090  18.999  0.00  0.00    +0.000 N 
ATOM     10  C   UNL     1       3.985   4.836  19.436  0.00  0.00    +0.000 C 
ATOM     11  C   UNL     1       5.502   4.888  19.311  0.00  0.00    +0.000 C 
ATOM     12  C   UNL     1       6.004   5.316  17.919  0.00  0.00    +0.000 C 
ATOM     13  C   UNL     1       5.227   6.553  17.418  0.00  0.00    +0.000 C 
ATOM     14  C   UNL     1       3.717   6.462  17.613  0.00  0.00    +0.000 C 
BRANCH  12  15
ATOM     15  N   UNL     1       6.158   4.272  16.889  0.00  0.00    +0.000 NA
ATOM     16  C   UNL     1       7.334   4.284  16.023  0.00  0.00    +0.000 C 
ATOM     17  C   UNL     1       6.910   4.997  14.756  0.00  0.00    +0.000 C 
ATOM     18  C   UNL     1       5.464   4.590  14.593  0.00  0.00    +0.000 C 
ATOM     19  C   UNL     1       4.996   4.184  15.986  0.00  0.00    +0.000 C 
ENDBRANCH  12  15
ENDBRANCH   1   8
BRANCH   4  20
ATOM     20  N   UNL     1       0.143  11.680  18.489  0.00  0.00    +0.000 N 
ATOM     21  C   UNL     1       0.597  12.989  18.596  0.00  0.00    +0.000 A 
ATOM     22  N   UNL     1      -0.369  13.919  18.554  0.00  0.00    +0.000 NA
ATOM     23  C   UNL     1       0.009  15.196  18.717  0.00  0.00    +0.000 A 
ATOM     24  C   UNL     1       1.309  15.583  18.920  0.00  0.00    +0.000 A 
ATOM     25  C   UNL     1       2.240  14.568  18.944  0.00  0.00    +0.000 A 
ATOM     26  N   UNL     1       1.891  13.278  18.775  0.00  0.00    +0.000 NA
ATOM     27  H   UNL     1      -0.867  11.709  18.506  0.00  0.00    +0.000 HD
BRANCH  25  28
ATOM     28  C   UNL     1       3.682  14.764  19.178  0.00  0.00    +0.000 A 
ATOM     29  C   UNL     1       4.360  14.792  20.386  0.00  0.00    +0.000 A 
ATOM     30  C   UNL     1       5.766  15.042  20.260  0.00  0.00    +0.000 A 
ATOM     31  C   UNL     1       6.780  15.144  21.243  0.00  0.00    +0.000 A 
ATOM     32  C   UNL     1       8.102  15.428  20.873  0.00  0.00    +0.000 A 
ATOM     33  C   UNL     1       8.431  15.596  19.534  0.00  0.00    +0.000 A 
ATOM     34  C   UNL     1       7.452  15.489  18.543  0.00  0.00    +0.000 A 
ATOM     35  C   UNL     1       6.126  15.207  18.924  0.00  0.00    +0.000 A 
ATOM     36  S   UNL     1       4.773  15.025  17.884  0.00  0.00    +0.000 S 
ENDBRANCH  25  28
ENDBRANCH   4  20
TORSDOF 4
ENDMDL
MODEL 7
REMARK VINA RESULT:      -9.3      3.448      4.639
REMARK  Name = 
REMARK  4 active torsions:
REMARK  status: ('A' for Active; 'I' for Inactive)
REMARK    1  A    between atoms: C_2  and  C_3
REMARK    2  A    between atoms: C_6  and  N_7
REMARK    3  A    between atoms: C_12  and  C_13
REMARK    4  A    between atoms: C_28  and  N_29
REMARK                            x       y       z     vdW  Elec       q    Type
REMARK                         _______ _______ _______ _____ _____    ______ ____
ROOT
ATOM      1  C   UNL     1       1.296   8.577  19.935  0.00  0.00    +0.000 A 
ATOM      2  C   UNL     1       1.279   8.420  21.322  0.00  0.00    +0.000 A 
ATOM      3  C   UNL     1       0.586   9.326  22.114  0.00  0.00    +0.000 A 
ATOM      4  C   UNL     1      -0.169  10.353  21.536  0.00  0.00    +0.000 A 
ATOM      5  C   UNL     1      -0.257  10.405  20.139  0.00  0.00    +0.000 A 
ATOM      6  C   UNL     1       0.484   9.538  19.337  0.00  0.00    +0.000 A 
ENDROOT
BRANCH   1   8
ATOM      7  O   UNL     1       2.880   8.249  18.264  0.00  0.00    +0.000 OA
ATOM      8  C   UNL     1       2.141   7.710  19.085  0.00  0.00    +0.000 C 
ATOM      9  N   UNL     1       2.035   6.327  19.226  0.00  0.00    +0.000 N 
ATOM     10  C   UNL     1       2.727   5.499  18.254  0.00  0.00    +0.000 C 
ATOM     11  C   UNL     1       1.863   4.309  17.858  0.00  0.00    +0.000 C 
ATOM     12  C   UNL     1       1.335   3.491  19.051  0.00  0.00    +0.000 C 
ATOM     13  C   UNL     1       0.766   4.425  20.141  0.00  0.00    +0.000 C 
ATOM     14  C   UNL     1       1.652   5.624  20.460  0.00  0.00    +0.000 C 
BRANCH  12  15
ATOM     15  N   UNL     1       2.199   2.425  19.595  0.00  0.00    +0.000 NA
ATOM     16  C   UNL     1       3.120   2.733  20.684  0.00  0.00    +0.000 C 
ATOM     17  C   UNL     1       4.457   3.018  20.031  0.00  0.00    +0.000 C 
ATOM     18  C   UNL     1       4.474   2.081  18.846  0.00  0.00    +0.000 C 
ATOM     19  C   UNL     1       3.011   1.764  18.558  0.00  0.00    +0.000 C 
ENDBRANCH  12  15
ENDBRANCH   1   8
BRANCH   4  20
ATOM     20  N   UNL     1      -0.826  11.242  22.395  0.00  0.00    +0.000 N 
ATOM     21  C   UNL     1      -0.823  12.631  22.457  0.00  0.00    +0.000 A 
ATOM     22  N   UNL     1      -1.192  13.136  23.644  0.00  0.00    +0.000 NA
ATOM     23  C   UNL     1      -1.145  14.470  23.776  0.00  0.00    +0.000 A 
ATOM     24  C   UNL     1      -0.746  15.320  22.776  0.00  0.00    +0.000 A 
ATOM     25  C   UNL     1      -0.389  14.721  21.588  0.00  0.00    +0.000 A 
ATOM     26  N   UNL     1      -0.434  13.384  21.423  0.00  0.00    +0.000 NA
ATOM     27  H   UNL     1      -1.014  10.900  23.327  0.00  0.00    +0.000 HD
BRANCH  25  28
ATOM     28  C   UNL     1       0.096  15.447  20.401  0.00  0.00    +0.000 A 
ATOM     29  C   UNL     1       1.343  15.375  19.801  0.00  0.00    +0.000 A 
ATOM     30  C   UNL     1       1.499  16.249  18.674  0.00  0.00    +0.000 A 
ATOM     31  C   UNL     1       2.604  16.461  17.813  0.00  0.00    +0.000 A 
ATOM     32  C   UNL     1       2.526  17.405  16.780  0.00  0.00    +0.000 A 
ATOM     33  C   UNL     1       1.358  18.129  16.582  0.00  0.00    +0.000 A 
ATOM     34  C   UNL     1       0.250  17.930  17.409  0.00  0.00    +0.000 A 
ATOM     35  C   UNL     1       0.337  16.983  18.447  0.00  0.00    +0.000 A 
ATOM     36  S   UNL     1      -0.893  16.572  19.571  0.00  0.00    +0.000 S 
ENDBRANCH  25  28
ENDBRANCH   4  20
TORSDOF 4
ENDMDL
MODEL 8
REMARK VINA RESULT:      -9.2      1.088      1.312
REMARK  Name = 
REMARK  4 active torsions:
REMARK  status: ('A' for Active; 'I' for Inactive)
REMARK    1  A    between atoms: C_2  and  C_3
REMARK    2  A    between atoms: C_6  and  N_7
REMARK    3  A    between atoms: C_12  and  C_13
REMARK    4  A    between atoms: C_28  and  N_29
REMARK                            x       y       z     vdW  Elec       q    Type
REMARK                         _______ _______ _______ _____ _____    ______ ____
ROOT
ATOM      1  C   UNL     1       2.173   7.689  19.223  0.00  0.00    +0.000 A 
ATOM      2  C   UNL     1       1.956   8.375  18.026  0.00  0.00    +0.000 A 
ATOM      3  C   UNL     1       1.120   9.484  18.005  0.00  0.00    +0.000 A 
ATOM      4  C   UNL     1       0.552   9.977  19.185  0.00  0.00    +0.000 A 
ATOM      5  C   UNL     1       0.899   9.363  20.395  0.00  0.00    +0.000 A 
ATOM      6  C   UNL     1       1.688   8.214  20.419  0.00  0.00    +0.000 A 
ENDROOT
BRANCH   1   8
ATOM      7  O   UNL     1       2.550   5.522  19.975  0.00  0.00    +0.000 OA
ATOM      8  C   UNL     1       2.944   6.427  19.243  0.00  0.00    +0.000 C 
ATOM      9  N   UNL     1       4.096   6.335  18.464  0.00  0.00    +0.000 N 
ATOM     10  C   UNL     1       4.937   5.165  18.647  0.00  0.00    +0.000 C 
ATOM     11  C   UNL     1       6.408   5.557  18.618  0.00  0.00    +0.000 C 
ATOM     12  C   UNL     1       6.815   6.381  17.382  0.00  0.00    +0.000 C 
ATOM     13  C   UNL     1       5.794   7.510  17.122  0.00  0.00    +0.000 C 
ATOM     14  C   UNL     1       4.338   7.067  17.211  0.00  0.00    +0.000 C 
BRANCH  12  15
ATOM     15  N   UNL     1       7.195   5.649  16.158  0.00  0.00    +0.000 NA
ATOM     16  C   UNL     1       6.412   5.832  14.940  0.00  0.00    +0.000 C 
ATOM     17  C   UNL     1       5.417   4.691  14.908  0.00  0.00    +0.000 C 
ATOM     18  C   UNL     1       6.180   3.544  15.529  0.00  0.00    +0.000 C 
ATOM     19  C   UNL     1       7.277   4.192  16.367  0.00  0.00    +0.000 C 
ENDBRANCH  12  15
ENDBRANCH   1   8
BRANCH   4  20
ATOM     20  N   UNL     1      -0.297  11.086  19.086  0.00  0.00    +0.000 N 
ATOM     21  C   UNL     1      -0.036  12.450  19.132  0.00  0.00    +0.000 A 
ATOM     22  N   UNL     1      -1.095  13.210  19.446  0.00  0.00    +0.000 NA
ATOM     23  C   UNL     1      -0.881  14.530  19.566  0.00  0.00    +0.000 A 
ATOM     24  C   UNL     1       0.343  15.121  19.386  0.00  0.00    +0.000 A 
ATOM     25  C   UNL     1       1.377  14.270  19.061  0.00  0.00    +0.000 A 
ATOM     26  N   UNL     1       1.190  12.943  18.924  0.00  0.00    +0.000 NA
ATOM     27  H   UNL     1      -1.244  10.950  19.413  0.00  0.00    +0.000 HD
BRANCH  25  28
ATOM     28  C   UNL     1       2.773  14.695  18.854  0.00  0.00    +0.000 A 
ATOM     29  C   UNL     1       3.792  14.013  18.209  0.00  0.00    +0.000 A 
ATOM     30  C   UNL     1       5.051  14.699  18.218  0.00  0.00    +0.000 A 
ATOM     31  C   UNL     1       6.307  14.336  17.674  0.00  0.00    +0.000 A 
ATOM     32  C   UNL     1       7.420  15.172  17.839  0.00  0.00    +0.000 A 
ATOM     33  C   UNL     1       7.295  16.373  18.526  0.00  0.00    +0.000 A 
ATOM     34  C   UNL     1       6.064  16.761  19.062  0.00  0.00    +0.000 A 
ATOM     35  C   UNL     1       4.952  15.913  18.895  0.00  0.00    +0.000 A 
ATOM     36  S   UNL     1       3.355  16.189  19.459  0.00  0.00    +0.000 S 
ENDBRANCH  25  28
ENDBRANCH   4  20
TORSDOF 4
ENDMDL
MODEL 9
REMARK VINA RESULT:      -9.1      3.481      9.996
REMARK  Name = 
REMARK  4 active torsions:
REMARK  status: ('A' for Active; 'I' for Inactive)
REMARK    1  A    between atoms: C_2  and  C_3
REMARK    2  A    between atoms: C_6  and  N_7
REMARK    3  A    between atoms: C_12  and  C_13
REMARK    4  A    between atoms: C_28  and  N_29
REMARK                            x       y       z     vdW  Elec       q    Type
REMARK                         _______ _______ _______ _____ _____    ______ ____
ROOT
ATOM      1  C   UNL     1       0.579   9.749  19.648  0.00  0.00    +0.000 A 
ATOM      2  C   UNL     1       0.104   9.377  20.907  0.00  0.00    +0.000 A 
ATOM      3  C   UNL     1       0.486   8.162  21.460  0.00  0.00    +0.000 A 
ATOM      4  C   UNL     1       1.410   7.336  20.809  0.00  0.00    +0.000 A 
ATOM      5  C   UNL     1       1.986   7.796  19.618  0.00  0.00    +0.000 A 
ATOM      6  C   UNL     1       1.564   8.985  19.026  0.00  0.00    +0.000 A 
ENDROOT
BRANCH   1   8
ATOM      7  O   UNL     1      -0.733  10.835  18.065  0.00  0.00    +0.000 OA
ATOM      8  C   UNL     1       0.077  10.969  18.979  0.00  0.00    +0.000 C 
ATOM      9  N   UNL     1       0.569  12.208  19.389  0.00  0.00    +0.000 N 
ATOM     10  C   UNL     1       0.208  13.368  18.594  0.00  0.00    +0.000 C 
ATOM     11  C   UNL     1       1.403  14.302  18.444  0.00  0.00    +0.000 C 
ATOM     12  C   UNL     1       2.068  14.691  19.777  0.00  0.00    +0.000 C 
ATOM     13  C   UNL     1       2.273  13.445  20.665  0.00  0.00    +0.000 C 
ATOM     14  C   UNL     1       1.060  12.524  20.739  0.00  0.00    +0.000 C 
BRANCH  12  15
ATOM     15  N   UNL     1       1.516  15.844  20.513  0.00  0.00    +0.000 NA
ATOM     16  C   UNL     1       0.673  16.808  19.812  0.00  0.00    +0.000 C 
ATOM     17  C   UNL     1       1.591  17.941  19.399  0.00  0.00    +0.000 C 
ATOM     18  C   UNL     1       2.587  18.014  20.533  0.00  0.00    +0.000 C 
ATOM     19  C   UNL     1       2.556  16.639  21.191  0.00  0.00    +0.000 C 
ENDBRANCH  12  15
ENDBRANCH   1   8
BRANCH   4  20
ATOM     20  N   UNL     1       1.734   6.116  21.416  0.00  0.00    +0.000 N 
ATOM     21  C   UNL     1       2.382   4.989  20.924  0.00  0.00    +0.000 A 
ATOM     22  N   UNL     1       2.138   3.863  21.610  0.00  0.00    +0.000 NA
ATOM     23  C   UNL     1       2.688   2.734  21.138  0.00  0.00    +0.000 A 
ATOM     24  C   UNL     1       3.470   2.682  20.012  0.00  0.00    +0.000 A 
ATOM     25  C   UNL     1       3.675   3.883  19.370  0.00  0.00    +0.000 A 
ATOM     26  N   UNL     1       3.143   5.034  19.825  0.00  0.00    +0.000 NA
ATOM     27  H   UNL     1       1.114   5.809  22.153  0.00  0.00    +0.000 HD
BRANCH  25  28
ATOM     28  C   UNL     1       4.456   4.043  18.130  0.00  0.00    +0.000 A 
ATOM     29  C   UNL     1       5.685   4.662  17.963  0.00  0.00    +0.000 A 
ATOM     30  C   UNL     1       6.152   4.675  16.607  0.00  0.00    +0.000 A 
ATOM     31  C   UNL     1       7.338   5.203  16.042  0.00  0.00    +0.000 A 
ATOM     32  C   UNL     1       7.564   5.119  14.661  0.00  0.00    +0.000 A 
ATOM     33  C   UNL     1       6.632   4.503  13.837  0.00  0.00    +0.000 A 
ATOM     34  C   UNL     1       5.458   3.963  14.370  0.00  0.00    +0.000 A 
ATOM     35  C   UNL     1       5.237   4.055  15.758  0.00  0.00    +0.000 A 
ATOM     36  S   UNL     1       3.881   3.460  16.626  0.00  0.00    +0.000 S 
ENDBRANCH  25  28
ENDBRANCH   4  20
TORSDOF 4
ENDMDL
