MODEL 1
REMARK VINA RESULT:      -7.6      0.000      0.000
REMARK  Name = 
REMARK  7 active torsions:
REMARK  status: ('A' for Active; 'I' for Inactive)
REMARK    1  A    between atoms: C_1  and  O_2
REMARK    2  A    between atoms: O_2  and  C_3
REMARK    3  A    between atoms: C_3  and  C_5
REMARK    4  A    between atoms: C_5  and  C_6
REMARK    5  A    between atoms: C_5  and  N_13
REMARK    6  A    between atoms: C_11  and  C_12
REMARK    7  A    between atoms: C_16  and  N_17
REMARK                            x       y       z     vdW  Elec       q    Type
REMARK                         _______ _______ _______ _____ _____    ______ ____
ROOT
ATOM      1  C   UNL     1       2.766   6.105  18.186  0.00  0.00    +0.000 C 
ENDROOT
BRANCH   1   2
ATOM      2  C   UNL     1       2.172   7.160  19.147  0.00  0.00    +0.000 A 
ATOM      3  C   UNL     1       1.902   6.816  20.490  0.00  0.00    +0.000 A 
ATOM      4  C   UNL     1       1.211   7.670  21.353  0.00  0.00    +0.000 A 
ATOM      5  C   UNL     1       0.803   8.914  20.913  0.00  0.00    +0.000 A 
ATOM      6  C   UNL     1       1.131   9.325  19.623  0.00  0.00    +0.000 A 
ATOM      7  C   UNL     1       1.825   8.474  18.740  0.00  0.00    +0.000 A 
ATOM      8  C   UNL     1       2.186   9.040  17.387  0.00  0.00    +0.000 C 
ENDBRANCH   1   2
BRANCH   1   9
ATOM      9  N   UNL     1       4.254   5.905  18.351  0.00  0.00    +0.000 NA
ATOM     10  C   UNL     1       4.665   4.510  18.137  0.00  0.00    +0.000 C 
ATOM     11  C   UNL     1       6.180   4.312  18.258  0.00  0.00    +0.000 C 
ATOM     12  C   UNL     1       6.949   5.240  17.305  0.00  0.00    +0.000 C 
ATOM     13  C   UNL     1       6.518   6.681  17.626  0.00  0.00    +0.000 C 
ATOM     14  C   UNL     1       4.999   6.852  17.501  0.00  0.00    +0.000 C 
BRANCH  12  15
ATOM     15  N   UNL     1       6.810   4.895  15.890  0.00  0.00    +0.000 N 
ATOM     16  C   UNL     1       6.097   3.886  15.316  0.00  0.00    +0.000 A 
ATOM     17  C   UNL     1       6.338   4.028  13.964  0.00  0.00    +0.000 A 
ATOM     18  N   UNL     1       7.210   5.059  13.771  0.00  0.00    +0.000 NA
ATOM     19  N   UNL     1       7.519   5.564  14.954  0.00  0.00    +0.000 NA
ENDBRANCH  12  15
ENDBRANCH   1   9
BRANCH   1  20
ATOM     20  C   UNL     1       1.982   4.744  18.193  0.00  0.00    +0.000 C 
ATOM     21  O   UNL     1       1.262   4.329  17.288  0.00  0.00    +0.000 OA
BRANCH  20  23
ATOM     22  C   UNL     1       1.053   3.208  19.686  0.00  0.00    +0.000 C 
ATOM     23  O   UNL     1       2.160   4.063  19.365  0.00  0.00    +0.000 OA
ENDBRANCH  20  23
ENDBRANCH   1  20
TORSDOF 5
ENDMDL
MODEL 2
REMARK VINA RESULT:      -7.4      2.642      5.171
REMARK  Name = 
REMARK  7 active torsions:
REMARK  status: ('A' for Active; 'I' for Inactive)
REMARK    1  A    between atoms: C_1  and  O_2
REMARK    2  A    between atoms: O_2  and  C_3
REMARK    3  A    between atoms: C_3  and  C_5
REMARK    4  A    between atoms: C_5  and  C_6
REMARK    5  A    between atoms: C_5  and  N_13
REMARK    6  A    between atoms: C_11  and  C_12
REMARK    7  A    between atoms: C_16  and  N_17
REMARK                            x       y       z     vdW  Elec       q    Type
REMARK                         _______ _______ _______ _____ _____    ______ ____
ROOT
ATOM      1  C   UNL     1       4.222   6.321  17.874  0.00  0.00    +0.000 C 
ENDROOT
BRANCH   1   2
ATOM      2  C   UNL     1       3.098   7.300  18.285  0.00  0.00    +0.000 A 
ATOM      3  C   UNL     1       2.711   8.336  17.406  0.00  0.00    +0.000 A 
ATOM      4  C   UNL     1       1.828   9.348  17.792  0.00  0.00    +0.000 A 
ATOM      5  C   UNL     1       1.271   9.334  19.055  0.00  0.00    +0.000 A 
ATOM      6  C   UNL     1       1.558   8.278  19.918  0.00  0.00    +0.000 A 
ATOM      7  C   UNL     1       2.449   7.252  19.545  0.00  0.00    +0.000 A 
ATOM      8  C   UNL     1       2.641   6.122  20.529  0.00  0.00    +0.000 C 
ENDBRANCH   1   2
BRANCH   1   9
ATOM      9  N   UNL     1       3.730   4.921  17.588  0.00  0.00    +0.000 NA
ATOM     10  C   UNL     1       4.495   3.894  18.309  0.00  0.00    +0.000 C 
ATOM     11  C   UNL     1       3.970   2.477  18.058  0.00  0.00    +0.000 C 
ATOM     12  C   UNL     1       2.477   2.359  18.399  0.00  0.00    +0.000 C 
ATOM     13  C   UNL     1       1.734   3.416  17.565  0.00  0.00    +0.000 C 
ATOM     14  C   UNL     1       2.279   4.824  17.832  0.00  0.00    +0.000 C 
BRANCH  12  15
ATOM     15  N   UNL     1       2.179   2.435  19.830  0.00  0.00    +0.000 N 
ATOM     16  C   UNL     1       0.989   2.668  20.450  0.00  0.00    +0.000 A 
ATOM     17  C   UNL     1       1.298   2.642  21.795  0.00  0.00    +0.000 A 
ATOM     18  N   UNL     1       2.641   2.452  21.942  0.00  0.00    +0.000 NA
ATOM     19  N   UNL     1       3.178   2.357  20.737  0.00  0.00    +0.000 NA
ENDBRANCH  12  15
ENDBRANCH   1   9
BRANCH   1  20
ATOM     20  C   UNL     1       5.139   6.872  16.724  0.00  0.00    +0.000 C 
ATOM     21  O   UNL     1       4.945   6.719  15.521  0.00  0.00    +0.000 OA
BRANCH  20  23
ATOM     22  C   UNL     1       7.337   6.654  17.481  0.00  0.00    +0.000 C 
ATOM     23  O   UNL     1       6.230   7.530  17.218  0.00  0.00    +0.000 OA
ENDBRANCH  20  23
ENDBRANCH   1  20
TORSDOF 5
ENDMDL
MODEL 3
REMARK VINA RESULT:      -7.3      2.179      4.105
REMARK  Name = 
REMARK  7 active torsions:
REMARK  status: ('A' for Active; 'I' for Inactive)
REMARK    1  A    between atoms: C_1  and  O_2
REMARK    2  A    between atoms: O_2  and  C_3
REMARK    3  A    between atoms: C_3  and  C_5
REMARK    4  A    between atoms: C_5  and  C_6
REMARK    5  A    between atoms: C_5  and  N_13
REMARK    6  A    between atoms: C_11  and  C_12
REMARK    7  A    between atoms: C_16  and  N_17
REMARK                            x       y       z     vdW  Elec       q    Type
REMARK                         _______ _______ _______ _____ _____    ______ ____
ROOT
ATOM      1  C   UNL     1       3.205   6.012  19.429  0.00  0.00    +0.000 C 
ENDROOT
BRANCH   1   2
ATOM      2  C   UNL     1       2.380   4.792  19.901  0.00  0.00    +0.000 A 
ATOM      3  C   UNL     1       2.363   4.439  21.268  0.00  0.00    +0.000 A 
ATOM      4  C   UNL     1       1.779   3.255  21.724  0.00  0.00    +0.000 A 
ATOM      5  C   UNL     1       1.156   2.404  20.832  0.00  0.00    +0.000 A 
ATOM      6  C   UNL     1       1.072   2.764  19.489  0.00  0.00    +0.000 A 
ATOM      7  C   UNL     1       1.659   3.953  19.013  0.00  0.00    +0.000 A 
ATOM      8  C   UNL     1       1.456   4.279  17.552  0.00  0.00    +0.000 C 
ENDBRANCH   1   2
BRANCH   1   9
ATOM      9  N   UNL     1       4.170   5.695  18.312  0.00  0.00    +0.000 NA
ATOM     10  C   UNL     1       4.359   6.823  17.389  0.00  0.00    +0.000 C 
ATOM     11  C   UNL     1       5.374   6.521  16.281  0.00  0.00    +0.000 C 
ATOM     12  C   UNL     1       6.727   6.079  16.858  0.00  0.00    +0.000 C 
ATOM     13  C   UNL     1       6.463   4.862  17.759  0.00  0.00    +0.000 C 
ATOM     14  C   UNL     1       5.443   5.189  18.858  0.00  0.00    +0.000 C 
BRANCH  12  15
ATOM     15  N   UNL     1       7.470   7.147  17.528  0.00  0.00    +0.000 N 
ATOM     16  C   UNL     1       8.233   7.088  18.655  0.00  0.00    +0.000 A 
ATOM     17  C   UNL     1       8.679   8.383  18.831  0.00  0.00    +0.000 A 
ATOM     18  N   UNL     1       8.142   9.175  17.860  0.00  0.00    +0.000 NA
ATOM     19  N   UNL     1       7.380   8.420  17.085  0.00  0.00    +0.000 NA
ENDBRANCH  12  15
ENDBRANCH   1   9
BRANCH   1  20
ATOM     20  C   UNL     1       2.325   7.273  19.110  0.00  0.00    +0.000 C 
ATOM     21  O   UNL     1       1.989   7.644  17.988  0.00  0.00    +0.000 OA
BRANCH  20  23
ATOM     22  C   UNL     1       1.112   9.064  19.988  0.00  0.00    +0.000 C 
ATOM     23  O   UNL     1       1.991   7.958  20.244  0.00  0.00    +0.000 OA
ENDBRANCH  20  23
ENDBRANCH   1  20
TORSDOF 5
ENDMDL
MODEL 4
REMARK VINA RESULT:      -7.1      2.106      2.853
REMARK  Name = 
REMARK  7 active torsions:
REMARK  status: ('A' for Active; 'I' for Inactive)
REMARK    1  A    between atoms: C_1  and  O_2
REMARK    2  A    between atoms: O_2  and  C_3
REMARK    3  A    between atoms: C_3  and  C_5
REMARK    4  A    between atoms: C_5  and  C_6
REMARK    5  A    between atoms: C_5  and  N_13
REMARK    6  A    between atoms: C_11  and  C_12
REMARK    7  A    between atoms: C_16  and  N_17
REMARK                            x       y       z     vdW  Elec       q    Type
REMARK                         _______ _______ _______ _____ _____    ______ ____
ROOT
ATOM      1  C   UNL     1       3.439   4.988  17.741  0.00  0.00    +0.000 C 
ENDROOT
BRANCH   1   2
ATOM      2  C   UNL     1       2.799   5.871  18.836  0.00  0.00    +0.000 A 
ATOM      3  C   UNL     1       2.294   5.278  20.014  0.00  0.00    +0.000 A 
ATOM      4  C   UNL     1       1.556   6.002  20.954  0.00  0.00    +0.000 A 
ATOM      5  C   UNL     1       1.334   7.352  20.768  0.00  0.00    +0.000 A 
ATOM      6  C   UNL     1       1.895   7.991  19.664  0.00  0.00    +0.000 A 
ATOM      7  C   UNL     1       2.639   7.275  18.705  0.00  0.00    +0.000 A 
ATOM      8  C   UNL     1       3.256   8.074  17.582  0.00  0.00    +0.000 C 
ENDBRANCH   1   2
BRANCH   1   9
ATOM      9  N   UNL     1       4.901   4.691  17.980  0.00  0.00    +0.000 NA
ATOM     10  C   UNL     1       5.741   5.012  16.817  0.00  0.00    +0.000 C 
ATOM     11  C   UNL     1       7.231   4.757  17.072  0.00  0.00    +0.000 C 
ATOM     12  C   UNL     1       7.731   5.516  18.309  0.00  0.00    +0.000 C 
ATOM     13  C   UNL     1       6.851   5.086  19.495  0.00  0.00    +0.000 C 
ATOM     14  C   UNL     1       5.366   5.349  19.215  0.00  0.00    +0.000 C 
BRANCH  12  15
ATOM     15  N   UNL     1       7.800   6.968  18.136  0.00  0.00    +0.000 N 
ATOM     16  C   UNL     1       7.180   7.755  17.213  0.00  0.00    +0.000 A 
ATOM     17  C   UNL     1       7.614   9.031  17.510  0.00  0.00    +0.000 A 
ATOM     18  N   UNL     1       8.502   8.972  18.543  0.00  0.00    +0.000 NA
ATOM     19  N   UNL     1       8.635   7.705  18.901  0.00  0.00    +0.000 NA
ENDBRANCH  12  15
ENDBRANCH   1   9
BRANCH   1  20
ATOM     20  C   UNL     1       2.615   3.687  17.431  0.00  0.00    +0.000 C 
ATOM     21  O   UNL     1       1.425   3.650  17.128  0.00  0.00    +0.000 OA
BRANCH  20  23
ATOM     22  C   UNL     1       2.847   1.652  18.551  0.00  0.00    +0.000 C 
ATOM     23  O   UNL     1       3.375   2.559  17.573  0.00  0.00    +0.000 OA
ENDBRANCH  20  23
ENDBRANCH   1  20
TORSDOF 5
ENDMDL
MODEL 5
REMARK VINA RESULT:      -7.1      2.779      6.158
REMARK  Name = 
REMARK  7 active torsions:
REMARK  status: ('A' for Active; 'I' for Inactive)
REMARK    1  A    between atoms: C_1  and  O_2
REMARK    2  A    between atoms: O_2  and  C_3
REMARK    3  A    between atoms: C_3  and  C_5
REMARK    4  A    between atoms: C_5  and  C_6
REMARK    5  A    between atoms: C_5  and  N_13
REMARK    6  A    between atoms: C_11  and  C_12
REMARK    7  A    between atoms: C_16  and  N_17
REMARK                            x       y       z     vdW  Elec       q    Type
REMARK                         _______ _______ _______ _____ _____    ______ ____
ROOT
ATOM      1  C   UNL     1       6.047   5.058  17.054  0.00  0.00    +0.000 C 
ENDROOT
BRANCH   1   2
ATOM      2  C   UNL     1       6.774   6.309  17.597  0.00  0.00    +0.000 A 
ATOM      3  C   UNL     1       6.571   7.564  16.982  0.00  0.00    +0.000 A 
ATOM      4  C   UNL     1       7.327   8.689  17.319  0.00  0.00    +0.000 A 
ATOM      5  C   UNL     1       8.284   8.607  18.311  0.00  0.00    +0.000 A 
ATOM      6  C   UNL     1       8.449   7.409  19.004  0.00  0.00    +0.000 A 
ATOM      7  C   UNL     1       7.697   6.265  18.674  0.00  0.00    +0.000 A 
ATOM      8  C   UNL     1       7.909   5.037  19.528  0.00  0.00    +0.000 C 
ENDBRANCH   1   2
BRANCH   1   9
ATOM      9  N   UNL     1       4.542   5.138  17.159  0.00  0.00    +0.000 NA
ATOM     10  C   UNL     1       3.902   3.815  17.133  0.00  0.00    +0.000 C 
ATOM     11  C   UNL     1       2.379   3.889  17.287  0.00  0.00    +0.000 C 
ATOM     12  C   UNL     1       1.976   4.646  18.562  0.00  0.00    +0.000 C 
ATOM     13  C   UNL     1       2.627   6.037  18.492  0.00  0.00    +0.000 C 
ATOM     14  C   UNL     1       4.149   5.935  18.336  0.00  0.00    +0.000 C 
BRANCH  12  15
ATOM     15  N   UNL     1       2.271   3.929  19.803  0.00  0.00    +0.000 N 
ATOM     16  C   UNL     1       2.781   2.678  19.974  0.00  0.00    +0.000 A 
ATOM     17  C   UNL     1       2.835   2.518  21.344  0.00  0.00    +0.000 A 
ATOM     18  N   UNL     1       2.319   3.629  21.944  0.00  0.00    +0.000 NA
ATOM     19  N   UNL     1       1.947   4.474  20.996  0.00  0.00    +0.000 NA
ENDBRANCH  12  15
ENDBRANCH   1   9
BRANCH   1  20
ATOM     20  C   UNL     1       6.518   4.640  15.615  0.00  0.00    +0.000 C 
ATOM     21  O   UNL     1       7.662   4.743  15.179  0.00  0.00    +0.000 OA
BRANCH  20  23
ATOM     22  C   UNL     1       5.886   3.781  13.538  0.00  0.00    +0.000 C 
ATOM     23  O   UNL     1       5.481   4.168  14.859  0.00  0.00    +0.000 OA
ENDBRANCH  20  23
ENDBRANCH   1  20
TORSDOF 5
ENDMDL
MODEL 6
REMARK VINA RESULT:      -7.1      1.530      3.710
REMARK  Name = 
REMARK  7 active torsions:
REMARK  status: ('A' for Active; 'I' for Inactive)
REMARK    1  A    between atoms: C_1  and  O_2
REMARK    2  A    between atoms: O_2  and  C_3
REMARK    3  A    between atoms: C_3  and  C_5
REMARK    4  A    between atoms: C_5  and  C_6
REMARK    5  A    between atoms: C_5  and  N_13
REMARK    6  A    between atoms: C_11  and  C_12
REMARK    7  A    between atoms: C_16  and  N_17
REMARK                            x       y       z     vdW  Elec       q    Type
REMARK                         _______ _______ _______ _____ _____    ______ ____
ROOT
ATOM      1  C   UNL     1       3.469   5.842  19.369  0.00  0.00    +0.000 C 
ENDROOT
BRANCH   1   2
ATOM      2  C   UNL     1       3.001   4.412  19.012  0.00  0.00    +0.000 A 
ATOM      3  C   UNL     1       3.138   3.936  17.689  0.00  0.00    +0.000 A 
ATOM      4  C   UNL     1       2.580   2.725  17.273  0.00  0.00    +0.000 A 
ATOM      5  C   UNL     1       1.902   1.930  18.176  0.00  0.00    +0.000 A 
ATOM      6  C   UNL     1       1.826   2.323  19.511  0.00  0.00    +0.000 A 
ATOM      7  C   UNL     1       2.380   3.543  19.946  0.00  0.00    +0.000 A 
ATOM      8  C   UNL     1       2.298   3.844  21.424  0.00  0.00    +0.000 C 
ENDBRANCH   1   2
BRANCH   1   9
ATOM      9  N   UNL     1       4.912   6.113  19.015  0.00  0.00    +0.000 NA
ATOM     10  C   UNL     1       5.718   4.886  18.944  0.00  0.00    +0.000 C 
ATOM     11  C   UNL     1       7.172   5.153  18.539  0.00  0.00    +0.000 C 
ATOM     12  C   UNL     1       7.257   5.917  17.210  0.00  0.00    +0.000 C 
ATOM     13  C   UNL     1       6.448   7.214  17.376  0.00  0.00    +0.000 C 
ATOM     14  C   UNL     1       4.998   6.921  17.784  0.00  0.00    +0.000 C 
BRANCH  12  15
ATOM     15  N   UNL     1       6.862   5.133  16.040  0.00  0.00    +0.000 N 
ATOM     16  C   UNL     1       6.130   3.985  15.981  0.00  0.00    +0.000 A 
ATOM     17  C   UNL     1       6.078   3.686  14.634  0.00  0.00    +0.000 A 
ATOM     18  N   UNL     1       6.805   4.609  13.943  0.00  0.00    +0.000 NA
ATOM     19  N   UNL     1       7.307   5.473  14.810  0.00  0.00    +0.000 NA
ENDBRANCH  12  15
ENDBRANCH   1   9
BRANCH   1  20
ATOM     20  C   UNL     1       2.508   6.963  18.833  0.00  0.00    +0.000 C 
ATOM     21  O   UNL     1       2.128   7.083  17.671  0.00  0.00    +0.000 OA
BRANCH  20  23
ATOM     22  C   UNL     1       1.427   8.974  19.321  0.00  0.00    +0.000 C 
ATOM     23  O   UNL     1       2.156   7.842  19.819  0.00  0.00    +0.000 OA
ENDBRANCH  20  23
ENDBRANCH   1  20
TORSDOF 5
ENDMDL
MODEL 7
REMARK VINA RESULT:      -7.0      1.784      2.749
REMARK  Name = 
REMARK  7 active torsions:
REMARK  status: ('A' for Active; 'I' for Inactive)
REMARK    1  A    between atoms: C_1  and  O_2
REMARK    2  A    between atoms: O_2  and  C_3
REMARK    3  A    between atoms: C_3  and  C_5
REMARK    4  A    between atoms: C_5  and  C_6
REMARK    5  A    between atoms: C_5  and  N_13
REMARK    6  A    between atoms: C_11  and  C_12
REMARK    7  A    between atoms: C_16  and  N_17
REMARK                            x       y       z     vdW  Elec       q    Type
REMARK                         _______ _______ _______ _____ _____    ______ ____
ROOT
ATOM      1  C   UNL     1       3.319   4.427  17.722  0.00  0.00    +0.000 C 
ENDROOT
BRANCH   1   2
ATOM      2  C   UNL     1       2.821   5.441  18.778  0.00  0.00    +0.000 A 
ATOM      3  C   UNL     1       2.330   4.981  20.020  0.00  0.00    +0.000 A 
ATOM      4  C   UNL     1       1.711   5.833  20.937  0.00  0.00    +0.000 A 
ATOM      5  C   UNL     1       1.599   7.182  20.661  0.00  0.00    +0.000 A 
ATOM      6  C   UNL     1       2.153   7.688  19.487  0.00  0.00    +0.000 A 
ATOM      7  C   UNL     1       2.778   6.841  18.550  0.00  0.00    +0.000 A 
ATOM      8  C   UNL     1       3.401   7.499  17.341  0.00  0.00    +0.000 C 
ENDBRANCH   1   2
BRANCH   1   9
ATOM      9  N   UNL     1       4.805   4.165  17.789  0.00  0.00    +0.000 NA
ATOM     10  C   UNL     1       5.507   4.566  16.562  0.00  0.00    +0.000 C 
ATOM     11  C   UNL     1       7.021   4.346  16.643  0.00  0.00    +0.000 C 
ATOM     12  C   UNL     1       7.632   5.061  17.857  0.00  0.00    +0.000 C 
ATOM     13  C   UNL     1       6.896   4.548  19.106  0.00  0.00    +0.000 C 
ATOM     14  C   UNL     1       5.384   4.778  18.999  0.00  0.00    +0.000 C 
BRANCH  12  15
ATOM     15  N   UNL     1       7.645   6.520  17.750  0.00  0.00    +0.000 N 
ATOM     16  C   UNL     1       8.245   7.437  18.559  0.00  0.00    +0.000 A 
ATOM     17  C   UNL     1       7.919   8.653  17.993  0.00  0.00    +0.000 A 
ATOM     18  N   UNL     1       7.108   8.442  16.917  0.00  0.00    +0.000 NA
ATOM     19  N   UNL     1       6.919   7.139  16.792  0.00  0.00    +0.000 NA
ENDBRANCH  12  15
ENDBRANCH   1   9
BRANCH   1  20
ATOM     20  C   UNL     1       2.485   3.097  17.694  0.00  0.00    +0.000 C 
ATOM     21  O   UNL     1       2.949   1.965  17.573  0.00  0.00    +0.000 OA
BRANCH  20  23
ATOM     22  C   UNL     1       0.479   2.450  18.698  0.00  0.00    +0.000 C 
ATOM     23  O   UNL     1       1.143   3.338  17.786  0.00  0.00    +0.000 OA
ENDBRANCH  20  23
ENDBRANCH   1  20
TORSDOF 5
ENDMDL
MODEL 8
REMARK VINA RESULT:      -6.9      0.652      1.545
REMARK  Name = 
REMARK  7 active torsions:
REMARK  status: ('A' for Active; 'I' for Inactive)
REMARK    1  A    between atoms: C_1  and  O_2
REMARK    2  A    between atoms: O_2  and  C_3
REMARK    3  A    between atoms: C_3  and  C_5
REMARK    4  A    between atoms: C_5  and  C_6
REMARK    5  A    between atoms: C_5  and  N_13
REMARK    6  A    between atoms: C_11  and  C_12
REMARK    7  A    between atoms: C_16  and  N_17
REMARK                            x       y       z     vdW  Elec       q    Type
REMARK                         _______ _______ _______ _____ _____    ______ ____
ROOT
ATOM      1  C   UNL     1       2.802   5.825  17.734  0.00  0.00    +0.000 C 
ENDROOT
BRANCH   1   2
ATOM      2  C   UNL     1       2.181   6.994  18.531  0.00  0.00    +0.000 A 
ATOM      3  C   UNL     1       1.837   8.194  17.870  0.00  0.00    +0.000 A 
ATOM      4  C   UNL     1       1.435   9.338  18.563  0.00  0.00    +0.000 A 
ATOM      5  C   UNL     1       1.323   9.308  19.940  0.00  0.00    +0.000 A 
ATOM      6  C   UNL     1       1.565   8.116  20.619  0.00  0.00    +0.000 A 
ATOM      7  C   UNL     1       1.975   6.954  19.935  0.00  0.00    +0.000 A 
ATOM      8  C   UNL     1       2.149   5.700  20.758  0.00  0.00    +0.000 C 
ENDBRANCH   1   2
BRANCH   1   9
ATOM      9  N   UNL     1       4.289   5.667  17.950  0.00  0.00    +0.000 NA
ATOM     10  C   UNL     1       4.759   4.302  17.677  0.00  0.00    +0.000 C 
ATOM     11  C   UNL     1       6.274   4.149  17.850  0.00  0.00    +0.000 C 
ATOM     12  C   UNL     1       7.046   5.156  16.983  0.00  0.00    +0.000 C 
ATOM     13  C   UNL     1       6.550   6.560  17.365  0.00  0.00    +0.000 C 
ATOM     14  C   UNL     1       5.032   6.686  17.186  0.00  0.00    +0.000 C 
BRANCH  12  15
ATOM     15  N   UNL     1       6.977   4.887  15.546  0.00  0.00    +0.000 N 
ATOM     16  C   UNL     1       6.253   3.945  14.881  0.00  0.00    +0.000 A 
ATOM     17  C   UNL     1       6.581   4.140  13.554  0.00  0.00    +0.000 A 
ATOM     18  N   UNL     1       7.511   5.133  13.466  0.00  0.00    +0.000 NA
ATOM     19  N   UNL     1       7.771   5.565  14.689  0.00  0.00    +0.000 NA
ENDBRANCH  12  15
ENDBRANCH   1   9
BRANCH   1  20
ATOM     20  C   UNL     1       2.031   4.469  17.916  0.00  0.00    +0.000 C 
ATOM     21  O   UNL     1       0.994   4.153  17.338  0.00  0.00    +0.000 OA
BRANCH  20  23
ATOM     22  C   UNL     1       1.905   2.450  19.082  0.00  0.00    +0.000 C 
ATOM     23  O   UNL     1       2.634   3.663  18.841  0.00  0.00    +0.000 OA
ENDBRANCH  20  23
ENDBRANCH   1  20
TORSDOF 5
ENDMDL
MODEL 9
REMARK VINA RESULT:      -6.8      1.929      3.126
REMARK  Name = 
REMARK  7 active torsions:
REMARK  status: ('A' for Active; 'I' for Inactive)
REMARK    1  A    between atoms: C_1  and  O_2
REMARK    2  A    between atoms: O_2  and  C_3
REMARK    3  A    between atoms: C_3  and  C_5
REMARK    4  A    between atoms: C_5  and  C_6
REMARK    5  A    between atoms: C_5  and  N_13
REMARK    6  A    between atoms: C_11  and  C_12
REMARK    7  A    between atoms: C_16  and  N_17
REMARK                            x       y       z     vdW  Elec       q    Type
REMARK                         _______ _______ _______ _____ _____    ______ ____
ROOT
ATOM      1  C   UNL     1       3.340   4.910  17.601  0.00  0.00    +0.000 C 
ENDROOT
BRANCH   1   2
ATOM      2  C   UNL     1       2.699   6.012  18.476  0.00  0.00    +0.000 A 
ATOM      3  C   UNL     1       2.508   7.308  17.949  0.00  0.00    +0.000 A 
ATOM      4  C   UNL     1       2.095   8.381  18.742  0.00  0.00    +0.000 A 
ATOM      5  C   UNL     1       1.818   8.184  20.081  0.00  0.00    +0.000 A 
ATOM      6  C   UNL     1       1.906   6.900  20.616  0.00  0.00    +0.000 A 
ATOM      7  C   UNL     1       2.325   5.808  19.829  0.00  0.00    +0.000 A 
ATOM      8  C   UNL     1       2.325   4.450  20.490  0.00  0.00    +0.000 C 
ENDBRANCH   1   2
BRANCH   1   9
ATOM      9  N   UNL     1       4.780   4.619  17.954  0.00  0.00    +0.000 NA
ATOM     10  C   UNL     1       5.694   4.826  16.822  0.00  0.00    +0.000 C 
ATOM     11  C   UNL     1       7.161   4.577  17.189  0.00  0.00    +0.000 C 
ATOM     12  C   UNL     1       7.598   5.436  18.384  0.00  0.00    +0.000 C 
ATOM     13  C   UNL     1       6.642   5.123  19.546  0.00  0.00    +0.000 C 
ATOM     14  C   UNL     1       5.181   5.377  19.153  0.00  0.00    +0.000 C 
BRANCH  12  15
ATOM     15  N   UNL     1       7.703   6.865  18.089  0.00  0.00    +0.000 N 
ATOM     16  C   UNL     1       8.438   7.823  18.720  0.00  0.00    +0.000 A 
ATOM     17  C   UNL     1       8.147   8.983  18.032  0.00  0.00    +0.000 A 
ATOM     18  N   UNL     1       7.226   8.708  17.063  0.00  0.00    +0.000 NA
ATOM     19  N   UNL     1       6.936   7.419  17.124  0.00  0.00    +0.000 NA
ENDBRANCH  12  15
ENDBRANCH   1   9
BRANCH   1  20
ATOM     20  C   UNL     1       2.476   3.602  17.515  0.00  0.00    +0.000 C 
ATOM     21  O   UNL     1       1.249   3.556  17.502  0.00  0.00    +0.000 OA
BRANCH  20  23
ATOM     22  C   UNL     1       3.027   1.618  18.616  0.00  0.00    +0.000 C 
ATOM     23  O   UNL     1       3.256   2.480  17.491  0.00  0.00    +0.000 OA
ENDBRANCH  20  23
ENDBRANCH   1  20
TORSDOF 5
ENDMDL
