MODEL 1
REMARK VINA RESULT:      -6.3      0.000      0.000
REMARK  Name = 
REMARK  4 active torsions:
REMARK  status: ('A' for Active; 'I' for Inactive)
REMARK    1  A    between atoms: C_1  and  O_2
REMARK    2  A    between atoms: O_2  and  C_3
REMARK    3  A    between atoms: N_5  and  C_6
REMARK    4  A    between atoms: N_18  and  C_19
REMARK                            x       y       z     vdW  Elec       q    Type
REMARK                         _______ _______ _______ _____ _____    ______ ____
ROOT
ATOM      1  C   UNL     1       4.026   2.975  18.870  0.00  0.00    +0.000 C 
ATOM      2  C   UNL     1       4.918   3.691  17.812  0.00  0.00    +0.000 C 
ATOM      3  N   UNL     1       5.019   5.028  18.384  0.00  0.00    +0.000 N 
ATOM      4  S   UNL     1       3.455   5.597  18.680  0.00  0.00    +0.000 S 
ATOM      5  O   UNL     1       3.507   6.587  19.736  0.00  0.00    +0.000 OA
ATOM      6  O   UNL     1       2.866   5.891  17.390  0.00  0.00    +0.000 OA
ATOM      7  C   UNL     1       2.867   3.985  19.262  0.00  0.00    +0.000 C 
ATOM      8  C   UNL     1       1.534   3.636  18.591  0.00  0.00    +0.000 C 
ATOM      9  C   UNL     1       0.799   2.796  19.624  0.00  0.00    +0.000 C 
ATOM     10  N   UNL     1       1.210   3.345  20.910  0.00  0.00    +0.000 NA
ATOM     11  C   UNL     1       1.211   2.360  21.980  0.00  0.00    +0.000 C 
ATOM     12  C   UNL     1       2.500   4.037  20.748  0.00  0.00    +0.000 C 
ENDROOT
BRANCH   3  13
ATOM     13  C   UNL     1       6.060   5.947  18.133  0.00  0.00    +0.000 A 
ATOM     14  C   UNL     1       7.200   5.843  18.935  0.00  0.00    +0.000 A 
ATOM     15  C   UNL     1       8.217   6.787  18.830  0.00  0.00    +0.000 A 
ATOM     16  C   UNL     1       8.090   7.838  17.924  0.00  0.00    +0.000 A 
ATOM     17  C   UNL     1       6.949   7.938  17.122  0.00  0.00    +0.000 A 
ATOM     18  C   UNL     1       5.928   6.991  17.227  0.00  0.00    +0.000 A 
ENDBRANCH   3  13
BRANCH   1  20
ATOM     19  C   UNL     1       4.861   1.224  20.321  0.00  0.00    +0.000 C 
ATOM     20  O   UNL     1       4.806   2.617  20.033  0.00  0.00    +0.000 OA
ENDBRANCH   1  20
TORSDOF 2
ENDMDL
MODEL 2
REMARK VINA RESULT:      -6.3      3.095      4.083
REMARK  Name = 
REMARK  4 active torsions:
REMARK  status: ('A' for Active; 'I' for Inactive)
REMARK    1  A    between atoms: C_1  and  O_2
REMARK    2  A    between atoms: O_2  and  C_3
REMARK    3  A    between atoms: N_5  and  C_6
REMARK    4  A    between atoms: N_18  and  C_19
REMARK                            x       y       z     vdW  Elec       q    Type
REMARK                         _______ _______ _______ _____ _____    ______ ____
ROOT
ATOM      1  C   UNL     1       4.639   4.789  18.330  0.00  0.00    +0.000 C 
ATOM      2  C   UNL     1       3.991   6.053  17.690  0.00  0.00    +0.000 C 
ATOM      3  N   UNL     1       2.902   6.316  18.624  0.00  0.00    +0.000 N 
ATOM      4  S   UNL     1       1.991   4.903  18.787  0.00  0.00    +0.000 S 
ATOM      5  O   UNL     1       1.320   4.922  20.071  0.00  0.00    +0.000 OA
ATOM      6  O   UNL     1       1.258   4.731  17.550  0.00  0.00    +0.000 OA
ATOM      7  C   UNL     1       3.453   3.834  18.779  0.00  0.00    +0.000 C 
ATOM      8  C   UNL     1       3.246   2.663  17.814  0.00  0.00    +0.000 C 
ATOM      9  C   UNL     1       4.050   1.524  18.423  0.00  0.00    +0.000 C 
ATOM     10  N   UNL     1       3.945   1.723  19.863  0.00  0.00    +0.000 NA
ATOM     11  C   UNL     1       5.102   1.235  20.595  0.00  0.00    +0.000 C 
ATOM     12  C   UNL     1       3.633   3.137  20.131  0.00  0.00    +0.000 C 
ENDROOT
BRANCH   3  13
ATOM     13  C   UNL     1       2.289   7.571  18.829  0.00  0.00    +0.000 A 
ATOM     14  C   UNL     1       1.843   7.851  20.123  0.00  0.00    +0.000 A 
ATOM     15  C   UNL     1       1.122   9.014  20.378  0.00  0.00    +0.000 A 
ATOM     16  C   UNL     1       0.844   9.893  19.334  0.00  0.00    +0.000 A 
ATOM     17  C   UNL     1       1.292   9.610  18.040  0.00  0.00    +0.000 A 
ATOM     18  C   UNL     1       2.015   8.443  17.784  0.00  0.00    +0.000 A 
ENDBRANCH   3  13
BRANCH   1  20
ATOM     19  C   UNL     1       6.802   5.503  19.154  0.00  0.00    +0.000 C 
ATOM     20  O   UNL     1       5.456   5.156  19.464  0.00  0.00    +0.000 OA
ENDBRANCH   1  20
TORSDOF 2
ENDMDL
MODEL 3
REMARK VINA RESULT:      -6.2      3.060      4.141
REMARK  Name = 
REMARK  4 active torsions:
REMARK  status: ('A' for Active; 'I' for Inactive)
REMARK    1  A    between atoms: C_1  and  O_2
REMARK    2  A    between atoms: O_2  and  C_3
REMARK    3  A    between atoms: N_5  and  C_6
REMARK    4  A    between atoms: N_18  and  C_19
REMARK                            x       y       z     vdW  Elec       q    Type
REMARK                         _______ _______ _______ _____ _____    ______ ____
ROOT
ATOM      1  C   UNL     1       4.589   4.693  18.319  0.00  0.00    +0.000 C 
ATOM      2  C   UNL     1       3.916   5.948  17.686  0.00  0.00    +0.000 C 
ATOM      3  N   UNL     1       2.815   6.177  18.614  0.00  0.00    +0.000 N 
ATOM      4  S   UNL     1       1.935   4.742  18.757  0.00  0.00    +0.000 S 
ATOM      5  O   UNL     1       1.255   4.733  20.036  0.00  0.00    +0.000 OA
ATOM      6  O   UNL     1       1.216   4.565  17.513  0.00  0.00    +0.000 OA
ATOM      7  C   UNL     1       3.422   3.707  18.750  0.00  0.00    +0.000 C 
ATOM      8  C   UNL     1       3.249   2.541  17.772  0.00  0.00    +0.000 C 
ATOM      9  C   UNL     1       4.074   1.415  18.376  0.00  0.00    +0.000 C 
ATOM     10  N   UNL     1       3.954   1.598  19.817  0.00  0.00    +0.000 NA
ATOM     11  C   UNL     1       5.117   1.129  20.554  0.00  0.00    +0.000 C 
ATOM     12  C   UNL     1       3.608   3.001  20.097  0.00  0.00    +0.000 C 
ENDROOT
BRANCH   3  13
ATOM     13  C   UNL     1       2.171   7.415  18.826  0.00  0.00    +0.000 A 
ATOM     14  C   UNL     1       2.094   8.282  17.733  0.00  0.00    +0.000 A 
ATOM     15  C   UNL     1       1.583   9.566  17.893  0.00  0.00    +0.000 A 
ATOM     16  C   UNL     1       1.153   9.984  19.151  0.00  0.00    +0.000 A 
ATOM     17  C   UNL     1       1.230   9.114  20.243  0.00  0.00    +0.000 A 
ATOM     18  C   UNL     1       1.743   7.825  20.082  0.00  0.00    +0.000 A 
ENDBRANCH   3  13
BRANCH   1  20
ATOM     19  C   UNL     1       6.710   5.504  19.161  0.00  0.00    +0.000 C 
ATOM     20  O   UNL     1       5.389   5.068  19.462  0.00  0.00    +0.000 OA
ENDBRANCH   1  20
TORSDOF 2
ENDMDL
MODEL 4
REMARK VINA RESULT:      -5.9      2.001      5.738
REMARK  Name = 
REMARK  4 active torsions:
REMARK  status: ('A' for Active; 'I' for Inactive)
REMARK    1  A    between atoms: C_1  and  O_2
REMARK    2  A    between atoms: O_2  and  C_3
REMARK    3  A    between atoms: N_5  and  C_6
REMARK    4  A    between atoms: N_18  and  C_19
REMARK                            x       y       z     vdW  Elec       q    Type
REMARK                         _______ _______ _______ _____ _____    ______ ____
ROOT
ATOM      1  C   UNL     1       5.727   5.445  18.196  0.00  0.00    +0.000 C 
ATOM      2  C   UNL     1       4.818   5.556  19.456  0.00  0.00    +0.000 C 
ATOM      3  N   UNL     1       3.804   4.551  19.163  0.00  0.00    +0.000 N 
ATOM      4  S   UNL     1       3.158   4.878  17.636  0.00  0.00    +0.000 S 
ATOM      5  O   UNL     1       2.631   3.650  17.076  0.00  0.00    +0.000 OA
ATOM      6  O   UNL     1       2.339   6.064  17.773  0.00  0.00    +0.000 OA
ATOM      7  C   UNL     1       4.767   5.329  16.937  0.00  0.00    +0.000 C 
ATOM      8  C   UNL     1       4.656   6.645  16.162  0.00  0.00    +0.000 C 
ATOM      9  C   UNL     1       5.694   6.523  15.057  0.00  0.00    +0.000 C 
ATOM     10  N   UNL     1       5.708   5.106  14.715  0.00  0.00    +0.000 NA
ATOM     11  C   UNL     1       6.999   4.645  14.231  0.00  0.00    +0.000 C 
ATOM     12  C   UNL     1       5.198   4.331  15.859  0.00  0.00    +0.000 C 
ENDROOT
BRANCH   3  13
ATOM     13  C   UNL     1       3.017   3.881  20.125  0.00  0.00    +0.000 A 
ATOM     14  C   UNL     1       3.595   2.773  20.751  0.00  0.00    +0.000 A 
ATOM     15  C   UNL     1       2.841   1.990  21.621  0.00  0.00    +0.000 A 
ATOM     16  C   UNL     1       1.508   2.315  21.859  0.00  0.00    +0.000 A 
ATOM     17  C   UNL     1       0.933   3.424  21.232  0.00  0.00    +0.000 A 
ATOM     18  C   UNL     1       1.689   4.211  20.359  0.00  0.00    +0.000 A 
ENDBRANCH   3  13
BRANCH   1  20
ATOM     19  C   UNL     1       7.962   4.528  18.012  0.00  0.00    +0.000 C 
ATOM     20  O   UNL     1       6.586   4.287  18.291  0.00  0.00    +0.000 OA
ENDBRANCH   1  20
TORSDOF 2
ENDMDL
MODEL 5
REMARK VINA RESULT:      -5.9      1.999      5.872
REMARK  Name = 
REMARK  4 active torsions:
REMARK  status: ('A' for Active; 'I' for Inactive)
REMARK    1  A    between atoms: C_1  and  O_2
REMARK    2  A    between atoms: O_2  and  C_3
REMARK    3  A    between atoms: N_5  and  C_6
REMARK    4  A    between atoms: N_18  and  C_19
REMARK                            x       y       z     vdW  Elec       q    Type
REMARK                         _______ _______ _______ _____ _____    ______ ____
ROOT
ATOM      1  C   UNL     1       5.702   5.384  18.239  0.00  0.00    +0.000 C 
ATOM      2  C   UNL     1       4.745   5.394  19.469  0.00  0.00    +0.000 C 
ATOM      3  N   UNL     1       3.781   4.369  19.086  0.00  0.00    +0.000 N 
ATOM      4  S   UNL     1       3.178   4.755  17.555  0.00  0.00    +0.000 S 
ATOM      5  O   UNL     1       2.718   3.542  16.912  0.00  0.00    +0.000 OA
ATOM      6  O   UNL     1       2.310   5.902  17.724  0.00  0.00    +0.000 OA
ATOM      7  C   UNL     1       4.792   5.302  16.942  0.00  0.00    +0.000 C 
ATOM      8  C   UNL     1       4.658   6.653  16.233  0.00  0.00    +0.000 C 
ATOM      9  C   UNL     1       5.738   6.629  15.163  0.00  0.00    +0.000 C 
ATOM     10  N   UNL     1       5.818   5.234  14.747  0.00  0.00    +0.000 NA
ATOM     11  C   UNL     1       7.143   4.848  14.288  0.00  0.00    +0.000 C 
ATOM     12  C   UNL     1       5.299   4.380  15.828  0.00  0.00    +0.000 C 
ENDROOT
BRANCH   3  13
ATOM     13  C   UNL     1       2.988   3.620  19.981  0.00  0.00    +0.000 A 
ATOM     14  C   UNL     1       1.635   3.962  20.062  0.00  0.00    +0.000 A 
ATOM     15  C   UNL     1       0.816   3.351  21.007  0.00  0.00    +0.000 A 
ATOM     16  C   UNL     1       1.354   2.401  21.873  0.00  0.00    +0.000 A 
ATOM     17  C   UNL     1       2.706   2.061  21.788  0.00  0.00    +0.000 A 
ATOM     18  C   UNL     1       3.529   2.673  20.840  0.00  0.00    +0.000 A 
ENDBRANCH   3  13
BRANCH   1  20
ATOM     19  C   UNL     1       7.968   4.552  18.039  0.00  0.00    +0.000 C 
ATOM     20  O   UNL     1       6.601   4.255  18.305  0.00  0.00    +0.000 OA
ENDBRANCH   1  20
TORSDOF 2
ENDMDL
MODEL 6
REMARK VINA RESULT:      -5.9      0.223      1.101
REMARK  Name = 
REMARK  4 active torsions:
REMARK  status: ('A' for Active; 'I' for Inactive)
REMARK    1  A    between atoms: C_1  and  O_2
REMARK    2  A    between atoms: O_2  and  C_3
REMARK    3  A    between atoms: N_5  and  C_6
REMARK    4  A    between atoms: N_18  and  C_19
REMARK                            x       y       z     vdW  Elec       q    Type
REMARK                         _______ _______ _______ _____ _____    ______ ____
ROOT
ATOM      1  C   UNL     1       4.062   2.897  19.073  0.00  0.00    +0.000 C 
ATOM      2  C   UNL     1       4.967   3.632  18.040  0.00  0.00    +0.000 C 
ATOM      3  N   UNL     1       4.976   4.985  18.583  0.00  0.00    +0.000 N 
ATOM      4  S   UNL     1       3.375   5.483  18.794  0.00  0.00    +0.000 S 
ATOM      5  O   UNL     1       3.330   6.497  19.827  0.00  0.00    +0.000 OA
ATOM      6  O   UNL     1       2.833   5.720  17.472  0.00  0.00    +0.000 OA
ATOM      7  C   UNL     1       2.838   3.858  19.387  0.00  0.00    +0.000 C 
ATOM      8  C   UNL     1       1.556   3.430  18.666  0.00  0.00    +0.000 C 
ATOM      9  C   UNL     1       0.815   2.577  19.685  0.00  0.00    +0.000 C 
ATOM     10  N   UNL     1       1.140   3.174  20.975  0.00  0.00    +0.000 NA
ATOM     11  C   UNL     1       1.138   2.214  22.067  0.00  0.00    +0.000 C 
ATOM     12  C   UNL     1       2.401   3.924  20.854  0.00  0.00    +0.000 C 
ENDROOT
BRANCH   3  13
ATOM     13  C   UNL     1       5.983   5.948  18.357  0.00  0.00    +0.000 A 
ATOM     14  C   UNL     1       5.764   6.858  17.319  0.00  0.00    +0.000 A 
ATOM     15  C   UNL     1       6.761   7.758  16.957  0.00  0.00    +0.000 A 
ATOM     16  C   UNL     1       7.980   7.744  17.633  0.00  0.00    +0.000 A 
ATOM     17  C   UNL     1       8.195   6.834  18.672  0.00  0.00    +0.000 A 
ATOM     18  C   UNL     1       7.195   5.930  19.036  0.00  0.00    +0.000 A 
ENDBRANCH   3  13
BRANCH   1  20
ATOM     19  C   UNL     1       4.981   1.220  20.560  0.00  0.00    +0.000 C 
ATOM     20  O   UNL     1       4.803   2.604  20.279  0.00  0.00    +0.000 OA
ENDBRANCH   1  20
TORSDOF 2
ENDMDL
MODEL 7
REMARK VINA RESULT:      -5.7     11.121     12.524
REMARK  Name = 
REMARK  4 active torsions:
REMARK  status: ('A' for Active; 'I' for Inactive)
REMARK    1  A    between atoms: C_1  and  O_2
REMARK    2  A    between atoms: O_2  and  C_3
REMARK    3  A    between atoms: N_5  and  C_6
REMARK    4  A    between atoms: N_18  and  C_19
REMARK                            x       y       z     vdW  Elec       q    Type
REMARK                         _______ _______ _______ _____ _____    ______ ____
ROOT
ATOM      1  C   UNL     1      -7.325  11.279  20.072  0.00  0.00    +0.000 C 
ATOM      2  C   UNL     1      -6.964  11.110  18.566  0.00  0.00    +0.000 C 
ATOM      3  N   UNL     1      -5.531  11.380  18.587  0.00  0.00    +0.000 N 
ATOM      4  S   UNL     1      -5.283  12.871  19.343  0.00  0.00    +0.000 S 
ATOM      5  O   UNL     1      -3.947  12.898  19.901  0.00  0.00    +0.000 OA
ATOM      6  O   UNL     1      -5.743  13.889  18.422  0.00  0.00    +0.000 OA
ATOM      7  C   UNL     1      -6.556  12.566  20.594  0.00  0.00    +0.000 C 
ATOM      8  C   UNL     1      -7.474  13.785  20.722  0.00  0.00    +0.000 C 
ATOM      9  C   UNL     1      -7.917  13.776  22.177  0.00  0.00    +0.000 C 
ATOM     10  N   UNL     1      -6.773  13.248  22.910  0.00  0.00    +0.000 NA
ATOM     11  C   UNL     1      -7.147  12.532  24.119  0.00  0.00    +0.000 C 
ATOM     12  C   UNL     1      -5.939  12.454  21.992  0.00  0.00    +0.000 C 
ENDROOT
BRANCH   3  13
ATOM     13  C   UNL     1      -4.600  10.918  17.632  0.00  0.00    +0.000 A 
ATOM     14  C   UNL     1      -3.650   9.993  18.074  0.00  0.00    +0.000 A 
ATOM     15  C   UNL     1      -2.626   9.583  17.224  0.00  0.00    +0.000 A 
ATOM     16  C   UNL     1      -2.553  10.103  15.934  0.00  0.00    +0.000 A 
ATOM     17  C   UNL     1      -3.506  11.026  15.495  0.00  0.00    +0.000 A 
ATOM     18  C   UNL     1      -4.534  11.439  16.346  0.00  0.00    +0.000 A 
ENDBRANCH   3  13
BRANCH   1  20
ATOM     19  C   UNL     1      -7.498   8.882  20.376  0.00  0.00    +0.000 C 
ATOM     20  O   UNL     1      -6.930  10.109  20.823  0.00  0.00    +0.000 OA
ENDBRANCH   1  20
TORSDOF 2
ENDMDL
MODEL 8
REMARK VINA RESULT:      -5.6      1.843      6.113
REMARK  Name = 
REMARK  4 active torsions:
REMARK  status: ('A' for Active; 'I' for Inactive)
REMARK    1  A    between atoms: C_1  and  O_2
REMARK    2  A    between atoms: O_2  and  C_3
REMARK    3  A    between atoms: N_5  and  C_6
REMARK    4  A    between atoms: N_18  and  C_19
REMARK                            x       y       z     vdW  Elec       q    Type
REMARK                         _______ _______ _______ _____ _____    ______ ____
ROOT
ATOM      1  C   UNL     1       4.008   6.375  17.191  0.00  0.00    +0.000 C 
ATOM      2  C   UNL     1       2.842   5.366  17.414  0.00  0.00    +0.000 C 
ATOM      3  N   UNL     1       3.326   4.626  18.573  0.00  0.00    +0.000 N 
ATOM      4  S   UNL     1       4.875   4.048  18.225  0.00  0.00    +0.000 S 
ATOM      5  O   UNL     1       5.593   3.851  19.467  0.00  0.00    +0.000 OA
ATOM      6  O   UNL     1       4.716   2.979  17.261  0.00  0.00    +0.000 OA
ATOM      7  C   UNL     1       5.363   5.568  17.369  0.00  0.00    +0.000 C 
ATOM      8  C   UNL     1       6.025   5.231  16.029  0.00  0.00    +0.000 C 
ATOM      9  C   UNL     1       7.025   6.355  15.807  0.00  0.00    +0.000 C 
ATOM     10  N   UNL     1       7.489   6.709  17.143  0.00  0.00    +0.000 NA
ATOM     11  C   UNL     1       7.878   8.105  17.263  0.00  0.00    +0.000 C 
ATOM     12  C   UNL     1       6.477   6.294  18.129  0.00  0.00    +0.000 C 
ENDROOT
BRANCH   3  13
ATOM     13  C   UNL     1       2.513   3.933  19.496  0.00  0.00    +0.000 A 
ATOM     14  C   UNL     1       2.674   4.256  20.845  0.00  0.00    +0.000 A 
ATOM     15  C   UNL     1       1.997   3.533  21.823  0.00  0.00    +0.000 A 
ATOM     16  C   UNL     1       1.162   2.483  21.448  0.00  0.00    +0.000 A 
ATOM     17  C   UNL     1       1.002   2.163  20.096  0.00  0.00    +0.000 A 
ATOM     18  C   UNL     1       1.681   2.889  19.115  0.00  0.00    +0.000 A 
ENDBRANCH   3  13
BRANCH   1  20
ATOM     19  C   UNL     1       2.705   8.184  18.138  0.00  0.00    +0.000 C 
ATOM     20  O   UNL     1       3.930   7.459  18.144  0.00  0.00    +0.000 OA
ENDBRANCH   1  20
TORSDOF 2
ENDMDL
MODEL 9
REMARK VINA RESULT:      -5.4      1.832      6.191
REMARK  Name = 
REMARK  4 active torsions:
REMARK  status: ('A' for Active; 'I' for Inactive)
REMARK    1  A    between atoms: C_1  and  O_2
REMARK    2  A    between atoms: O_2  and  C_3
REMARK    3  A    between atoms: N_5  and  C_6
REMARK    4  A    between atoms: N_18  and  C_19
REMARK                            x       y       z     vdW  Elec       q    Type
REMARK                         _______ _______ _______ _____ _____    ______ ____
ROOT
ATOM      1  C   UNL     1       4.086   6.349  17.209  0.00  0.00    +0.000 C 
ATOM      2  C   UNL     1       2.958   5.297  17.425  0.00  0.00    +0.000 C 
ATOM      3  N   UNL     1       3.462   4.575  18.587  0.00  0.00    +0.000 N 
ATOM      4  S   UNL     1       5.033   4.055  18.247  0.00  0.00    +0.000 S 
ATOM      5  O   UNL     1       5.752   3.885  19.493  0.00  0.00    +0.000 OA
ATOM      6  O   UNL     1       4.920   2.981  17.282  0.00  0.00    +0.000 OA
ATOM      7  C   UNL     1       5.469   5.593  17.395  0.00  0.00    +0.000 C 
ATOM      8  C   UNL     1       6.151   5.281  16.059  0.00  0.00    +0.000 C 
ATOM      9  C   UNL     1       7.109   6.442  15.842  0.00  0.00    +0.000 C 
ATOM     10  N   UNL     1       7.553   6.812  17.180  0.00  0.00    +0.000 NA
ATOM     11  C   UNL     1       7.889   8.221  17.303  0.00  0.00    +0.000 C 
ATOM     12  C   UNL     1       6.552   6.359  18.161  0.00  0.00    +0.000 C 
ENDROOT
BRANCH   3  13
ATOM     13  C   UNL     1       2.670   3.852  19.505  0.00  0.00    +0.000 A 
ATOM     14  C   UNL     1       1.621   3.096  18.975  0.00  0.00    +0.000 A 
ATOM     15  C   UNL     1       0.724   2.453  19.823  0.00  0.00    +0.000 A 
ATOM     16  C   UNL     1       0.876   2.572  21.203  0.00  0.00    +0.000 A 
ATOM     17  C   UNL     1       1.927   3.328  21.730  0.00  0.00    +0.000 A 
ATOM     18  C   UNL     1       2.828   3.973  20.879  0.00  0.00    +0.000 A 
ENDBRANCH   3  13
BRANCH   1  20
ATOM     19  C   UNL     1       2.713   8.111  18.146  0.00  0.00    +0.000 C 
ATOM     20  O   UNL     1       3.963   7.428  18.162  0.00  0.00    +0.000 OA
ENDBRANCH   1  20
TORSDOF 2
ENDMDL
