MODEL 1
REMARK VINA RESULT:      -7.1      0.000      0.000
REMARK  Name = 
REMARK  3 active torsions:
REMARK  status: ('A' for Active; 'I' for Inactive)
REMARK    1  A    between atoms: N_3  and  C_4
REMARK    2  A    between atoms: C_4  and  C_5
REMARK    3  A    between atoms: N_13  and  C_14
REMARK                            x       y       z     vdW  Elec       q    Type
REMARK                         _______ _______ _______ _____ _____    ______ ____
ROOT
ATOM      1  O   UNL     1       5.198   5.978  16.506  0.00  0.00    +0.000 OA
ATOM      2  C   UNL     1       6.185   5.347  16.850  0.00  0.00    +0.000 C 
ATOM      3  N   UNL     1       6.462   5.036  18.172  0.00  0.00    +0.000 N 
ATOM      4  N   UNL     1       7.099   4.719  16.019  0.00  0.00    +0.000 N 
ATOM      5  H   UNL     1       7.431   4.959  18.449  0.00  0.00    +0.000 HD
ATOM      6  H   UNL     1       7.950   4.382  16.446  0.00  0.00    +0.000 HD
ENDROOT
BRANCH   4   7
ATOM      7  C   UNL     1       7.072   4.699  14.606  0.00  0.00    +0.000 A 
ATOM      8  C   UNL     1       7.836   5.518  13.775  0.00  0.00    +0.000 A 
ATOM      9  N   UNL     1       7.899   5.381  12.421  0.00  0.00    +0.000 NA
ATOM     10  C   UNL     1       7.148   4.397  11.873  0.00  0.00    +0.000 A 
ATOM     11  C   UNL     1       6.301   3.594  12.611  0.00  0.00    +0.000 A 
ATOM     12  F   UNL     1       5.569   2.644  12.016  0.00  0.00    +0.000 F 
ATOM     13  C   UNL     1       6.244   3.757  13.989  0.00  0.00    +0.000 A 
ENDBRANCH   4   7
BRANCH   3  14
ATOM     14  C   UNL     1       5.527   5.353  19.241  0.00  0.00    +0.000 C 
BRANCH  14  15
ATOM     15  C   UNL     1       4.236   4.579  19.136  0.00  0.00    +0.000 A 
ATOM     16  C   UNL     1       4.283   3.177  19.203  0.00  0.00    +0.000 A 
ATOM     17  C   UNL     1       3.112   2.417  19.141  0.00  0.00    +0.000 A 
ATOM     18  C   UNL     1       1.881   3.052  19.001  0.00  0.00    +0.000 A 
ATOM     19 CL   UNL     1       0.441   2.115  18.923  0.00  0.00    +0.000 Cl
ATOM     20  C   UNL     1       1.810   4.440  18.921  0.00  0.00    +0.000 A 
ATOM     21  C   UNL     1       2.982   5.199  18.986  0.00  0.00    +0.000 A 
ATOM     22 CL   UNL     1       2.828   6.916  18.870  0.00  0.00    +0.000 Cl
ENDBRANCH  14  15
ENDBRANCH   3  14
TORSDOF 3
ENDMDL
MODEL 2
REMARK VINA RESULT:      -7.0      5.508      6.505
REMARK  Name = 
REMARK  3 active torsions:
REMARK  status: ('A' for Active; 'I' for Inactive)
REMARK    1  A    between atoms: N_3  and  C_4
REMARK    2  A    between atoms: C_4  and  C_5
REMARK    3  A    between atoms: N_13  and  C_14
REMARK                            x       y       z     vdW  Elec       q    Type
REMARK                         _______ _______ _______ _____ _____    ______ ____
ROOT
ATOM      1  O   UNL     1       7.860   7.971  17.039  0.00  0.00    +0.000 OA
ATOM      2  C   UNL     1       8.167   7.921  18.219  0.00  0.00    +0.000 C 
ATOM      3  N   UNL     1       8.135   6.749  18.960  0.00  0.00    +0.000 N 
ATOM      4  N   UNL     1       8.724   8.939  18.976  0.00  0.00    +0.000 N 
ATOM      5  H   UNL     1       7.932   6.818  19.948  0.00  0.00    +0.000 HD
ATOM      6  H   UNL     1       8.765   8.798  19.974  0.00  0.00    +0.000 HD
ENDROOT
BRANCH   4   7
ATOM      7  C   UNL     1       9.033  10.243  18.528  0.00  0.00    +0.000 A 
ATOM      8  C   UNL     1       8.183  11.061  17.782  0.00  0.00    +0.000 A 
ATOM      9  N   UNL     1       8.447  12.364  17.487  0.00  0.00    +0.000 NA
ATOM     10  C   UNL     1       9.621  12.865  17.936  0.00  0.00    +0.000 A 
ATOM     11  C   UNL     1      10.557  12.105  18.610  0.00  0.00    +0.000 A 
ATOM     12  F   UNL     1      11.710  12.648  19.020  0.00  0.00    +0.000 F 
ATOM     13  C   UNL     1      10.273  10.775  18.892  0.00  0.00    +0.000 A 
ENDBRANCH   4   7
BRANCH   3  14
ATOM     14  C   UNL     1       7.832   5.467  18.345  0.00  0.00    +0.000 C 
BRANCH  14  15
ATOM     15  C   UNL     1       6.351   5.238  18.168  0.00  0.00    +0.000 A 
ATOM     16  C   UNL     1       5.517   5.318  19.296  0.00  0.00    +0.000 A 
ATOM     17  C   UNL     1       4.136   5.143  19.179  0.00  0.00    +0.000 A 
ATOM     18  C   UNL     1       3.574   4.876  17.934  0.00  0.00    +0.000 A 
ATOM     19 CL   UNL     1       1.874   4.660  17.793  0.00  0.00    +0.000 Cl
ATOM     20  C   UNL     1       4.381   4.781  16.803  0.00  0.00    +0.000 A 
ATOM     21  C   UNL     1       5.763   4.959  16.922  0.00  0.00    +0.000 A 
ATOM     22 CL   UNL     1       6.710   4.817  15.483  0.00  0.00    +0.000 Cl
ENDBRANCH  14  15
ENDBRANCH   3  14
TORSDOF 3
ENDMDL
MODEL 3
REMARK VINA RESULT:      -7.0      5.452      6.632
REMARK  Name = 
REMARK  3 active torsions:
REMARK  status: ('A' for Active; 'I' for Inactive)
REMARK    1  A    between atoms: N_3  and  C_4
REMARK    2  A    between atoms: C_4  and  C_5
REMARK    3  A    between atoms: N_13  and  C_14
REMARK                            x       y       z     vdW  Elec       q    Type
REMARK                         _______ _______ _______ _____ _____    ______ ____
ROOT
ATOM      1  O   UNL     1       7.541   8.941  17.311  0.00  0.00    +0.000 OA
ATOM      2  C   UNL     1       8.100   8.394  18.250  0.00  0.00    +0.000 C 
ATOM      3  N   UNL     1       8.057   7.025  18.462  0.00  0.00    +0.000 N 
ATOM      4  N   UNL     1       8.966   8.983  19.157  0.00  0.00    +0.000 N 
ATOM      5  H   UNL     1       8.099   6.691  19.416  0.00  0.00    +0.000 HD
ATOM      6  H   UNL     1       9.212   8.441  19.972  0.00  0.00    +0.000 HD
ENDROOT
BRANCH   4   7
ATOM      7  C   UNL     1       9.362  10.339  19.178  0.00  0.00    +0.000 A 
ATOM      8  C   UNL     1       9.396  11.150  20.313  0.00  0.00    +0.000 A 
ATOM      9  N   UNL     1       9.917  12.408  20.334  0.00  0.00    +0.000 NA
ATOM     10  C   UNL     1      10.404  12.885  19.166  0.00  0.00    +0.000 A 
ATOM     11  C   UNL     1      10.337  12.184  17.978  0.00  0.00    +0.000 A 
ATOM     12  F   UNL     1      10.822  12.709  16.846  0.00  0.00    +0.000 F 
ATOM     13  C   UNL     1       9.793  10.906  17.975  0.00  0.00    +0.000 A 
ENDBRANCH   4   7
BRANCH   3  14
ATOM     14  C   UNL     1       7.426   6.125  17.509  0.00  0.00    +0.000 C 
BRANCH  14  15
ATOM     15  C   UNL     1       6.016   5.757  17.898  0.00  0.00    +0.000 A 
ATOM     16  C   UNL     1       5.793   5.178  19.158  0.00  0.00    +0.000 A 
ATOM     17  C   UNL     1       4.502   4.846  19.576  0.00  0.00    +0.000 A 
ATOM     18  C   UNL     1       3.419   5.081  18.733  0.00  0.00    +0.000 A 
ATOM     19 CL   UNL     1       1.831   4.670  19.248  0.00  0.00    +0.000 Cl
ATOM     20  C   UNL     1       3.615   5.642  17.475  0.00  0.00    +0.000 A 
ATOM     21  C   UNL     1       4.908   5.976  17.059  0.00  0.00    +0.000 A 
ATOM     22 CL   UNL     1       5.087   6.659  15.482  0.00  0.00    +0.000 Cl
ENDBRANCH  14  15
ENDBRANCH   3  14
TORSDOF 3
ENDMDL
MODEL 4
REMARK VINA RESULT:      -6.9      1.211      1.211
REMARK  Name = 
REMARK  3 active torsions:
REMARK  status: ('A' for Active; 'I' for Inactive)
REMARK    1  A    between atoms: N_3  and  C_4
REMARK    2  A    between atoms: C_4  and  C_5
REMARK    3  A    between atoms: N_13  and  C_14
REMARK                            x       y       z     vdW  Elec       q    Type
REMARK                         _______ _______ _______ _____ _____    ______ ____
ROOT
ATOM      1  O   UNL     1       5.414   6.523  15.955  0.00  0.00    +0.000 OA
ATOM      2  C   UNL     1       5.802   5.452  16.396  0.00  0.00    +0.000 C 
ATOM      3  N   UNL     1       5.618   5.066  17.715  0.00  0.00    +0.000 N 
ATOM      4  N   UNL     1       6.339   4.402  15.670  0.00  0.00    +0.000 N 
ATOM      5  H   UNL     1       6.312   4.462  18.133  0.00  0.00    +0.000 HD
ATOM      6  H   UNL     1       6.766   3.653  16.196  0.00  0.00    +0.000 HD
ENDROOT
BRANCH   4   7
ATOM      7  C   UNL     1       6.557   4.372  14.274  0.00  0.00    +0.000 A 
ATOM      8  C   UNL     1       7.511   5.126  13.592  0.00  0.00    +0.000 A 
ATOM      9  N   UNL     1       7.798   4.974  12.269  0.00  0.00    +0.000 NA
ATOM     10  C   UNL     1       7.084   4.044  11.594  0.00  0.00    +0.000 A 
ATOM     11  C   UNL     1       6.065   3.311  12.170  0.00  0.00    +0.000 A 
ATOM     12  F   UNL     1       5.380   2.412  11.452  0.00  0.00    +0.000 F 
ATOM     13  C   UNL     1       5.781   3.488  13.518  0.00  0.00    +0.000 A 
ENDBRANCH   4   7
BRANCH   3  14
ATOM     14  C   UNL     1       4.848   5.876  18.645  0.00  0.00    +0.000 C 
BRANCH  14  15
ATOM     15  C   UNL     1       3.871   5.062  19.458  0.00  0.00    +0.000 A 
ATOM     16  C   UNL     1       4.160   3.709  19.702  0.00  0.00    +0.000 A 
ATOM     17  C   UNL     1       3.302   2.922  20.474  0.00  0.00    +0.000 A 
ATOM     18  C   UNL     1       2.139   3.477  21.003  0.00  0.00    +0.000 A 
ATOM     19 CL   UNL     1       1.084   2.505  21.951  0.00  0.00    +0.000 Cl
ATOM     20  C   UNL     1       1.826   4.812  20.765  0.00  0.00    +0.000 A 
ATOM     21  C   UNL     1       2.687   5.599  19.995  0.00  0.00    +0.000 A 
ATOM     22 CL   UNL     1       2.235   7.246  19.727  0.00  0.00    +0.000 Cl
ENDBRANCH  14  15
ENDBRANCH   3  14
TORSDOF 3
ENDMDL
MODEL 5
REMARK VINA RESULT:      -6.9      5.864      8.771
REMARK  Name = 
REMARK  3 active torsions:
REMARK  status: ('A' for Active; 'I' for Inactive)
REMARK    1  A    between atoms: N_3  and  C_4
REMARK    2  A    between atoms: C_4  and  C_5
REMARK    3  A    between atoms: N_13  and  C_14
REMARK                            x       y       z     vdW  Elec       q    Type
REMARK                         _______ _______ _______ _____ _____    ______ ____
ROOT
ATOM      1  O   UNL     1       1.450   6.366  21.000  0.00  0.00    +0.000 OA
ATOM      2  C   UNL     1       1.868   7.180  20.192  0.00  0.00    +0.000 C 
ATOM      3  N   UNL     1       2.590   6.824  19.063  0.00  0.00    +0.000 N 
ATOM      4  N   UNL     1       1.592   8.538  20.164  0.00  0.00    +0.000 N 
ATOM      5  H   UNL     1       3.279   7.477  18.715  0.00  0.00    +0.000 HD
ATOM      6  H   UNL     1       2.145   9.104  19.537  0.00  0.00    +0.000 HD
ENDROOT
BRANCH   4   7
ATOM      7  C   UNL     1       0.779   9.247  21.077  0.00  0.00    +0.000 A 
ATOM      8  C   UNL     1       0.892   9.192  22.466  0.00  0.00    +0.000 A 
ATOM      9  N   UNL     1       0.194   9.992  23.319  0.00  0.00    +0.000 NA
ATOM     10  C   UNL     1      -0.669  10.871  22.759  0.00  0.00    +0.000 A 
ATOM     11  C   UNL     1      -0.904  10.937  21.400  0.00  0.00    +0.000 A 
ATOM     12  F   UNL     1      -1.781  11.816  20.900  0.00  0.00    +0.000 F 
ATOM     13  C   UNL     1      -0.190  10.105  20.549  0.00  0.00    +0.000 A 
ENDBRANCH   4   7
BRANCH   3  14
ATOM     14  C   UNL     1       2.806   5.431  18.705  0.00  0.00    +0.000 C 
BRANCH  14  15
ATOM     15  C   UNL     1       3.818   5.262  17.600  0.00  0.00    +0.000 A 
ATOM     16  C   UNL     1       4.383   6.410  17.020  0.00  0.00    +0.000 A 
ATOM     17  C   UNL     1       5.346   6.306  16.014  0.00  0.00    +0.000 A 
ATOM     18  C   UNL     1       5.748   5.049  15.568  0.00  0.00    +0.000 A 
ATOM     19 CL   UNL     1       6.933   4.923  14.327  0.00  0.00    +0.000 Cl
ATOM     20  C   UNL     1       5.195   3.897  16.118  0.00  0.00    +0.000 A 
ATOM     21  C   UNL     1       4.233   4.004  17.127  0.00  0.00    +0.000 A 
ATOM     22 CL   UNL     1       3.577   2.536  17.761  0.00  0.00    +0.000 Cl
ENDBRANCH  14  15
ENDBRANCH   3  14
TORSDOF 3
ENDMDL
MODEL 6
REMARK VINA RESULT:      -6.9      5.177      6.204
REMARK  Name = 
REMARK  3 active torsions:
REMARK  status: ('A' for Active; 'I' for Inactive)
REMARK    1  A    between atoms: N_3  and  C_4
REMARK    2  A    between atoms: C_4  and  C_5
REMARK    3  A    between atoms: N_13  and  C_14
REMARK                            x       y       z     vdW  Elec       q    Type
REMARK                         _______ _______ _______ _____ _____    ______ ____
ROOT
ATOM      1  O   UNL     1       7.847   7.986  17.155  0.00  0.00    +0.000 OA
ATOM      2  C   UNL     1       8.190   7.846  18.318  0.00  0.00    +0.000 C 
ATOM      3  N   UNL     1       8.170   6.623  18.972  0.00  0.00    +0.000 N 
ATOM      4  N   UNL     1       8.780   8.801  19.130  0.00  0.00    +0.000 N 
ATOM      5  H   UNL     1       7.999   6.620  19.968  0.00  0.00    +0.000 HD
ATOM      6  H   UNL     1       8.851   8.586  20.114  0.00  0.00    +0.000 HD
ENDROOT
BRANCH   4   7
ATOM      7  C   UNL     1       9.087  10.133  18.770  0.00  0.00    +0.000 A 
ATOM      8  C   UNL     1      10.283  10.790  19.060  0.00  0.00    +0.000 A 
ATOM      9  N   UNL     1      10.611  12.022  18.579  0.00  0.00    +0.000 NA
ATOM     10  C   UNL     1       9.695  12.631  17.792  0.00  0.00    +0.000 A 
ATOM     11  C   UNL     1       8.454  12.090  17.520  0.00  0.00    +0.000 A 
ATOM     12  F   UNL     1       7.578  12.743  16.746  0.00  0.00    +0.000 F 
ATOM     13  C   UNL     1       8.134  10.838  18.029  0.00  0.00    +0.000 A 
ENDBRANCH   4   7
BRANCH   3  14
ATOM     14  C   UNL     1       7.836   5.392  18.273  0.00  0.00    +0.000 C 
BRANCH  14  15
ATOM     15  C   UNL     1       6.349   5.185  18.131  0.00  0.00    +0.000 A 
ATOM     16  C   UNL     1       5.525   5.419  19.245  0.00  0.00    +0.000 A 
ATOM     17  C   UNL     1       4.139   5.270  19.155  0.00  0.00    +0.000 A 
ATOM     18  C   UNL     1       3.561   4.875  17.952  0.00  0.00    +0.000 A 
ATOM     19 CL   UNL     1       1.854   4.691  17.844  0.00  0.00    +0.000 Cl
ATOM     20  C   UNL     1       4.356   4.627  16.837  0.00  0.00    +0.000 A 
ATOM     21  C   UNL     1       5.743   4.778  16.928  0.00  0.00    +0.000 A 
ATOM     22 CL   UNL     1       6.676   4.443  15.512  0.00  0.00    +0.000 Cl
ENDBRANCH  14  15
ENDBRANCH   3  14
TORSDOF 3
ENDMDL
MODEL 7
REMARK VINA RESULT:      -6.8      5.711      6.844
REMARK  Name = 
REMARK  3 active torsions:
REMARK  status: ('A' for Active; 'I' for Inactive)
REMARK    1  A    between atoms: N_3  and  C_4
REMARK    2  A    between atoms: C_4  and  C_5
REMARK    3  A    between atoms: N_13  and  C_14
REMARK                            x       y       z     vdW  Elec       q    Type
REMARK                         _______ _______ _______ _____ _____    ______ ____
ROOT
ATOM      1  O   UNL     1       7.593   8.889  17.266  0.00  0.00    +0.000 OA
ATOM      2  C   UNL     1       8.117   8.361  18.234  0.00  0.00    +0.000 C 
ATOM      3  N   UNL     1       8.045   6.999  18.485  0.00  0.00    +0.000 N 
ATOM      4  N   UNL     1       8.969   8.962  19.146  0.00  0.00    +0.000 N 
ATOM      5  H   UNL     1       8.056   6.694  19.449  0.00  0.00    +0.000 HD
ATOM      6  H   UNL     1       9.184   8.441  19.984  0.00  0.00    +0.000 HD
ENDROOT
BRANCH   4   7
ATOM      7  C   UNL     1       9.388  10.312  19.139  0.00  0.00    +0.000 A 
ATOM      8  C   UNL     1       9.695  11.053  17.998  0.00  0.00    +0.000 A 
ATOM      9  N   UNL     1       9.956  12.390  18.007  0.00  0.00    +0.000 NA
ATOM     10  C   UNL     1       9.932  13.007  19.211  0.00  0.00    +0.000 A 
ATOM     11  C   UNL     1       9.718  12.336  20.399  0.00  0.00    +0.000 A 
ATOM     12  F   UNL     1       9.718  12.994  21.565  0.00  0.00    +0.000 F 
ATOM     13  C   UNL     1       9.464  10.971  20.369  0.00  0.00    +0.000 A 
ENDBRANCH   4   7
BRANCH   3  14
ATOM     14  C   UNL     1       7.424   6.083  17.542  0.00  0.00    +0.000 C 
BRANCH  14  15
ATOM     15  C   UNL     1       6.011   5.718  17.925  0.00  0.00    +0.000 A 
ATOM     16  C   UNL     1       5.782   5.132  19.181  0.00  0.00    +0.000 A 
ATOM     17  C   UNL     1       4.488   4.803  19.593  0.00  0.00    +0.000 A 
ATOM     18  C   UNL     1       3.409   5.049  18.749  0.00  0.00    +0.000 A 
ATOM     19 CL   UNL     1       1.817   4.642  19.259  0.00  0.00    +0.000 Cl
ATOM     20  C   UNL     1       3.611   5.618  17.496  0.00  0.00    +0.000 A 
ATOM     21  C   UNL     1       4.906   5.949  17.085  0.00  0.00    +0.000 A 
ATOM     22 CL   UNL     1       5.091   6.642  15.513  0.00  0.00    +0.000 Cl
ENDBRANCH  14  15
ENDBRANCH   3  14
TORSDOF 3
ENDMDL
MODEL 8
REMARK VINA RESULT:      -6.8      6.289      8.300
REMARK  Name = 
REMARK  3 active torsions:
REMARK  status: ('A' for Active; 'I' for Inactive)
REMARK    1  A    between atoms: N_3  and  C_4
REMARK    2  A    between atoms: C_4  and  C_5
REMARK    3  A    between atoms: N_13  and  C_14
REMARK                            x       y       z     vdW  Elec       q    Type
REMARK                         _______ _______ _______ _____ _____    ______ ____
ROOT
ATOM      1  O   UNL     1       8.332   7.280  18.660  0.00  0.00    +0.000 OA
ATOM      2  C   UNL     1       7.740   8.054  17.925  0.00  0.00    +0.000 C 
ATOM      3  N   UNL     1       8.064   9.398  17.823  0.00  0.00    +0.000 N 
ATOM      4  N   UNL     1       6.775   7.731  16.984  0.00  0.00    +0.000 N 
ATOM      5  H   UNL     1       7.321  10.051  17.612  0.00  0.00    +0.000 HD
ATOM      6  H   UNL     1       6.260   8.497  16.575  0.00  0.00    +0.000 HD
ENDROOT
BRANCH   4   7
ATOM      7  C   UNL     1       6.279   6.439  16.702  0.00  0.00    +0.000 A 
ATOM      8  C   UNL     1       7.024   5.392  16.158  0.00  0.00    +0.000 A 
ATOM      9  N   UNL     1       6.562   4.116  16.029  0.00  0.00    +0.000 NA
ATOM     10  C   UNL     1       5.295   3.883  16.442  0.00  0.00    +0.000 A 
ATOM     11  C   UNL     1       4.461   4.876  16.916  0.00  0.00    +0.000 A 
ATOM     12  F   UNL     1       3.209   4.592  17.298  0.00  0.00    +0.000 F 
ATOM     13  C   UNL     1       4.947   6.172  17.029  0.00  0.00    +0.000 A 
ENDBRANCH   4   7
BRANCH   3  14
ATOM     14  C   UNL     1       9.214   9.959  18.513  0.00  0.00    +0.000 C 
BRANCH  14  15
ATOM     15  C   UNL     1       9.338  11.451  18.328  0.00  0.00    +0.000 A 
ATOM     16  C   UNL     1       8.260  12.152  17.761  0.00  0.00    +0.000 A 
ATOM     17  C   UNL     1       8.314  13.538  17.596  0.00  0.00    +0.000 A 
ATOM     18  C   UNL     1       9.452  14.238  17.987  0.00  0.00    +0.000 A 
ATOM     19 CL   UNL     1       9.517  15.945  17.781  0.00  0.00    +0.000 Cl
ATOM     20  C   UNL     1      10.537  13.566  18.540  0.00  0.00    +0.000 A 
ATOM     21  C   UNL     1      10.480  12.178  18.707  0.00  0.00    +0.000 A 
ATOM     22 CL   UNL     1      11.865  11.400  19.389  0.00  0.00    +0.000 Cl
ENDBRANCH  14  15
ENDBRANCH   3  14
TORSDOF 3
ENDMDL
MODEL 9
REMARK VINA RESULT:      -6.8      6.086      8.098
REMARK  Name = 
REMARK  3 active torsions:
REMARK  status: ('A' for Active; 'I' for Inactive)
REMARK    1  A    between atoms: N_3  and  C_4
REMARK    2  A    between atoms: C_4  and  C_5
REMARK    3  A    between atoms: N_13  and  C_14
REMARK                            x       y       z     vdW  Elec       q    Type
REMARK                         _______ _______ _______ _____ _____    ______ ____
ROOT
ATOM      1  O   UNL     1       8.272   7.002  18.884  0.00  0.00    +0.000 OA
ATOM      2  C   UNL     1       7.835   7.850  18.121  0.00  0.00    +0.000 C 
ATOM      3  N   UNL     1       8.256   9.171  18.136  0.00  0.00    +0.000 N 
ATOM      4  N   UNL     1       6.987   7.640  17.045  0.00  0.00    +0.000 N 
ATOM      5  H   UNL     1       7.592   9.883  17.865  0.00  0.00    +0.000 HD
ATOM      6  H   UNL     1       6.583   8.458  16.615  0.00  0.00    +0.000 HD
ENDROOT
BRANCH   4   7
ATOM      7  C   UNL     1       6.451   6.400  16.630  0.00  0.00    +0.000 A 
ATOM      8  C   UNL     1       7.148   5.417  15.926  0.00  0.00    +0.000 A 
ATOM      9  N   UNL     1       6.654   4.175  15.664  0.00  0.00    +0.000 NA
ATOM     10  C   UNL     1       5.402   3.912  16.105  0.00  0.00    +0.000 A 
ATOM     11  C   UNL     1       4.612   4.851  16.737  0.00  0.00    +0.000 A 
ATOM     12  F   UNL     1       3.373   4.542  17.140  0.00  0.00    +0.000 F 
ATOM     13  C   UNL     1       5.130   6.115  16.986  0.00  0.00    +0.000 A 
ENDBRANCH   4   7
BRANCH   3  14
ATOM     14  C   UNL     1       9.337   9.616  19.001  0.00  0.00    +0.000 C 
BRANCH  14  15
ATOM     15  C   UNL     1       9.618  11.092  18.873  0.00  0.00    +0.000 A 
ATOM     16  C   UNL     1      10.093  11.584  17.646  0.00  0.00    +0.000 A 
ATOM     17  C   UNL     1      10.341  12.948  17.469  0.00  0.00    +0.000 A 
ATOM     18  C   UNL     1      10.126  13.834  18.521  0.00  0.00    +0.000 A 
ATOM     19 CL   UNL     1      10.432  15.512  18.301  0.00  0.00    +0.000 Cl
ATOM     20  C   UNL     1       9.666  13.369  19.749  0.00  0.00    +0.000 A 
ATOM     21  C   UNL     1       9.417  12.004  19.925  0.00  0.00    +0.000 A 
ATOM     22 CL   UNL     1       8.858  11.489  21.477  0.00  0.00    +0.000 Cl
ENDBRANCH  14  15
ENDBRANCH   3  14
TORSDOF 3
ENDMDL
