MODEL 1
REMARK VINA RESULT:      -8.5      0.000      0.000
REMARK  Name = 
REMARK  4 active torsions:
REMARK  status: ('A' for Active; 'I' for Inactive)
REMARK    1  A    between atoms: C_2  and  C_3
REMARK    2  A    between atoms: C_5  and  C_6
REMARK    3  A    between atoms: C_6  and  C_7
REMARK    4  A    between atoms: C_26  and  N_27
REMARK                            x       y       z     vdW  Elec       q    Type
REMARK                         _______ _______ _______ _____ _____    ______ ____
ROOT
ATOM      1  C   UNL     1       0.338   9.162  20.264  0.00  0.00    +0.000 A 
ATOM      2  C   UNL     1       1.439   8.296  20.310  0.00  0.00    +0.000 A 
ATOM      3  C   UNL     1       2.214   8.076  19.158  0.00  0.00    +0.000 A 
ATOM      4  C   UNL     1       1.870   8.730  17.964  0.00  0.00    +0.000 A 
ATOM      5  C   UNL     1       0.738   9.543  17.909  0.00  0.00    +0.000 A 
ATOM      6  C   UNL     1      -0.040   9.724  19.047  0.00  0.00    +0.000 A 
ATOM      7  F   UNL     1      -1.136  10.493  18.952  0.00  0.00    +0.000 F 
ENDROOT
BRANCH   1   9
ATOM      8  O   UNL     1      -0.797   8.482  22.166  0.00  0.00    +0.000 OA
ATOM      9  C   UNL     1      -0.395   9.448  21.518  0.00  0.00    +0.000 C 
ATOM     10  N   UNL     1      -0.554  10.774  21.926  0.00  0.00    +0.000 N 
ATOM     11  C   UNL     1      -1.250  11.070  23.174  0.00  0.00    +0.000 C 
ATOM     12  C   UNL     1      -2.196  12.267  23.018  0.00  0.00    +0.000 C 
ATOM     13  C   UNL     1      -1.539  13.527  22.379  0.00  0.00    +0.000 C 
ATOM     14  C   UNL     1      -0.834  13.045  21.087  0.00  0.00    +0.000 C 
ATOM     15  C   UNL     1       0.154  11.922  21.367  0.00  0.00    +0.000 C 
BRANCH  13  16
ATOM     16  N   UNL     1      -0.633  14.259  23.304  0.00  0.00    +0.000 NA
ATOM     17  C   UNL     1      -1.327  14.856  24.463  0.00  0.00    +0.000 C 
ATOM     18  C   UNL     1      -1.736  16.248  24.021  0.00  0.00    +0.000 C 
ATOM     19  C   UNL     1      -0.554  16.696  23.195  0.00  0.00    +0.000 C 
ATOM     20  C   UNL     1       0.067  15.404  22.677  0.00  0.00    +0.000 C 
ENDBRANCH  13  16
ENDBRANCH   1   9
BRANCH   3  21
ATOM     21  C   UNL     1       3.362   7.081  19.184  0.00  0.00    +0.000 C 
BRANCH  21  22
ATOM     22  C   UNL     1       3.060   5.708  18.606  0.00  0.00    +0.000 A 
ATOM     23  C   UNL     1       1.981   4.992  18.999  0.00  0.00    +0.000 A 
ATOM     24  N   UNL     1       1.731   3.733  18.518  0.00  0.00    +0.000 N 
ATOM     25  C   UNL     1       2.532   3.068  17.619  0.00  0.00    +0.000 A 
ATOM     26  O   UNL     1       2.265   1.929  17.253  0.00  0.00    +0.000 OA
ATOM     27  C   UNL     1       3.676   3.824  17.177  0.00  0.00    +0.000 A 
ATOM     28  C   UNL     1       4.662   3.457  16.283  0.00  0.00    +0.000 A 
ATOM     29  C   UNL     1       5.534   4.550  16.156  0.00  0.00    +0.000 A 
ATOM     30 CL   UNL     1       6.888   4.573  15.130  0.00  0.00    +0.000 Cl
ATOM     31  C   UNL     1       5.067   5.546  16.981  0.00  0.00    +0.000 A 
ATOM     32 CL   UNL     1       5.727   7.113  17.171  0.00  0.00    +0.000 Cl
ATOM     33  N   UNL     1       3.926   5.117  17.645  0.00  0.00    +0.000 N 
ATOM     34  H   UNL     1       0.923   3.216  18.844  0.00  0.00    +0.000 HD
ENDBRANCH  21  22
ENDBRANCH   3  21
TORSDOF 4
ENDMDL
MODEL 2
REMARK VINA RESULT:      -8.4      2.961      3.703
REMARK  Name = 
REMARK  4 active torsions:
REMARK  status: ('A' for Active; 'I' for Inactive)
REMARK    1  A    between atoms: C_2  and  C_3
REMARK    2  A    between atoms: C_5  and  C_6
REMARK    3  A    between atoms: C_6  and  C_7
REMARK    4  A    between atoms: C_26  and  N_27
REMARK                            x       y       z     vdW  Elec       q    Type
REMARK                         _______ _______ _______ _____ _____    ______ ____
ROOT
ATOM      1  C   UNL     1       0.701   9.618  19.417  0.00  0.00    +0.000 A 
ATOM      2  C   UNL     1       1.388   9.131  18.297  0.00  0.00    +0.000 A 
ATOM      3  C   UNL     1       2.201   7.989  18.408  0.00  0.00    +0.000 A 
ATOM      4  C   UNL     1       2.317   7.347  19.651  0.00  0.00    +0.000 A 
ATOM      5  C   UNL     1       1.680   7.872  20.776  0.00  0.00    +0.000 A 
ATOM      6  C   UNL     1       0.907   9.022  20.660  0.00  0.00    +0.000 A 
ATOM      7  F   UNL     1       0.329   9.512  21.766  0.00  0.00    +0.000 F 
ENDROOT
BRANCH   1   9
ATOM      8  O   UNL     1      -1.398  10.500  18.992  0.00  0.00    +0.000 OA
ATOM      9  C   UNL     1      -0.223  10.761  19.243  0.00  0.00    +0.000 C 
ATOM     10  N   UNL     1       0.261  12.059  19.415  0.00  0.00    +0.000 N 
ATOM     11  C   UNL     1      -0.644  13.196  19.275  0.00  0.00    +0.000 C 
ATOM     12  C   UNL     1       0.012  14.343  18.497  0.00  0.00    +0.000 C 
ATOM     13  C   UNL     1       1.420  14.754  19.022  0.00  0.00    +0.000 C 
ATOM     14  C   UNL     1       2.244  13.448  19.132  0.00  0.00    +0.000 C 
ATOM     15  C   UNL     1       1.551  12.412  20.003  0.00  0.00    +0.000 C 
BRANCH  13  16
ATOM     16  N   UNL     1       1.377  15.529  20.292  0.00  0.00    +0.000 NA
ATOM     17  C   UNL     1       0.528  16.735  20.219  0.00  0.00    +0.000 C 
ATOM     18  C   UNL     1       1.442  17.853  19.757  0.00  0.00    +0.000 C 
ATOM     19  C   UNL     1       2.731  17.551  20.484  0.00  0.00    +0.000 C 
ATOM     20  C   UNL     1       2.697  16.046  20.723  0.00  0.00    +0.000 C 
ENDBRANCH  13  16
ENDBRANCH   1   9
BRANCH   3  21
ATOM     21  C   UNL     1       3.006   7.502  17.215  0.00  0.00    +0.000 C 
BRANCH  21  22
ATOM     22  C   UNL     1       4.224   6.655  17.542  0.00  0.00    +0.000 A 
ATOM     23  C   UNL     1       5.459   7.196  17.656  0.00  0.00    +0.000 A 
ATOM     24  N   UNL     1       6.569   6.428  17.901  0.00  0.00    +0.000 N 
ATOM     25  C   UNL     1       6.556   5.061  18.041  0.00  0.00    +0.000 A 
ATOM     26  O   UNL     1       7.591   4.432  18.229  0.00  0.00    +0.000 OA
ATOM     27  C   UNL     1       5.245   4.470  17.940  0.00  0.00    +0.000 A 
ATOM     28  C   UNL     1       4.887   3.141  18.040  0.00  0.00    +0.000 A 
ATOM     29  C   UNL     1       3.490   3.077  17.909  0.00  0.00    +0.000 A 
ATOM     30 CL   UNL     1       2.589   1.640  18.001  0.00  0.00    +0.000 Cl
ATOM     31  C   UNL     1       3.037   4.362  17.719  0.00  0.00    +0.000 A 
ATOM     32 CL   UNL     1       1.409   4.861  17.553  0.00  0.00    +0.000 Cl
ATOM     33  N   UNL     1       4.106   5.247  17.712  0.00  0.00    +0.000 N 
ATOM     34  H   UNL     1       7.482   6.863  17.965  0.00  0.00    +0.000 HD
ENDBRANCH  21  22
ENDBRANCH   3  21
TORSDOF 4
ENDMDL
MODEL 3
REMARK VINA RESULT:      -8.1      2.320      2.891
REMARK  Name = 
REMARK  4 active torsions:
REMARK  status: ('A' for Active; 'I' for Inactive)
REMARK    1  A    between atoms: C_2  and  C_3
REMARK    2  A    between atoms: C_5  and  C_6
REMARK    3  A    between atoms: C_6  and  C_7
REMARK    4  A    between atoms: C_26  and  N_27
REMARK                            x       y       z     vdW  Elec       q    Type
REMARK                         _______ _______ _______ _____ _____    ______ ____
ROOT
ATOM      1  C   UNL     1       0.433   9.955  19.813  0.00  0.00    +0.000 A 
ATOM      2  C   UNL     1       1.182   9.370  18.784  0.00  0.00    +0.000 A 
ATOM      3  C   UNL     1       1.917   8.196  19.024  0.00  0.00    +0.000 A 
ATOM      4  C   UNL     1       1.894   7.621  20.304  0.00  0.00    +0.000 A 
ATOM      5  C   UNL     1       1.197   8.242  21.341  0.00  0.00    +0.000 A 
ATOM      6  C   UNL     1       0.502   9.422  21.098  0.00  0.00    +0.000 A 
ATOM      7  F   UNL     1      -0.137  10.004  22.124  0.00  0.00    +0.000 F 
ENDROOT
BRANCH   1   9
ATOM      8  O   UNL     1      -1.567  10.918  19.152  0.00  0.00    +0.000 OA
ATOM      9  C   UNL     1      -0.407  11.133  19.501  0.00  0.00    +0.000 C 
ATOM     10  N   UNL     1       0.130  12.412  19.656  0.00  0.00    +0.000 N 
ATOM     11  C   UNL     1      -0.695  13.584  19.380  0.00  0.00    +0.000 C 
ATOM     12  C   UNL     1       0.090  14.656  18.615  0.00  0.00    +0.000 C 
ATOM     13  C   UNL     1       1.465  15.022  19.251  0.00  0.00    +0.000 C 
ATOM     14  C   UNL     1       2.203  13.683  19.497  0.00  0.00    +0.000 C 
ATOM     15  C   UNL     1       1.377  12.729  20.346  0.00  0.00    +0.000 C 
BRANCH  13  16
ATOM     16  N   UNL     1       1.349  15.862  20.473  0.00  0.00    +0.000 NA
ATOM     17  C   UNL     1       0.460  17.029  20.306  0.00  0.00    +0.000 C 
ATOM     18  C   UNL     1       1.349  18.154  19.813  0.00  0.00    +0.000 C 
ATOM     19  C   UNL     1       2.622  17.942  20.599  0.00  0.00    +0.000 C 
ATOM     20  C   UNL     1       2.633  16.452  20.919  0.00  0.00    +0.000 C 
ENDBRANCH  13  16
ENDBRANCH   1   9
BRANCH   3  21
ATOM     21  C   UNL     1       2.789   7.600  17.931  0.00  0.00    +0.000 C 
BRANCH  21  22
ATOM     22  C   UNL     1       2.760   6.085  17.816  0.00  0.00    +0.000 A 
ATOM     23  C   UNL     1       1.599   5.391  17.846  0.00  0.00    +0.000 A 
ATOM     24  N   UNL     1       1.571   4.021  17.793  0.00  0.00    +0.000 N 
ATOM     25  C   UNL     1       2.686   3.219  17.720  0.00  0.00    +0.000 A 
ATOM     26  O   UNL     1       2.591   1.998  17.707  0.00  0.00    +0.000 OA
ATOM     27  C   UNL     1       3.931   3.944  17.669  0.00  0.00    +0.000 A 
ATOM     28  C   UNL     1       5.217   3.450  17.586  0.00  0.00    +0.000 A 
ATOM     29  C   UNL     1       6.083   4.553  17.528  0.00  0.00    +0.000 A 
ATOM     30 CL   UNL     1       7.771   4.432  17.384  0.00  0.00    +0.000 Cl
ATOM     31  C   UNL     1       5.307   5.687  17.590  0.00  0.00    +0.000 A 
ATOM     32 CL   UNL     1       5.852   7.307  17.506  0.00  0.00    +0.000 Cl
ATOM     33  N   UNL     1       3.967   5.341  17.700  0.00  0.00    +0.000 N 
ATOM     34  H   UNL     1       0.686   3.529  17.834  0.00  0.00    +0.000 HD
ENDBRANCH  21  22
ENDBRANCH   3  21
TORSDOF 4
ENDMDL
MODEL 4
REMARK VINA RESULT:      -8.1      4.312     10.354
REMARK  Name = 
REMARK  4 active torsions:
REMARK  status: ('A' for Active; 'I' for Inactive)
REMARK    1  A    between atoms: C_2  and  C_3
REMARK    2  A    between atoms: C_5  and  C_6
REMARK    3  A    between atoms: C_6  and  C_7
REMARK    4  A    between atoms: C_26  and  N_27
REMARK                            x       y       z     vdW  Elec       q    Type
REMARK                         _______ _______ _______ _____ _____    ______ ____
ROOT
ATOM      1  C   UNL     1       4.158   4.499  19.595  0.00  0.00    +0.000 A 
ATOM      2  C   UNL     1       3.415   5.640  19.927  0.00  0.00    +0.000 A 
ATOM      3  C   UNL     1       2.128   5.511  20.478  0.00  0.00    +0.000 A 
ATOM      4  C   UNL     1       1.597   4.228  20.687  0.00  0.00    +0.000 A 
ATOM      5  C   UNL     1       2.315   3.098  20.298  0.00  0.00    +0.000 A 
ATOM      6  C   UNL     1       3.573   3.241  19.722  0.00  0.00    +0.000 A 
ATOM      7  F   UNL     1       4.225   2.133  19.339  0.00  0.00    +0.000 F 
ENDROOT
BRANCH   1   9
ATOM      8  O   UNL     1       6.422   4.824  19.961  0.00  0.00    +0.000 OA
ATOM      9  C   UNL     1       5.546   4.669  19.111  0.00  0.00    +0.000 C 
ATOM     10  N   UNL     1       5.801   4.602  17.740  0.00  0.00    +0.000 N 
ATOM     11  C   UNL     1       7.169   4.739  17.249  0.00  0.00    +0.000 C 
ATOM     12  C   UNL     1       7.230   5.621  15.996  0.00  0.00    +0.000 C 
ATOM     13  C   UNL     1       6.224   5.218  14.876  0.00  0.00    +0.000 C 
ATOM     14  C   UNL     1       4.838   5.096  15.556  0.00  0.00    +0.000 C 
ATOM     15  C   UNL     1       4.865   4.124  16.726  0.00  0.00    +0.000 C 
BRANCH  13  16
ATOM     16  N   UNL     1       6.623   3.992  14.134  0.00  0.00    +0.000 NA
ATOM     17  C   UNL     1       7.712   4.217  13.162  0.00  0.00    +0.000 C 
ATOM     18  C   UNL     1       7.029   4.589  11.860  0.00  0.00    +0.000 C 
ATOM     19  C   UNL     1       5.819   3.685  11.848  0.00  0.00    +0.000 C 
ATOM     20  C   UNL     1       5.533   3.404  13.319  0.00  0.00    +0.000 C 
ENDBRANCH  13  16
ENDBRANCH   1   9
BRANCH   3  21
ATOM     21  C   UNL     1       1.291   6.746  20.769  0.00  0.00    +0.000 C 
BRANCH  21  22
ATOM     22  C   UNL     1       1.511   7.926  19.838  0.00  0.00    +0.000 A 
ATOM     23  C   UNL     1       2.195   7.800  18.677  0.00  0.00    +0.000 A 
ATOM     24  N   UNL     1       2.440   8.873  17.858  0.00  0.00    +0.000 N 
ATOM     25  C   UNL     1       2.043  10.162  18.122  0.00  0.00    +0.000 A 
ATOM     26  O   UNL     1       2.321  11.081  17.360  0.00  0.00    +0.000 OA
ATOM     27  C   UNL     1       1.297  10.311  19.346  0.00  0.00    +0.000 A 
ATOM     28  C   UNL     1       0.752  11.455  19.893  0.00  0.00    +0.000 A 
ATOM     29  C   UNL     1       0.092  11.078  21.073  0.00  0.00    +0.000 A 
ATOM     30 CL   UNL     1      -0.761  12.153  22.073  0.00  0.00    +0.000 Cl
ATOM     31  C   UNL     1       0.261   9.720  21.221  0.00  0.00    +0.000 A 
ATOM     32 CL   UNL     1      -0.383   8.737  22.464  0.00  0.00    +0.000 Cl
ATOM     33  N   UNL     1       1.024   9.219  20.175  0.00  0.00    +0.000 N 
ATOM     34  H   UNL     1       2.969   8.748  17.003  0.00  0.00    +0.000 HD
ENDBRANCH  21  22
ENDBRANCH   3  21
TORSDOF 4
ENDMDL
MODEL 5
REMARK VINA RESULT:      -8.1      1.823      2.236
REMARK  Name = 
REMARK  4 active torsions:
REMARK  status: ('A' for Active; 'I' for Inactive)
REMARK    1  A    between atoms: C_2  and  C_3
REMARK    2  A    between atoms: C_5  and  C_6
REMARK    3  A    between atoms: C_6  and  C_7
REMARK    4  A    between atoms: C_26  and  N_27
REMARK                            x       y       z     vdW  Elec       q    Type
REMARK                         _______ _______ _______ _____ _____    ______ ____
ROOT
ATOM      1  C   UNL     1       0.450  10.021  20.112  0.00  0.00    +0.000 A 
ATOM      2  C   UNL     1       1.233   8.956  20.578  0.00  0.00    +0.000 A 
ATOM      3  C   UNL     1       1.892   8.111  19.668  0.00  0.00    +0.000 A 
ATOM      4  C   UNL     1       1.755   8.347  18.291  0.00  0.00    +0.000 A 
ATOM      5  C   UNL     1       0.925   9.370  17.831  0.00  0.00    +0.000 A 
ATOM      6  C   UNL     1       0.251  10.176  18.742  0.00  0.00    +0.000 A 
ATOM      7  F   UNL     1      -0.557  11.135  18.265  0.00  0.00    +0.000 F 
ENDROOT
BRANCH   1   9
ATOM      8  O   UNL     1      -0.982  10.482  21.874  0.00  0.00    +0.000 OA
ATOM      9  C   UNL     1      -0.149  10.949  21.098  0.00  0.00    +0.000 C 
ATOM     10  N   UNL     1       0.284  12.276  21.133  0.00  0.00    +0.000 N 
ATOM     11  C   UNL     1      -0.277  13.196  22.117  0.00  0.00    +0.000 C 
ATOM     12  C   UNL     1      -0.569  14.568  21.500  0.00  0.00    +0.000 C 
ATOM     13  C   UNL     1       0.623  15.185  20.708  0.00  0.00    +0.000 C 
ATOM     14  C   UNL     1       1.110  14.089  19.729  0.00  0.00    +0.000 C 
ATOM     15  C   UNL     1       1.466  12.800  20.454  0.00  0.00    +0.000 C 
BRANCH  13  16
ATOM     16  N   UNL     1       1.704  15.716  21.580  0.00  0.00    +0.000 NA
ATOM     17  C   UNL     1       1.278  16.846  22.430  0.00  0.00    +0.000 C 
ATOM     18  C   UNL     1       1.544  18.095  21.613  0.00  0.00    +0.000 C 
ATOM     19  C   UNL     1       2.847  17.771  20.922  0.00  0.00    +0.000 C 
ATOM     20  C   UNL     1       2.868  16.249  20.834  0.00  0.00    +0.000 C 
ENDBRANCH  13  16
ENDBRANCH   1   9
BRANCH   3  21
ATOM     21  C   UNL     1       2.680   6.912  20.167  0.00  0.00    +0.000 C 
BRANCH  21  22
ATOM     22  C   UNL     1       2.152   5.552  19.741  0.00  0.00    +0.000 A 
ATOM     23  C   UNL     1       1.111   4.963  20.372  0.00  0.00    +0.000 A 
ATOM     24  N   UNL     1       0.663   3.714  20.024  0.00  0.00    +0.000 N 
ATOM     25  C   UNL     1       1.214   2.936  19.034  0.00  0.00    +0.000 A 
ATOM     26  O   UNL     1       0.782   1.814  18.795  0.00  0.00    +0.000 OA
ATOM     27  C   UNL     1       2.314   3.556  18.339  0.00  0.00    +0.000 A 
ATOM     28  C   UNL     1       3.073   3.056  17.301  0.00  0.00    +0.000 A 
ATOM     29  C   UNL     1       3.997   4.051  16.945  0.00  0.00    +0.000 A 
ATOM     30 CL   UNL     1       5.125   3.898  15.685  0.00  0.00    +0.000 Cl
ATOM     31  C   UNL     1       3.787   5.124  17.781  0.00  0.00    +0.000 A 
ATOM     32 CL   UNL     1       4.606   6.625  17.748  0.00  0.00    +0.000 Cl
ATOM     33  N   UNL     1       2.762   4.838  18.673  0.00  0.00    +0.000 N 
ATOM     34  H   UNL     1      -0.110   3.294  20.528  0.00  0.00    +0.000 HD
ENDBRANCH  21  22
ENDBRANCH   3  21
TORSDOF 4
ENDMDL
MODEL 6
REMARK VINA RESULT:      -8.1      3.488     10.453
REMARK  Name = 
REMARK  4 active torsions:
REMARK  status: ('A' for Active; 'I' for Inactive)
REMARK    1  A    between atoms: C_2  and  C_3
REMARK    2  A    between atoms: C_5  and  C_6
REMARK    3  A    between atoms: C_6  and  C_7
REMARK    4  A    between atoms: C_26  and  N_27
REMARK                            x       y       z     vdW  Elec       q    Type
REMARK                         _______ _______ _______ _____ _____    ______ ____
ROOT
ATOM      1  C   UNL     1       4.150   5.371  19.413  0.00  0.00    +0.000 A 
ATOM      2  C   UNL     1       3.596   6.624  19.121  0.00  0.00    +0.000 A 
ATOM      3  C   UNL     1       2.326   6.969  19.616  0.00  0.00    +0.000 A 
ATOM      4  C   UNL     1       1.622   6.043  20.402  0.00  0.00    +0.000 A 
ATOM      5  C   UNL     1       2.151   4.774  20.638  0.00  0.00    +0.000 A 
ATOM      6  C   UNL     1       3.393   4.434  20.113  0.00  0.00    +0.000 A 
ATOM      7  F   UNL     1       3.861   3.197  20.340  0.00  0.00    +0.000 F 
ENDROOT
BRANCH   1   9
ATOM      8  O   UNL     1       6.401   5.008  19.824  0.00  0.00    +0.000 OA
ATOM      9  C   UNL     1       5.529   5.079  18.960  0.00  0.00    +0.000 C 
ATOM     10  N   UNL     1       5.765   4.856  17.602  0.00  0.00    +0.000 N 
ATOM     11  C   UNL     1       7.114   4.539  17.143  0.00  0.00    +0.000 C 
ATOM     12  C   UNL     1       7.456   5.284  15.847  0.00  0.00    +0.000 C 
ATOM     13  C   UNL     1       6.386   5.143  14.722  0.00  0.00    +0.000 C 
ATOM     14  C   UNL     1       5.023   5.491  15.369  0.00  0.00    +0.000 C 
ATOM     15  C   UNL     1       4.738   4.629  16.589  0.00  0.00    +0.000 C 
BRANCH  13  16
ATOM     16  N   UNL     1       6.397   3.812  14.057  0.00  0.00    +0.000 NA
ATOM     17  C   UNL     1       7.379   3.708  12.959  0.00  0.00    +0.000 C 
ATOM     18  C   UNL     1       6.642   4.147  11.709  0.00  0.00    +0.000 C 
ATOM     19  C   UNL     1       5.265   3.559  11.909  0.00  0.00    +0.000 C 
ATOM     20  C   UNL     1       5.109   3.450  13.421  0.00  0.00    +0.000 C 
ENDBRANCH  13  16
ENDBRANCH   1   9
BRANCH   3  21
ATOM     21  C   UNL     1       1.690   8.297  19.240  0.00  0.00    +0.000 C 
BRANCH  21  22
ATOM     22  C   UNL     1       1.032   9.059  20.377  0.00  0.00    +0.000 A 
ATOM     23  C   UNL     1       0.553   8.428  21.474  0.00  0.00    +0.000 A 
ATOM     24  N   UNL     1      -0.086   9.106  22.481  0.00  0.00    +0.000 N 
ATOM     25  C   UNL     1      -0.321  10.461  22.483  0.00  0.00    +0.000 A 
ATOM     26  O   UNL     1      -0.926  10.998  23.403  0.00  0.00    +0.000 OA
ATOM     27  C   UNL     1       0.199  11.151  21.329  0.00  0.00    +0.000 A 
ATOM     28  C   UNL     1       0.143  12.497  21.030  0.00  0.00    +0.000 A 
ATOM     29  C   UNL     1       0.823  12.680  19.815  0.00  0.00    +0.000 A 
ATOM     30 CL   UNL     1       1.042  14.188  19.064  0.00  0.00    +0.000 Cl
ATOM     31  C   UNL     1       1.263  11.444  19.401  0.00  0.00    +0.000 A 
ATOM     32 CL   UNL     1       2.192  11.102  18.006  0.00  0.00    +0.000 Cl
ATOM     33  N   UNL     1       0.872  10.471  20.310  0.00  0.00    +0.000 N 
ATOM     34  H   UNL     1      -0.448   8.602  23.282  0.00  0.00    +0.000 HD
ENDBRANCH  21  22
ENDBRANCH   3  21
TORSDOF 4
ENDMDL
MODEL 7
REMARK VINA RESULT:      -8.0      3.770     10.537
REMARK  Name = 
REMARK  4 active torsions:
REMARK  status: ('A' for Active; 'I' for Inactive)
REMARK    1  A    between atoms: C_2  and  C_3
REMARK    2  A    between atoms: C_5  and  C_6
REMARK    3  A    between atoms: C_6  and  C_7
REMARK    4  A    between atoms: C_26  and  N_27
REMARK                            x       y       z     vdW  Elec       q    Type
REMARK                         _______ _______ _______ _____ _____    ______ ____
ROOT
ATOM      1  C   UNL     1       4.205   5.161  19.419  0.00  0.00    +0.000 A 
ATOM      2  C   UNL     1       3.613   6.399  19.134  0.00  0.00    +0.000 A 
ATOM      3  C   UNL     1       2.341   6.709  19.647  0.00  0.00    +0.000 A 
ATOM      4  C   UNL     1       1.673   5.765  20.443  0.00  0.00    +0.000 A 
ATOM      5  C   UNL     1       2.240   4.511  20.672  0.00  0.00    +0.000 A 
ATOM      6  C   UNL     1       3.484   4.204  20.130  0.00  0.00    +0.000 A 
ATOM      7  F   UNL     1       3.988   2.981  20.351  0.00  0.00    +0.000 F 
ENDROOT
BRANCH   1   9
ATOM      8  O   UNL     1       6.466   4.831  19.801  0.00  0.00    +0.000 OA
ATOM      9  C   UNL     1       5.585   4.906  18.946  0.00  0.00    +0.000 C 
ATOM     10  N   UNL     1       5.813   4.721  17.582  0.00  0.00    +0.000 N 
ATOM     11  C   UNL     1       7.163   4.441  17.103  0.00  0.00    +0.000 C 
ATOM     12  C   UNL     1       7.479   5.223  15.823  0.00  0.00    +0.000 C 
ATOM     13  C   UNL     1       6.402   5.089  14.705  0.00  0.00    +0.000 C 
ATOM     14  C   UNL     1       5.038   5.396  15.371  0.00  0.00    +0.000 C 
ATOM     15  C   UNL     1       4.781   4.499  16.573  0.00  0.00    +0.000 C 
BRANCH  13  16
ATOM     16  N   UNL     1       6.432   3.775  14.007  0.00  0.00    +0.000 NA
ATOM     17  C   UNL     1       7.404   3.717  12.897  0.00  0.00    +0.000 C 
ATOM     18  C   UNL     1       6.645   4.171  11.665  0.00  0.00    +0.000 C 
ATOM     19  C   UNL     1       5.282   3.551  11.865  0.00  0.00    +0.000 C 
ATOM     20  C   UNL     1       5.144   3.403  13.376  0.00  0.00    +0.000 C 
ENDBRANCH  13  16
ENDBRANCH   1   9
BRANCH   3  21
ATOM     21  C   UNL     1       1.665   8.019  19.278  0.00  0.00    +0.000 C 
BRANCH  21  22
ATOM     22  C   UNL     1       1.091   8.814  20.439  0.00  0.00    +0.000 A 
ATOM     23  C   UNL     1       1.502   8.612  21.713  0.00  0.00    +0.000 A 
ATOM     24  N   UNL     1       0.951   9.292  22.769  0.00  0.00    +0.000 N 
ATOM     25  C   UNL     1      -0.060  10.217  22.661  0.00  0.00    +0.000 A 
ATOM     26  O   UNL     1      -0.527  10.766  23.652  0.00  0.00    +0.000 OA
ATOM     27  C   UNL     1      -0.497  10.457  21.308  0.00  0.00    +0.000 A 
ATOM     28  C   UNL     1      -1.475  11.319  20.856  0.00  0.00    +0.000 A 
ATOM     29  C   UNL     1      -1.501  11.220  19.456  0.00  0.00    +0.000 A 
ATOM     30 CL   UNL     1      -2.530  12.127  18.455  0.00  0.00    +0.000 Cl
ATOM     31  C   UNL     1      -0.551  10.293  19.093  0.00  0.00    +0.000 A 
ATOM     32 CL   UNL     1      -0.131   9.825  17.502  0.00  0.00    +0.000 Cl
ATOM     33  N   UNL     1       0.074   9.785  20.224  0.00  0.00    +0.000 N 
ATOM     34  H   UNL     1       1.270   9.106  23.713  0.00  0.00    +0.000 HD
ENDBRANCH  21  22
ENDBRANCH   3  21
TORSDOF 4
ENDMDL
MODEL 8
REMARK VINA RESULT:      -8.0      6.285     10.792
REMARK  Name = 
REMARK  4 active torsions:
REMARK  status: ('A' for Active; 'I' for Inactive)
REMARK    1  A    between atoms: C_2  and  C_3
REMARK    2  A    between atoms: C_5  and  C_6
REMARK    3  A    between atoms: C_6  and  C_7
REMARK    4  A    between atoms: C_26  and  N_27
REMARK                            x       y       z     vdW  Elec       q    Type
REMARK                         _______ _______ _______ _____ _____    ______ ____
ROOT
ATOM      1  C   UNL     1      -0.346  13.007  22.223  0.00  0.00    +0.000 A 
ATOM      2  C   UNL     1      -1.348  13.179  23.188  0.00  0.00    +0.000 A 
ATOM      3  C   UNL     1      -1.652  14.464  23.670  0.00  0.00    +0.000 A 
ATOM      4  C   UNL     1      -0.940  15.569  23.175  0.00  0.00    +0.000 A 
ATOM      5  C   UNL     1       0.097  15.385  22.261  0.00  0.00    +0.000 A 
ATOM      6  C   UNL     1       0.411  14.104  21.819  0.00  0.00    +0.000 A 
ATOM      7  F   UNL     1       1.430  13.962  20.957  0.00  0.00    +0.000 F 
ENDROOT
BRANCH   1   9
ATOM      8  O   UNL     1       0.553  10.875  22.338  0.00  0.00    +0.000 OA
ATOM      9  C   UNL     1      -0.120  11.654  21.665  0.00  0.00    +0.000 C 
ATOM     10  N   UNL     1      -0.708  11.315  20.445  0.00  0.00    +0.000 N 
ATOM     11  C   UNL     1      -0.518   9.976  19.896  0.00  0.00    +0.000 C 
ATOM     12  C   UNL     1      -0.257  10.021  18.386  0.00  0.00    +0.000 C 
ATOM     13  C   UNL     1      -1.290  10.863  17.578  0.00  0.00    +0.000 C 
ATOM     14  C   UNL     1      -1.390  12.234  18.293  0.00  0.00    +0.000 C 
ATOM     15  C   UNL     1      -1.748  12.081  19.763  0.00  0.00    +0.000 C 
BRANCH  13  16
ATOM     16  N   UNL     1      -2.606  10.189  17.415  0.00  0.00    +0.000 NA
ATOM     17  C   UNL     1      -2.807   9.603  16.074  0.00  0.00    +0.000 C 
ATOM     18  C   UNL     1      -3.445  10.697  15.240  0.00  0.00    +0.000 C 
ATOM     19  C   UNL     1      -4.386  11.357  16.219  0.00  0.00    +0.000 C 
ATOM     20  C   UNL     1      -3.767  11.094  17.587  0.00  0.00    +0.000 C 
ENDBRANCH  13  16
ENDBRANCH   1   9
BRANCH   3  21
ATOM     21  C   UNL     1      -2.684  14.646  24.770  0.00  0.00    +0.000 C 
BRANCH  21  22
ATOM     22  C   UNL     1      -4.006  13.927  24.559  0.00  0.00    +0.000 A 
ATOM     23  C   UNL     1      -4.192  12.647  24.955  0.00  0.00    +0.000 A 
ATOM     24  N   UNL     1      -5.366  11.977  24.722  0.00  0.00    +0.000 N 
ATOM     25  C   UNL     1      -6.451  12.509  24.066  0.00  0.00    +0.000 A 
ATOM     26  O   UNL     1      -7.460  11.844  23.865  0.00  0.00    +0.000 OA
ATOM     27  C   UNL     1      -6.276  13.879  23.652  0.00  0.00    +0.000 A 
ATOM     28  C   UNL     1      -7.163  14.700  22.986  0.00  0.00    +0.000 A 
ATOM     29  C   UNL     1      -6.543  15.952  22.845  0.00  0.00    +0.000 A 
ATOM     30 CL   UNL     1      -7.273  17.300  22.112  0.00  0.00    +0.000 Cl
ATOM     31  C   UNL     1      -5.294  15.858  23.415  0.00  0.00    +0.000 A 
ATOM     32 CL   UNL     1      -4.138  17.111  23.563  0.00  0.00    +0.000 Cl
ATOM     33  N   UNL     1      -5.091  14.576  23.906  0.00  0.00    +0.000 N 
ATOM     34  H   UNL     1      -5.468  11.013  25.018  0.00  0.00    +0.000 HD
ENDBRANCH  21  22
ENDBRANCH   3  21
TORSDOF 4
ENDMDL
MODEL 9
REMARK VINA RESULT:      -7.9      2.467      3.303
REMARK  Name = 
REMARK  4 active torsions:
REMARK  status: ('A' for Active; 'I' for Inactive)
REMARK    1  A    between atoms: C_2  and  C_3
REMARK    2  A    between atoms: C_5  and  C_6
REMARK    3  A    between atoms: C_6  and  C_7
REMARK    4  A    between atoms: C_26  and  N_27
REMARK                            x       y       z     vdW  Elec       q    Type
REMARK                         _______ _______ _______ _____ _____    ______ ____
ROOT
ATOM      1  C   UNL     1       0.331  10.180  20.091  0.00  0.00    +0.000 A 
ATOM      2  C   UNL     1       1.297   9.234  19.722  0.00  0.00    +0.000 A 
ATOM      3  C   UNL     1       1.465   8.062  20.481  0.00  0.00    +0.000 A 
ATOM      4  C   UNL     1       0.658   7.855  21.611  0.00  0.00    +0.000 A 
ATOM      5  C   UNL     1      -0.259   8.829  22.009  0.00  0.00    +0.000 A 
ATOM      6  C   UNL     1      -0.390   9.999  21.269  0.00  0.00    +0.000 A 
ATOM      7  F   UNL     1      -1.264  10.924  21.694  0.00  0.00    +0.000 F 
ENDROOT
BRANCH   1   9
ATOM      8  O   UNL     1      -0.619  11.196  18.239  0.00  0.00    +0.000 OA
ATOM      9  C   UNL     1       0.113  11.353  19.214  0.00  0.00    +0.000 C 
ATOM     10  N   UNL     1       0.700  12.574  19.553  0.00  0.00    +0.000 N 
ATOM     11  C   UNL     1       0.471  13.746  18.714  0.00  0.00    +0.000 C 
ATOM     12  C   UNL     1       1.759  14.554  18.514  0.00  0.00    +0.000 C 
ATOM     13  C   UNL     1       2.517  14.893  19.833  0.00  0.00    +0.000 C 
ATOM     14  C   UNL     1       2.662  13.561  20.609  0.00  0.00    +0.000 C 
ATOM     15  C   UNL     1       1.316  12.890  20.838  0.00  0.00    +0.000 C 
BRANCH  13  16
ATOM     16  N   UNL     1       1.868  15.969  20.629  0.00  0.00    +0.000 NA
ATOM     17  C   UNL     1       1.987  17.310  20.021  0.00  0.00    +0.000 C 
ATOM     18  C   UNL     1       3.271  17.897  20.573  0.00  0.00    +0.000 C 
ATOM     19  C   UNL     1       3.266  17.422  22.007  0.00  0.00    +0.000 C 
ATOM     20  C   UNL     1       2.442  16.140  21.985  0.00  0.00    +0.000 C 
ENDBRANCH  13  16
ENDBRANCH   1   9
BRANCH   3  21
ATOM     21  C   UNL     1       2.560   7.070  20.128  0.00  0.00    +0.000 C 
BRANCH  21  22
ATOM     22  C   UNL     1       2.088   5.682  19.727  0.00  0.00    +0.000 A 
ATOM     23  C   UNL     1       1.095   5.048  20.392  0.00  0.00    +0.000 A 
ATOM     24  N   UNL     1       0.700   3.776  20.067  0.00  0.00    +0.000 N 
ATOM     25  C   UNL     1       1.261   3.016  19.067  0.00  0.00    +0.000 A 
ATOM     26  O   UNL     1       0.880   1.872  18.849  0.00  0.00    +0.000 OA
ATOM     27  C   UNL     1       2.310   3.684  18.337  0.00  0.00    +0.000 A 
ATOM     28  C   UNL     1       3.063   3.212  17.282  0.00  0.00    +0.000 A 
ATOM     29  C   UNL     1       3.927   4.248  16.892  0.00  0.00    +0.000 A 
ATOM     30 CL   UNL     1       5.025   4.139  15.602  0.00  0.00    +0.000 Cl
ATOM     31  C   UNL     1       3.687   5.316  17.726  0.00  0.00    +0.000 A 
ATOM     32 CL   UNL     1       4.430   6.856  17.657  0.00  0.00    +0.000 Cl
ATOM     33  N   UNL     1       2.702   4.989  18.648  0.00  0.00    +0.000 N 
ATOM     34  H   UNL     1      -0.036   3.322  20.595  0.00  0.00    +0.000 HD
ENDBRANCH  21  22
ENDBRANCH   3  21
TORSDOF 4
ENDMDL
