MODEL 1
REMARK VINA RESULT:      -6.2      0.000      0.000
REMARK  Name = 
REMARK  10 active torsions:
REMARK  status: ('A' for Active; 'I' for Inactive)
REMARK    1  A    between atoms: C_1  and  C_2
REMARK    2  A    between atoms: C_2  and  O_3
REMARK    3  A    between atoms: O_3  and  C_4
REMARK    4  A    between atoms: C_4  and  C_6
REMARK    5  A    between atoms: C_7  and  N_8
REMARK    6  A    between atoms: C_16  and  C_17
REMARK    7  A    between atoms: C_21  and  O_22
REMARK    8  A    between atoms: O_22  and  C_23
REMARK    9  A    between atoms: C_24  and  O_25
REMARK   10  A    between atoms: O_25  and  C_26
REMARK                            x       y       z     vdW  Elec       q    Type
REMARK                         _______ _______ _______ _____ _____    ______ ____
ROOT
ATOM      1  C   UNL     1      -2.126  13.242  22.342  0.00  0.00    +0.000 C 
ATOM      2  C   UNL     1      -2.938  14.198  22.830  0.00  0.00    +0.000 C 
ATOM      3  O   UNL     1      -3.069  15.444  22.217  0.00  0.00    +0.000 OA
ATOM      4  C   UNL     1      -2.263  15.777  21.157  0.00  0.00    +0.000 A 
ATOM      5  C   UNL     1      -2.420  17.061  20.622  0.00  0.00    +0.000 A 
ATOM      6  C   UNL     1      -1.681  17.406  19.503  0.00  0.00    +0.000 A 
ATOM      7  C   UNL     1      -0.745  16.525  18.972  0.00  0.00    +0.000 A 
ATOM      8  C   UNL     1      -0.552  15.267  19.507  0.00  0.00    +0.000 A 
ATOM      9  C   UNL     1      -1.351  14.871  20.590  0.00  0.00    +0.000 A 
ATOM     10  C   UNL     1      -1.294  13.444  21.094  0.00  0.00    +0.000 C 
ATOM     11  C   UNL     1      -0.037  17.165  17.834  0.00  0.00    +0.000 C 
ATOM     12  C   UNL     1      -0.907  18.412  17.610  0.00  0.00    +0.000 C 
ATOM     13  N   UNL     1      -1.792  18.615  18.778  0.00  0.00    +0.000 N 
ATOM     14  H   UNL     1      -1.534  19.406  19.364  0.00  0.00    +0.000 HD
ENDROOT
BRANCH  10  15
ATOM     15  C   UNL     1      -1.694  12.466  19.978  0.00  0.00    +0.000 A 
ATOM     16  C   UNL     1      -3.015  12.400  19.527  0.00  0.00    +0.000 A 
ATOM     17  C   UNL     1      -3.386  11.462  18.564  0.00  0.00    +0.000 A 
ATOM     18 BR   UNL     1      -5.228  11.421  18.074  0.00  0.00    +0.000 Br
ATOM     19  C   UNL     1      -2.449  10.568  18.008  0.00  0.00    +0.000 A 
ATOM     20  C   UNL     1      -1.106  10.646  18.434  0.00  0.00    +0.000 A 
ATOM     21  C   UNL     1      -0.746  11.594  19.411  0.00  0.00    +0.000 A 
BRANCH  19  22
ATOM     22  O   UNL     1      -2.983   9.694  17.095  0.00  0.00    +0.000 OA
ATOM     23  C   UNL     1      -2.808   9.918  15.708  0.00  0.00    +0.000 C 
ENDBRANCH  19  22
BRANCH  20  24
ATOM     24  O   UNL     1      -0.203   9.773  17.886  0.00  0.00    +0.000 OA
ATOM     25  C   UNL     1       1.149   9.807  18.321  0.00  0.00    +0.000 C 
ENDBRANCH  20  24
ENDBRANCH  10  15
BRANCH   2  26
ATOM     26  N   UNL     1      -3.726  14.077  23.954  0.00  0.00    +0.000 N 
ATOM     27  H   UNL     1      -3.620  13.173  24.421  0.00  0.00    +0.000 HD
ATOM     28  H   UNL     1      -4.696  14.317  23.771  0.00  0.00    +0.000 HD
ENDBRANCH   2  26
BRANCH   1  29
ATOM     29  C   UNL     1      -1.937  11.914  22.968  0.00  0.00    +0.000 C 
ATOM     30  O   UNL     1      -2.835  11.326  23.566  0.00  0.00    +0.000 OA
BRANCH  29  31
ATOM     31  O   UNL     1      -0.635  11.524  22.951  0.00  0.00    +0.000 OA
BRANCH  31  33
ATOM     32  C   UNL     1       0.588   9.663  22.147  0.00  0.00    +0.000 C 
ATOM     33  C   UNL     1      -0.433  10.122  23.168  0.00  0.00    +0.000 C 
ENDBRANCH  31  33
ENDBRANCH  29  31
ENDBRANCH   1  29
TORSDOF 7
ENDMDL
MODEL 2
REMARK VINA RESULT:      -6.1      1.330      1.421
REMARK  Name = 
REMARK  10 active torsions:
REMARK  status: ('A' for Active; 'I' for Inactive)
REMARK    1  A    between atoms: C_1  and  C_2
REMARK    2  A    between atoms: C_2  and  O_3
REMARK    3  A    between atoms: O_3  and  C_4
REMARK    4  A    between atoms: C_4  and  C_6
REMARK    5  A    between atoms: C_7  and  N_8
REMARK    6  A    between atoms: C_16  and  C_17
REMARK    7  A    between atoms: C_21  and  O_22
REMARK    8  A    between atoms: O_22  and  C_23
REMARK    9  A    between atoms: C_24  and  O_25
REMARK   10  A    between atoms: O_25  and  C_26
REMARK                            x       y       z     vdW  Elec       q    Type
REMARK                         _______ _______ _______ _____ _____    ______ ____
ROOT
ATOM      1  C   UNL     1      -1.039  12.944  22.401  0.00  0.00    +0.000 C 
ATOM      2  C   UNL     1      -1.590  14.063  22.909  0.00  0.00    +0.000 C 
ATOM      3  O   UNL     1      -1.380  15.319  22.338  0.00  0.00    +0.000 OA
ATOM      4  C   UNL     1      -0.488  15.463  21.304  0.00  0.00    +0.000 A 
ATOM      5  C   UNL     1      -0.295  16.760  20.812  0.00  0.00    +0.000 A 
ATOM      6  C   UNL     1       0.535  16.934  19.718  0.00  0.00    +0.000 A 
ATOM      7  C   UNL     1       1.226  15.858  19.172  0.00  0.00    +0.000 A 
ATOM      8  C   UNL     1       1.075  14.577  19.665  0.00  0.00    +0.000 A 
ATOM      9  C   UNL     1       0.173  14.369  20.721  0.00  0.00    +0.000 A 
ATOM     10  C   UNL     1      -0.152  12.961  21.175  0.00  0.00    +0.000 C 
ATOM     11  C   UNL     1       2.103  16.327  18.070  0.00  0.00    +0.000 C 
ATOM     12  C   UNL     1       1.590  17.762  17.875  0.00  0.00    +0.000 C 
ATOM     13  N   UNL     1       0.759  18.151  19.035  0.00  0.00    +0.000 N 
ATOM     14  H   UNL     1       1.197  18.832  19.652  0.00  0.00    +0.000 HD
ENDROOT
BRANCH  10  15
ATOM     15  C   UNL     1      -0.763  12.154  20.019  0.00  0.00    +0.000 A 
ATOM     16  C   UNL     1      -2.107  12.313  19.669  0.00  0.00    +0.000 A 
ATOM     17  C   UNL     1      -2.672  11.526  18.666  0.00  0.00    +0.000 A 
ATOM     18 BR   UNL     1      -4.529  11.785  18.320  0.00  0.00    +0.000 Br
ATOM     19  C   UNL     1      -1.914  10.566  17.968  0.00  0.00    +0.000 A 
ATOM     20  C   UNL     1      -0.548  10.418  18.292  0.00  0.00    +0.000 A 
ATOM     21  C   UNL     1       0.009  11.214  19.310  0.00  0.00    +0.000 A 
BRANCH  19  22
ATOM     22  O   UNL     1      -2.628   9.860  17.032  0.00  0.00    +0.000 OA
ATOM     23  C   UNL     1      -2.632  10.276  15.678  0.00  0.00    +0.000 C 
ENDBRANCH  19  22
BRANCH  20  24
ATOM     24  O   UNL     1       0.181   9.482  17.605  0.00  0.00    +0.000 OA
ATOM     25  C   UNL     1       1.550   9.288  17.936  0.00  0.00    +0.000 C 
ENDBRANCH  20  24
ENDBRANCH  10  15
BRANCH   2  26
ATOM     26  N   UNL     1      -2.410  14.117  24.014  0.00  0.00    +0.000 N 
ATOM     27  H   UNL     1      -2.398  15.029  24.477  0.00  0.00    +0.000 HD
ATOM     28  H   UNL     1      -2.244  13.346  24.655  0.00  0.00    +0.000 HD
ENDBRANCH   2  26
BRANCH   1  29
ATOM     29  C   UNL     1      -1.215  11.595  22.983  0.00  0.00    +0.000 C 
ATOM     30  O   UNL     1      -2.269  11.223  23.495  0.00  0.00    +0.000 OA
BRANCH  29  31
ATOM     31  O   UNL     1      -0.044  10.907  23.036  0.00  0.00    +0.000 OA
BRANCH  31  33
ATOM     32  C   UNL     1      -0.261   8.816  21.947  0.00  0.00    +0.000 C 
ATOM     33  C   UNL     1      -0.191   9.506  23.295  0.00  0.00    +0.000 C 
ENDBRANCH  31  33
ENDBRANCH  29  31
ENDBRANCH   1  29
TORSDOF 7
ENDMDL
MODEL 3
REMARK VINA RESULT:      -5.9      1.291      2.092
REMARK  Name = 
REMARK  10 active torsions:
REMARK  status: ('A' for Active; 'I' for Inactive)
REMARK    1  A    between atoms: C_1  and  C_2
REMARK    2  A    between atoms: C_2  and  O_3
REMARK    3  A    between atoms: O_3  and  C_4
REMARK    4  A    between atoms: C_4  and  C_6
REMARK    5  A    between atoms: C_7  and  N_8
REMARK    6  A    between atoms: C_16  and  C_17
REMARK    7  A    between atoms: C_21  and  O_22
REMARK    8  A    between atoms: O_22  and  C_23
REMARK    9  A    between atoms: C_24  and  O_25
REMARK   10  A    between atoms: O_25  and  C_26
REMARK                            x       y       z     vdW  Elec       q    Type
REMARK                         _______ _______ _______ _____ _____    ______ ____
ROOT
ATOM      1  C   UNL     1      -2.460  13.381  22.412  0.00  0.00    +0.000 C 
ATOM      2  C   UNL     1      -3.328  14.354  22.747  0.00  0.00    +0.000 C 
ATOM      3  O   UNL     1      -3.405  15.555  22.042  0.00  0.00    +0.000 OA
ATOM      4  C   UNL     1      -2.495  15.830  21.051  0.00  0.00    +0.000 A 
ATOM      5  C   UNL     1      -2.607  17.074  20.418  0.00  0.00    +0.000 A 
ATOM      6  C   UNL     1      -1.758  17.355  19.361  0.00  0.00    +0.000 A 
ATOM      7  C   UNL     1      -0.762  16.457  18.991  0.00  0.00    +0.000 A 
ATOM      8  C   UNL     1      -0.615  15.240  19.627  0.00  0.00    +0.000 A 
ATOM      9  C   UNL     1      -1.520  14.903  20.646  0.00  0.00    +0.000 A 
ATOM     10  C   UNL     1      -1.503  13.514  21.248  0.00  0.00    +0.000 C 
ATOM     11  C   UNL     1       0.055  17.032  17.893  0.00  0.00    +0.000 C 
ATOM     12  C   UNL     1      -0.798  18.246  17.496  0.00  0.00    +0.000 C 
ATOM     13  N   UNL     1      -1.802  18.511  18.549  0.00  0.00    +0.000 N 
ATOM     14  H   UNL     1      -1.615  19.344  19.103  0.00  0.00    +0.000 HD
ENDROOT
BRANCH  10  15
ATOM     15  C   UNL     1      -1.774  12.458  20.164  0.00  0.00    +0.000 A 
ATOM     16  C   UNL     1      -0.734  11.677  19.652  0.00  0.00    +0.000 A 
ATOM     17  C   UNL     1      -0.975  10.771  18.620  0.00  0.00    +0.000 A 
ATOM     18 BR   UNL     1       0.532   9.809  17.957  0.00  0.00    +0.000 Br
ATOM     19  C   UNL     1      -2.263  10.602  18.074  0.00  0.00    +0.000 A 
ATOM     20  C   UNL     1      -3.326  11.363  18.604  0.00  0.00    +0.000 A 
ATOM     21  C   UNL     1      -3.069  12.278  19.642  0.00  0.00    +0.000 A 
BRANCH  19  22
ATOM     22  O   UNL     1      -2.321   9.691  17.049  0.00  0.00    +0.000 OA
ATOM     23  C   UNL     1      -2.600  10.122  15.729  0.00  0.00    +0.000 C 
ENDBRANCH  19  22
BRANCH  20  24
ATOM     24  O   UNL     1      -4.575  11.189  18.067  0.00  0.00    +0.000 OA
ATOM     25  C   UNL     1      -5.254  12.307  17.510  0.00  0.00    +0.000 C 
ENDBRANCH  20  24
ENDBRANCH  10  15
BRANCH   2  26
ATOM     26  N   UNL     1      -4.228  14.295  23.789  0.00  0.00    +0.000 N 
ATOM     27  H   UNL     1      -4.003  14.942  24.549  0.00  0.00    +0.000 HD
ATOM     28  H   UNL     1      -4.382  13.344  24.110  0.00  0.00    +0.000 HD
ENDBRANCH   2  26
BRANCH   1  29
ATOM     29  C   UNL     1      -2.325  12.101  23.143  0.00  0.00    +0.000 C 
ATOM     30  O   UNL     1      -3.261  11.575  23.742  0.00  0.00    +0.000 OA
BRANCH  29  31
ATOM     31  O   UNL     1      -1.032  11.688  23.212  0.00  0.00    +0.000 OA
BRANCH  31  33
ATOM     32  C   UNL     1       0.254   9.937  22.272  0.00  0.00    +0.000 C 
ATOM     33  C   UNL     1      -0.865  10.265  23.239  0.00  0.00    +0.000 C 
ENDBRANCH  31  33
ENDBRANCH  29  31
ENDBRANCH   1  29
TORSDOF 7
ENDMDL
MODEL 4
REMARK VINA RESULT:      -5.8      3.180      6.094
REMARK  Name = 
REMARK  10 active torsions:
REMARK  status: ('A' for Active; 'I' for Inactive)
REMARK    1  A    between atoms: C_1  and  C_2
REMARK    2  A    between atoms: C_2  and  O_3
REMARK    3  A    between atoms: O_3  and  C_4
REMARK    4  A    between atoms: C_4  and  C_6
REMARK    5  A    between atoms: C_7  and  N_8
REMARK    6  A    between atoms: C_16  and  C_17
REMARK    7  A    between atoms: C_21  and  O_22
REMARK    8  A    between atoms: O_22  and  C_23
REMARK    9  A    between atoms: C_24  and  O_25
REMARK   10  A    between atoms: O_25  and  C_26
REMARK                            x       y       z     vdW  Elec       q    Type
REMARK                         _______ _______ _______ _____ _____    ______ ____
ROOT
ATOM      1  C   UNL     1      -0.450  11.048  19.739  0.00  0.00    +0.000 C 
ATOM      2  C   UNL     1      -0.488  10.572  18.480  0.00  0.00    +0.000 C 
ATOM      3  O   UNL     1      -1.597  10.746  17.653  0.00  0.00    +0.000 OA
ATOM      4  C   UNL     1      -2.747  11.306  18.155  0.00  0.00    +0.000 A 
ATOM      5  C   UNL     1      -3.835  11.408  17.279  0.00  0.00    +0.000 A 
ATOM      6  C   UNL     1      -4.984  12.037  17.724  0.00  0.00    +0.000 A 
ATOM      7  C   UNL     1      -5.085  12.485  19.037  0.00  0.00    +0.000 A 
ATOM      8  C   UNL     1      -4.035  12.363  19.925  0.00  0.00    +0.000 A 
ATOM      9  C   UNL     1      -2.833  11.801  19.467  0.00  0.00    +0.000 A 
ATOM     10  C   UNL     1      -1.606  11.807  20.353  0.00  0.00    +0.000 C 
ATOM     11  C   UNL     1      -6.440  13.044  19.278  0.00  0.00    +0.000 C 
ATOM     12  C   UNL     1      -6.986  13.121  17.844  0.00  0.00    +0.000 C 
ATOM     13  N   UNL     1      -6.130  12.316  16.945  0.00  0.00    +0.000 N 
ATOM     14  H   UNL     1      -6.561  11.453  16.622  0.00  0.00    +0.000 HD
ENDROOT
BRANCH  10  15
ATOM     15  C   UNL     1      -1.213  13.248  20.714  0.00  0.00    +0.000 A 
ATOM     16  C   UNL     1      -0.966  14.192  19.712  0.00  0.00    +0.000 A 
ATOM     17  C   UNL     1      -0.542  15.478  20.045  0.00  0.00    +0.000 A 
ATOM     18 BR   UNL     1      -0.174  16.660  18.595  0.00  0.00    +0.000 Br
ATOM     19  C   UNL     1      -0.363  15.871  21.387  0.00  0.00    +0.000 A 
ATOM     20  C   UNL     1      -0.638  14.935  22.406  0.00  0.00    +0.000 A 
ATOM     21  C   UNL     1      -1.061  13.639  22.058  0.00  0.00    +0.000 A 
BRANCH  19  22
ATOM     22  O   UNL     1       0.083  17.160  21.538  0.00  0.00    +0.000 OA
ATOM     23  C   UNL     1       1.445  17.411  21.838  0.00  0.00    +0.000 C 
ENDBRANCH  19  22
BRANCH  20  24
ATOM     24  O   UNL     1      -0.462  15.328  23.708  0.00  0.00    +0.000 OA
ATOM     25  C   UNL     1      -1.445  14.985  24.676  0.00  0.00    +0.000 C 
ENDBRANCH  20  24
ENDBRANCH  10  15
BRANCH   2  26
ATOM     26  N   UNL     1       0.529   9.880  17.858  0.00  0.00    +0.000 N 
ATOM     27  H   UNL     1       0.434   8.866  17.944  0.00  0.00    +0.000 HD
ATOM     28  H   UNL     1       1.447  10.217  18.134  0.00  0.00    +0.000 HD
ENDBRANCH   2  26
BRANCH   1  29
ATOM     29  C   UNL     1       0.695  10.869  20.660  0.00  0.00    +0.000 C 
ATOM     30  O   UNL     1       1.480  11.776  20.929  0.00  0.00    +0.000 OA
BRANCH  29  31
ATOM     31  O   UNL     1       0.864   9.568  21.016  0.00  0.00    +0.000 OA
BRANCH  31  33
ATOM     32  C   UNL     1      -0.223   9.621  23.119  0.00  0.00    +0.000 C 
ATOM     33  C   UNL     1       1.094   9.362  22.415  0.00  0.00    +0.000 C 
ENDBRANCH  31  33
ENDBRANCH  29  31
ENDBRANCH   1  29
TORSDOF 7
ENDMDL
MODEL 5
REMARK VINA RESULT:      -5.7      3.255      6.027
REMARK  Name = 
REMARK  10 active torsions:
REMARK  status: ('A' for Active; 'I' for Inactive)
REMARK    1  A    between atoms: C_1  and  C_2
REMARK    2  A    between atoms: C_2  and  O_3
REMARK    3  A    between atoms: O_3  and  C_4
REMARK    4  A    between atoms: C_4  and  C_6
REMARK    5  A    between atoms: C_7  and  N_8
REMARK    6  A    between atoms: C_16  and  C_17
REMARK    7  A    between atoms: C_21  and  O_22
REMARK    8  A    between atoms: O_22  and  C_23
REMARK    9  A    between atoms: C_24  and  O_25
REMARK   10  A    between atoms: O_25  and  C_26
REMARK                            x       y       z     vdW  Elec       q    Type
REMARK                         _______ _______ _______ _____ _____    ______ ____
ROOT
ATOM      1  C   UNL     1      -0.484  11.061  19.759  0.00  0.00    +0.000 C 
ATOM      2  C   UNL     1      -0.483  10.619  18.488  0.00  0.00    +0.000 C 
ATOM      3  O   UNL     1      -1.581  10.787  17.643  0.00  0.00    +0.000 OA
ATOM      4  C   UNL     1      -2.755  11.301  18.136  0.00  0.00    +0.000 A 
ATOM      5  C   UNL     1      -3.827  11.397  17.241  0.00  0.00    +0.000 A 
ATOM      6  C   UNL     1      -5.002  11.983  17.679  0.00  0.00    +0.000 A 
ATOM      7  C   UNL     1      -5.142  12.392  19.002  0.00  0.00    +0.000 A 
ATOM      8  C   UNL     1      -4.107  12.273  19.907  0.00  0.00    +0.000 A 
ATOM      9  C   UNL     1      -2.881  11.757  19.459  0.00  0.00    +0.000 A 
ATOM     10  C   UNL     1      -1.672  11.771  20.370  0.00  0.00    +0.000 C 
ATOM     11  C   UNL     1      -6.516  12.907  19.229  0.00  0.00    +0.000 C 
ATOM     12  C   UNL     1      -7.035  13.009  17.787  0.00  0.00    +0.000 C 
ATOM     13  N   UNL     1      -6.140  12.253  16.884  0.00  0.00    +0.000 N 
ATOM     14  H   UNL     1      -6.540  11.387  16.530  0.00  0.00    +0.000 HD
ENDROOT
BRANCH  10  15
ATOM     15  C   UNL     1      -1.326  13.212  20.778  0.00  0.00    +0.000 A 
ATOM     16  C   UNL     1      -1.398  13.612  22.116  0.00  0.00    +0.000 A 
ATOM     17  C   UNL     1      -1.152  14.939  22.469  0.00  0.00    +0.000 A 
ATOM     18 BR   UNL     1      -1.343  15.383  24.313  0.00  0.00    +0.000 Br
ATOM     19  C   UNL     1      -0.810  15.907  21.504  0.00  0.00    +0.000 A 
ATOM     20  C   UNL     1      -0.705  15.507  20.155  0.00  0.00    +0.000 A 
ATOM     21  C   UNL     1      -0.962  14.167  19.810  0.00  0.00    +0.000 A 
BRANCH  19  22
ATOM     22  O   UNL     1      -0.627  17.167  22.015  0.00  0.00    +0.000 OA
ATOM     23  C   UNL     1       0.681  17.656  22.251  0.00  0.00    +0.000 C 
ENDBRANCH  19  22
BRANCH  20  24
ATOM     24  O   UNL     1      -0.371  16.457  19.224  0.00  0.00    +0.000 OA
ATOM     25  C   UNL     1       0.953  16.490  18.710  0.00  0.00    +0.000 C 
ENDBRANCH  20  24
ENDBRANCH  10  15
BRANCH   2  26
ATOM     26  N   UNL     1       0.565   9.973  17.868  0.00  0.00    +0.000 N 
ATOM     27  H   UNL     1       0.668  10.231  16.884  0.00  0.00    +0.000 HD
ATOM     28  H   UNL     1       0.536   8.968  18.013  0.00  0.00    +0.000 HD
ENDBRANCH   2  26
BRANCH   1  29
ATOM     29  C   UNL     1       0.647  10.888  20.699  0.00  0.00    +0.000 C 
ATOM     30  O   UNL     1       1.409  11.805  21.000  0.00  0.00    +0.000 OA
BRANCH  29  31
ATOM     31  O   UNL     1       0.835   9.584  21.034  0.00  0.00    +0.000 OA
BRANCH  31  33
ATOM     32  C   UNL     1      -0.265   9.598  23.131  0.00  0.00    +0.000 C 
ATOM     33  C   UNL     1       1.058   9.358  22.431  0.00  0.00    +0.000 C 
ENDBRANCH  31  33
ENDBRANCH  29  31
ENDBRANCH   1  29
TORSDOF 7
ENDMDL
MODEL 6
REMARK VINA RESULT:      -5.7      4.182      7.290
REMARK  Name = 
REMARK  10 active torsions:
REMARK  status: ('A' for Active; 'I' for Inactive)
REMARK    1  A    between atoms: C_1  and  C_2
REMARK    2  A    between atoms: C_2  and  O_3
REMARK    3  A    between atoms: O_3  and  C_4
REMARK    4  A    between atoms: C_4  and  C_6
REMARK    5  A    between atoms: C_7  and  N_8
REMARK    6  A    between atoms: C_16  and  C_17
REMARK    7  A    between atoms: C_21  and  O_22
REMARK    8  A    between atoms: O_22  and  C_23
REMARK    9  A    between atoms: C_24  and  O_25
REMARK   10  A    between atoms: O_25  and  C_26
REMARK                            x       y       z     vdW  Elec       q    Type
REMARK                         _______ _______ _______ _____ _____    ______ ____
ROOT
ATOM      1  C   UNL     1      -0.284  13.668  21.271  0.00  0.00    +0.000 C 
ATOM      2  C   UNL     1      -0.579  12.953  22.373  0.00  0.00    +0.000 C 
ATOM      3  O   UNL     1      -0.245  11.604  22.494  0.00  0.00    +0.000 OA
ATOM      4  C   UNL     1       0.288  10.929  21.424  0.00  0.00    +0.000 A 
ATOM      5  C   UNL     1       0.556   9.567  21.606  0.00  0.00    +0.000 A 
ATOM      6  C   UNL     1       1.165   8.871  20.576  0.00  0.00    +0.000 A 
ATOM      7  C   UNL     1       1.431   9.490  19.360  0.00  0.00    +0.000 A 
ATOM      8  C   UNL     1       1.142  10.824  19.150  0.00  0.00    +0.000 A 
ATOM      9  C   UNL     1       0.600  11.566  20.211  0.00  0.00    +0.000 A 
ATOM     10  C   UNL     1       0.431  13.065  20.081  0.00  0.00    +0.000 C 
ATOM     11  C   UNL     1       2.008   8.508  18.407  0.00  0.00    +0.000 C 
ATOM     12  C   UNL     1       2.305   7.329  19.345  0.00  0.00    +0.000 C 
ATOM     13  N   UNL     1       1.598   7.526  20.629  0.00  0.00    +0.000 N 
ATOM     14  H   UNL     1       0.806   6.902  20.768  0.00  0.00    +0.000 HD
ENDROOT
BRANCH  10  15
ATOM     15  C   UNL     1       1.790  13.738  19.833  0.00  0.00    +0.000 A 
ATOM     16  C   UNL     1       2.768  13.761  20.832  0.00  0.00    +0.000 A 
ATOM     17  C   UNL     1       3.972  14.433  20.625  0.00  0.00    +0.000 A 
ATOM     18 BR   UNL     1       5.202  14.453  22.082  0.00  0.00    +0.000 Br
ATOM     19  C   UNL     1       4.248  15.092  19.411  0.00  0.00    +0.000 A 
ATOM     20  C   UNL     1       3.281  15.050  18.385  0.00  0.00    +0.000 A 
ATOM     21  C   UNL     1       2.067  14.372  18.607  0.00  0.00    +0.000 A 
BRANCH  19  22
ATOM     22  O   UNL     1       5.465  15.726  19.382  0.00  0.00    +0.000 OA
ATOM     23  C   UNL     1       5.540  17.130  19.553  0.00  0.00    +0.000 C 
ENDBRANCH  19  22
BRANCH  20  24
ATOM     24  O   UNL     1       3.561  15.692  17.206  0.00  0.00    +0.000 OA
ATOM     25  C   UNL     1       2.935  16.938  16.928  0.00  0.00    +0.000 C 
ENDBRANCH  20  24
ENDBRANCH  10  15
BRANCH   2  26
ATOM     26  N   UNL     1      -1.220  13.441  23.491  0.00  0.00    +0.000 N 
ATOM     27  H   UNL     1      -2.181  13.101  23.581  0.00  0.00    +0.000 HD
ATOM     28  H   UNL     1      -1.148  14.451  23.566  0.00  0.00    +0.000 HD
ENDBRANCH   2  26
BRANCH   1  29
ATOM     29  C   UNL     1      -0.637  15.094  21.087  0.00  0.00    +0.000 C 
ATOM     30  O   UNL     1      -0.609  15.910  22.005  0.00  0.00    +0.000 OA
BRANCH  29  31
ATOM     31  O   UNL     1      -1.151  15.335  19.852  0.00  0.00    +0.000 OA
BRANCH  31  33
ATOM     32  C   UNL     1      -0.561  16.925  18.200  0.00  0.00    +0.000 C 
ATOM     33  C   UNL     1      -1.274  16.724  19.523  0.00  0.00    +0.000 C 
ENDBRANCH  31  33
ENDBRANCH  29  31
ENDBRANCH   1  29
TORSDOF 7
ENDMDL
MODEL 7
REMARK VINA RESULT:      -5.7      3.055      6.165
REMARK  Name = 
REMARK  10 active torsions:
REMARK  status: ('A' for Active; 'I' for Inactive)
REMARK    1  A    between atoms: C_1  and  C_2
REMARK    2  A    between atoms: C_2  and  O_3
REMARK    3  A    between atoms: O_3  and  C_4
REMARK    4  A    between atoms: C_4  and  C_6
REMARK    5  A    between atoms: C_7  and  N_8
REMARK    6  A    between atoms: C_16  and  C_17
REMARK    7  A    between atoms: C_21  and  O_22
REMARK    8  A    between atoms: O_22  and  C_23
REMARK    9  A    between atoms: C_24  and  O_25
REMARK   10  A    between atoms: O_25  and  C_26
REMARK                            x       y       z     vdW  Elec       q    Type
REMARK                         _______ _______ _______ _____ _____    ______ ____
ROOT
ATOM      1  C   UNL     1      -2.124  15.145  20.872  0.00  0.00    +0.000 C 
ATOM      2  C   UNL     1      -1.144  15.154  19.948  0.00  0.00    +0.000 C 
ATOM      3  O   UNL     1      -0.329  14.046  19.720  0.00  0.00    +0.000 OA
ATOM      4  C   UNL     1      -0.424  12.944  20.534  0.00  0.00    +0.000 A 
ATOM      5  C   UNL     1       0.457  11.887  20.272  0.00  0.00    +0.000 A 
ATOM      6  C   UNL     1       0.339  10.729  21.020  0.00  0.00    +0.000 A 
ATOM      7  C   UNL     1      -0.578  10.646  22.062  0.00  0.00    +0.000 A 
ATOM      8  C   UNL     1      -1.433  11.690  22.357  0.00  0.00    +0.000 A 
ATOM      9  C   UNL     1      -1.383  12.842  21.555  0.00  0.00    +0.000 A 
ATOM     10  C   UNL     1      -2.415  13.935  21.733  0.00  0.00    +0.000 C 
ATOM     11  C   UNL     1      -0.446   9.337  22.751  0.00  0.00    +0.000 C 
ATOM     12  C   UNL     1       0.464   8.580  21.771  0.00  0.00    +0.000 C 
ATOM     13  N   UNL     1       1.073   9.536  20.822  0.00  0.00    +0.000 N 
ATOM     14  H   UNL     1       2.066   9.699  20.974  0.00  0.00    +0.000 HD
ENDROOT
BRANCH  10  15
ATOM     15  C   UNL     1      -3.828  13.384  21.480  0.00  0.00    +0.000 A 
ATOM     16  C   UNL     1      -4.789  13.393  22.496  0.00  0.00    +0.000 A 
ATOM     17  C   UNL     1      -6.045  12.827  22.281  0.00  0.00    +0.000 A 
ATOM     18 BR   UNL     1      -7.252  12.838  23.758  0.00  0.00    +0.000 Br
ATOM     19  C   UNL     1      -6.391  12.247  21.044  0.00  0.00    +0.000 A 
ATOM     20  C   UNL     1      -5.439  12.260  20.003  0.00  0.00    +0.000 A 
ATOM     21  C   UNL     1      -4.172  12.830  20.233  0.00  0.00    +0.000 A 
BRANCH  19  22
ATOM     22  O   UNL     1      -7.655  11.713  21.010  0.00  0.00    +0.000 OA
ATOM     23  C   UNL     1      -7.833  10.309  20.957  0.00  0.00    +0.000 C 
ENDBRANCH  19  22
BRANCH  20  24
ATOM     24  O   UNL     1      -5.786  11.695  18.803  0.00  0.00    +0.000 OA
ATOM     25  C   UNL     1      -6.106  12.538  17.705  0.00  0.00    +0.000 C 
ENDBRANCH  20  24
ENDBRANCH  10  15
BRANCH   2  26
ATOM     26  N   UNL     1      -0.831  16.217  19.128  0.00  0.00    +0.000 N 
ATOM     27  H   UNL     1      -0.479  17.028  19.642  0.00  0.00    +0.000 HD
ATOM     28  H   UNL     1      -1.590  16.449  18.494  0.00  0.00    +0.000 HD
ENDBRANCH   2  26
BRANCH   1  29
ATOM     29  C   UNL     1      -2.999  16.302  21.165  0.00  0.00    +0.000 C 
ATOM     30  O   UNL     1      -3.143  16.758  22.298  0.00  0.00    +0.000 OA
BRANCH  29  31
ATOM     31  O   UNL     1      -3.737  16.669  20.085  0.00  0.00    +0.000 OA
BRANCH  31  33
ATOM     32  C   UNL     1      -5.989  15.993  19.804  0.00  0.00    +0.000 C 
ATOM     33  C   UNL     1      -5.082  17.057  20.390  0.00  0.00    +0.000 C 
ENDBRANCH  31  33
ENDBRANCH  29  31
ENDBRANCH   1  29
TORSDOF 7
ENDMDL
MODEL 8
REMARK VINA RESULT:      -5.7      4.264      7.254
REMARK  Name = 
REMARK  10 active torsions:
REMARK  status: ('A' for Active; 'I' for Inactive)
REMARK    1  A    between atoms: C_1  and  C_2
REMARK    2  A    between atoms: C_2  and  O_3
REMARK    3  A    between atoms: O_3  and  C_4
REMARK    4  A    between atoms: C_4  and  C_6
REMARK    5  A    between atoms: C_7  and  N_8
REMARK    6  A    between atoms: C_16  and  C_17
REMARK    7  A    between atoms: C_21  and  O_22
REMARK    8  A    between atoms: O_22  and  C_23
REMARK    9  A    between atoms: C_24  and  O_25
REMARK   10  A    between atoms: O_25  and  C_26
REMARK                            x       y       z     vdW  Elec       q    Type
REMARK                         _______ _______ _______ _____ _____    ______ ____
ROOT
ATOM      1  C   UNL     1      -0.439  12.782  21.079  0.00  0.00    +0.000 C 
ATOM      2  C   UNL     1      -0.669  11.954  22.116  0.00  0.00    +0.000 C 
ATOM      3  O   UNL     1      -0.180  10.648  22.146  0.00  0.00    +0.000 OA
ATOM      4  C   UNL     1       0.449  10.125  21.043  0.00  0.00    +0.000 A 
ATOM      5  C   UNL     1       0.873   8.793  21.131  0.00  0.00    +0.000 A 
ATOM      6  C   UNL     1       1.581   8.254  20.070  0.00  0.00    +0.000 A 
ATOM      7  C   UNL     1       1.795   8.993  18.911  0.00  0.00    +0.000 A 
ATOM      8  C   UNL     1       1.355  10.297  18.794  0.00  0.00    +0.000 A 
ATOM      9  C   UNL     1       0.708  10.886  19.891  0.00  0.00    +0.000 A 
ATOM     10  C   UNL     1       0.366  12.361  19.869  0.00  0.00    +0.000 C 
ATOM     11  C   UNL     1       2.503   8.162  17.905  0.00  0.00    +0.000 C 
ATOM     12  C   UNL     1       2.919   6.955  18.760  0.00  0.00    +0.000 C 
ATOM     13  N   UNL     1       2.168   6.969  20.034  0.00  0.00    +0.000 N 
ATOM     14  H   UNL     1       1.453   6.248  20.104  0.00  0.00    +0.000 HD
ENDROOT
BRANCH  10  15
ATOM     15  C   UNL     1       1.641  13.204  19.711  0.00  0.00    +0.000 A 
ATOM     16  C   UNL     1       2.566  13.301  20.755  0.00  0.00    +0.000 A 
ATOM     17  C   UNL     1       3.685  14.124  20.631  0.00  0.00    +0.000 A 
ATOM     18 BR   UNL     1       4.842  14.228  22.143  0.00  0.00    +0.000 Br
ATOM     19  C   UNL     1       3.928  14.864  19.457  0.00  0.00    +0.000 A 
ATOM     20  C   UNL     1       3.017  14.750  18.386  0.00  0.00    +0.000 A 
ATOM     21  C   UNL     1       1.889  13.921  18.525  0.00  0.00    +0.000 A 
BRANCH  19  22
ATOM     22  O   UNL     1       5.058  15.642  19.510  0.00  0.00    +0.000 OA
ATOM     23  C   UNL     1       6.231  15.241  18.826  0.00  0.00    +0.000 C 
ENDBRANCH  19  22
BRANCH  20  24
ATOM     24  O   UNL     1       3.264  15.474  17.248  0.00  0.00    +0.000 OA
ATOM     25  C   UNL     1       2.878  16.841  17.196  0.00  0.00    +0.000 C 
ENDBRANCH  20  24
ENDBRANCH  10  15
BRANCH   2  26
ATOM     26  N   UNL     1      -1.385  12.276  23.249  0.00  0.00    +0.000 N 
ATOM     27  H   UNL     1      -2.118  12.968  23.076  0.00  0.00    +0.000 HD
ATOM     28  H   UNL     1      -0.781  12.525  24.027  0.00  0.00    +0.000 HD
ENDBRANCH   2  26
BRANCH   1  29
ATOM     29  C   UNL     1      -0.953  14.167  20.992  0.00  0.00    +0.000 C 
ATOM     30  O   UNL     1      -1.624  14.570  20.043  0.00  0.00    +0.000 OA
BRANCH  29  31
ATOM     31  O   UNL     1      -0.453  14.959  21.977  0.00  0.00    +0.000 OA
BRANCH  31  33
ATOM     32  C   UNL     1       0.963  16.686  21.192  0.00  0.00    +0.000 C 
ATOM     33  C   UNL     1      -0.439  16.357  21.664  0.00  0.00    +0.000 C 
ENDBRANCH  31  33
ENDBRANCH  29  31
ENDBRANCH   1  29
TORSDOF 7
ENDMDL
MODEL 9
REMARK VINA RESULT:      -5.7      3.240      6.282
REMARK  Name = 
REMARK  10 active torsions:
REMARK  status: ('A' for Active; 'I' for Inactive)
REMARK    1  A    between atoms: C_1  and  C_2
REMARK    2  A    between atoms: C_2  and  O_3
REMARK    3  A    between atoms: O_3  and  C_4
REMARK    4  A    between atoms: C_4  and  C_6
REMARK    5  A    between atoms: C_7  and  N_8
REMARK    6  A    between atoms: C_16  and  C_17
REMARK    7  A    between atoms: C_21  and  O_22
REMARK    8  A    between atoms: O_22  and  C_23
REMARK    9  A    between atoms: C_24  and  O_25
REMARK   10  A    between atoms: O_25  and  C_26
REMARK                            x       y       z     vdW  Elec       q    Type
REMARK                         _______ _______ _______ _____ _____    ______ ____
ROOT
ATOM      1  C   UNL     1      -0.543  11.505  19.801  0.00  0.00    +0.000 C 
ATOM      2  C   UNL     1      -0.570  10.953  18.574  0.00  0.00    +0.000 C 
ATOM      3  O   UNL     1      -1.712  10.980  17.773  0.00  0.00    +0.000 OA
ATOM      4  C   UNL     1      -2.893  11.467  18.276  0.00  0.00    +0.000 A 
ATOM      5  C   UNL     1      -4.007  11.421  17.429  0.00  0.00    +0.000 A 
ATOM      6  C   UNL     1      -5.197  11.973  17.873  0.00  0.00    +0.000 A 
ATOM      7  C   UNL     1      -5.304  12.489  19.160  0.00  0.00    +0.000 A 
ATOM      8  C   UNL     1      -4.225  12.512  20.021  0.00  0.00    +0.000 A 
ATOM      9  C   UNL     1      -2.990  12.031  19.559  0.00  0.00    +0.000 A 
ATOM     10  C   UNL     1      -1.746  12.196  20.406  0.00  0.00    +0.000 C 
ATOM     11  C   UNL     1      -6.696  12.941  19.409  0.00  0.00    +0.000 C 
ATOM     12  C   UNL     1      -7.283  12.884  17.991  0.00  0.00    +0.000 C 
ATOM     13  N   UNL     1      -6.382  12.105  17.114  0.00  0.00    +0.000 N 
ATOM     14  H   UNL     1      -6.743  11.189  16.855  0.00  0.00    +0.000 HD
ENDROOT
BRANCH  10  15
ATOM     15  C   UNL     1      -1.473  13.686  20.671  0.00  0.00    +0.000 A 
ATOM     16  C   UNL     1      -1.193  14.558  19.615  0.00  0.00    +0.000 A 
ATOM     17  C   UNL     1      -0.877  15.893  19.869  0.00  0.00    +0.000 A 
ATOM     18 BR   UNL     1      -0.450  16.973  18.357  0.00  0.00    +0.000 Br
ATOM     19  C   UNL     1      -0.845  16.406  21.181  0.00  0.00    +0.000 A 
ATOM     20  C   UNL     1      -1.155  15.540  22.252  0.00  0.00    +0.000 A 
ATOM     21  C   UNL     1      -1.467  14.195  21.983  0.00  0.00    +0.000 A 
BRANCH  19  22
ATOM     22  O   UNL     1      -0.491  17.729  21.256  0.00  0.00    +0.000 OA
ATOM     23  C   UNL     1       0.819  18.095  21.654  0.00  0.00    +0.000 C 
ENDBRANCH  19  22
BRANCH  20  24
ATOM     24  O   UNL     1      -1.122  16.050  23.524  0.00  0.00    +0.000 OA
ATOM     25  C   UNL     1      -1.574  15.247  24.606  0.00  0.00    +0.000 C 
ENDBRANCH  20  24
ENDBRANCH  10  15
BRANCH   2  26
ATOM     26  N   UNL     1       0.488  10.317  17.962  0.00  0.00    +0.000 N 
ATOM     27  H   UNL     1       0.493   9.306  18.121  0.00  0.00    +0.000 HD
ATOM     28  H   UNL     1       1.378  10.756  18.179  0.00  0.00    +0.000 HD
ENDBRANCH   2  26
BRANCH   1  29
ATOM     29  C   UNL     1       0.636  11.483  20.696  0.00  0.00    +0.000 C 
ATOM     30  O   UNL     1       0.562  11.188  21.888  0.00  0.00    +0.000 OA
BRANCH  29  31
ATOM     31  O   UNL     1       1.743  11.988  20.092  0.00  0.00    +0.000 OA
BRANCH  31  33
ATOM     32  C   UNL     1       2.457  14.139  19.408  0.00  0.00    +0.000 C 
ATOM     33  C   UNL     1       2.173  13.254  20.605  0.00  0.00    +0.000 C 
ENDBRANCH  31  33
ENDBRANCH  29  31
ENDBRANCH   1  29
TORSDOF 7
ENDMDL
