MODEL 1
REMARK VINA RESULT:      -9.1      0.000      0.000
REMARK  Name = 
REMARK  7 active torsions:
REMARK  status: ('A' for Active; 'I' for Inactive)
REMARK    1  A    between atoms: C_2  and  C_3
REMARK    2  A    between atoms: C_3  and  C_4
REMARK    3  A    between atoms: C_4  and  N_5
REMARK    4  A    between atoms: N_5  and  C_6
REMARK    5  A    between atoms: C_6  and  C_7
REMARK    6  A    between atoms: N_13  and  C_14
REMARK    7  A    between atoms: C_18  and  C_19
REMARK                            x       y       z     vdW  Elec       q    Type
REMARK                         _______ _______ _______ _____ _____    ______ ____
ROOT
ATOM      1  C   UNL     1       4.381   5.581  17.716  0.00  0.00    +0.000 A 
ATOM      2  S   UNL     1       4.555   4.007  17.082  0.00  0.00    +0.000 S 
ATOM      3  C   UNL     1       3.251   3.432  18.003  0.00  0.00    +0.000 A 
ATOM      4  C   UNL     1       2.615   4.439  18.711  0.00  0.00    +0.000 A 
ATOM      5  C   UNL     1       3.235   5.723  18.484  0.00  0.00    +0.000 A 
ATOM      6  C   UNL     1       1.372   4.118  19.499  0.00  0.00    +0.000 C 
ATOM      7  C   UNL     1       1.219   2.591  19.705  0.00  0.00    +0.000 C 
ATOM      8  N   UNL     1       1.459   1.814  18.471  0.00  0.00    +0.000 NA
ATOM      9  C   UNL     1       2.852   1.985  18.015  0.00  0.00    +0.000 C 
ATOM     10  H   UNL     1       0.843   2.173  17.742  0.00  0.00    +0.000 HD
ENDROOT
BRANCH   5  11
ATOM     11  C   UNL     1       2.620   7.044  18.917  0.00  0.00    +0.000 A 
ATOM     12  N   UNL     1       2.184   7.225  20.149  0.00  0.00    +0.000 NA
ATOM     13  C   UNL     1       1.491   8.425  20.254  0.00  0.00    +0.000 A 
ATOM     14  C   UNL     1       0.866   8.946  21.396  0.00  0.00    +0.000 A 
ATOM     15  N   UNL     1       0.169  10.112  21.343  0.00  0.00    +0.000 NA
ATOM     16  C   UNL     1       0.094  10.774  20.170  0.00  0.00    +0.000 A 
ATOM     17  C   UNL     1       0.693  10.359  18.995  0.00  0.00    +0.000 A 
ATOM     18  C   UNL     1       1.399   9.156  19.072  0.00  0.00    +0.000 A 
ATOM     19  S   UNL     1       2.247   8.329  17.836  0.00  0.00    +0.000 S 
ENDBRANCH   5  11
BRANCH   1  22
ATOM     20  O   UNL     1       6.916   5.794  18.929  0.00  0.00    +0.000 OA
ATOM     21  C   UNL     1       6.609   6.481  17.959  0.00  0.00    +0.000 C 
ATOM     22  N   UNL     1       5.387   6.430  17.291  0.00  0.00    +0.000 N 
ATOM     23  H   UNL     1       5.434   6.568  16.288  0.00  0.00    +0.000 HD
BRANCH  21  24
ATOM     24  C   UNL     1       7.531   7.549  17.380  0.00  0.00    +0.000 C 
BRANCH  24  25
ATOM     25  C   UNL     1       8.353   8.289  18.437  0.00  0.00    +0.000 C 
BRANCH  25  26
ATOM     26  N   UNL     1       8.481   9.715  18.065  0.00  0.00    +0.000 NA
ATOM     27  H   UNL     1       7.553  10.138  18.096  0.00  0.00    +0.000 HD
BRANCH  26  28
ATOM     28  C   UNL     1       9.323  10.441  19.035  0.00  0.00    +0.000 C 
BRANCH  28  29
ATOM     29  C   UNL     1       9.877  11.728  18.448  0.00  0.00    +0.000 C 
ATOM     30  C   UNL     1      10.255  13.007  19.284  0.00  0.00    +0.000 C 
ATOM     31  C   UNL     1      10.126  13.661  17.877  0.00  0.00    +0.000 C 
ATOM     32  C   UNL     1      11.206  12.973  17.070  0.00  0.00    +0.000 C 
ATOM     33  N   UNL     1      11.025  11.580  17.504  0.00  0.00    +0.000 NA
ATOM     34  C   UNL     1       8.910  12.714  17.692  0.00  0.00    +0.000 C 
ATOM     35  H   UNL     1      11.879  11.269  17.965  0.00  0.00    +0.000 HD
ENDBRANCH  28  29
ENDBRANCH  26  28
ENDBRANCH  25  26
ENDBRANCH  24  25
ENDBRANCH  21  24
ENDBRANCH   1  22
TORSDOF 7
ENDMDL
MODEL 2
REMARK VINA RESULT:      -9.0      0.758      1.048
REMARK  Name = 
REMARK  7 active torsions:
REMARK  status: ('A' for Active; 'I' for Inactive)
REMARK    1  A    between atoms: C_2  and  C_3
REMARK    2  A    between atoms: C_3  and  C_4
REMARK    3  A    between atoms: C_4  and  N_5
REMARK    4  A    between atoms: N_5  and  C_6
REMARK    5  A    between atoms: C_6  and  C_7
REMARK    6  A    between atoms: N_13  and  C_14
REMARK    7  A    between atoms: C_18  and  C_19
REMARK                            x       y       z     vdW  Elec       q    Type
REMARK                         _______ _______ _______ _____ _____    ______ ____
ROOT
ATOM      1  C   UNL     1       4.472   5.719  17.707  0.00  0.00    +0.000 A 
ATOM      2  S   UNL     1       4.705   4.176  17.020  0.00  0.00    +0.000 S 
ATOM      3  C   UNL     1       3.401   3.530  17.892  0.00  0.00    +0.000 A 
ATOM      4  C   UNL     1       2.722   4.491  18.624  0.00  0.00    +0.000 A 
ATOM      5  C   UNL     1       3.309   5.800  18.458  0.00  0.00    +0.000 A 
ATOM      6  C   UNL     1       1.475   4.105  19.375  0.00  0.00    +0.000 C 
ATOM      7  C   UNL     1       1.364   2.568  19.521  0.00  0.00    +0.000 C 
ATOM      8  N   UNL     1       1.649   1.845  18.265  0.00  0.00    +0.000 NA
ATOM      9  C   UNL     1       3.045   2.073  17.843  0.00  0.00    +0.000 C 
ATOM     10  H   UNL     1       1.037   2.213  17.537  0.00  0.00    +0.000 HD
ENDROOT
BRANCH   5  11
ATOM     11  C   UNL     1       2.647   7.085  18.926  0.00  0.00    +0.000 A 
ATOM     12  N   UNL     1       2.208   7.218  20.164  0.00  0.00    +0.000 NA
ATOM     13  C   UNL     1       1.471   8.389  20.302  0.00  0.00    +0.000 A 
ATOM     14  C   UNL     1       0.830   8.855  21.458  0.00  0.00    +0.000 A 
ATOM     15  N   UNL     1       0.091   9.996  21.437  0.00  0.00    +0.000 NA
ATOM     16  C   UNL     1      -0.010  10.686  20.282  0.00  0.00    +0.000 A 
ATOM     17  C   UNL     1       0.601  10.325  19.096  0.00  0.00    +0.000 A 
ATOM     18  C   UNL     1       1.350   9.147  19.140  0.00  0.00    +0.000 A 
ATOM     19  S   UNL     1       2.226   8.385  17.881  0.00  0.00    +0.000 S 
ENDBRANCH   5  11
BRANCH   1  22
ATOM     20  O   UNL     1       7.042   5.839  18.861  0.00  0.00    +0.000 OA
ATOM     21  C   UNL     1       6.702   6.611  17.968  0.00  0.00    +0.000 C 
ATOM     22  N   UNL     1       5.462   6.613  17.334  0.00  0.00    +0.000 N 
ATOM     23  H   UNL     1       5.477   6.844  16.348  0.00  0.00    +0.000 HD
BRANCH  21  24
ATOM     24  C   UNL     1       7.601   7.735  17.465  0.00  0.00    +0.000 C 
BRANCH  24  25
ATOM     25  C   UNL     1       8.498   8.337  18.549  0.00  0.00    +0.000 C 
BRANCH  25  26
ATOM     26  N   UNL     1       8.746   9.766  18.259  0.00  0.00    +0.000 NA
ATOM     27  H   UNL     1       7.853  10.207  18.035  0.00  0.00    +0.000 HD
BRANCH  26  28
ATOM     28  C   UNL     1       9.290  10.459  19.442  0.00  0.00    +0.000 C 
BRANCH  28  29
ATOM     29  C   UNL     1      10.189  11.619  19.052  0.00  0.00    +0.000 C 
ATOM     30  C   UNL     1      10.771  11.861  17.609  0.00  0.00    +0.000 C 
ATOM     31  C   UNL     1      11.761  12.743  18.425  0.00  0.00    +0.000 C 
ATOM     32  C   UNL     1      10.867  13.801  19.037  0.00  0.00    +0.000 C 
ATOM     33  N   UNL     1       9.729  12.977  19.471  0.00  0.00    +0.000 NA
ATOM     34  C   UNL     1      11.705  11.603  19.478  0.00  0.00    +0.000 C 
ATOM     35  H   UNL     1       8.895  13.284  18.971  0.00  0.00    +0.000 HD
ENDBRANCH  28  29
ENDBRANCH  26  28
ENDBRANCH  25  26
ENDBRANCH  24  25
ENDBRANCH  21  24
ENDBRANCH   1  22
TORSDOF 7
ENDMDL
MODEL 3
REMARK VINA RESULT:      -9.0      1.050      1.239
REMARK  Name = 
REMARK  7 active torsions:
REMARK  status: ('A' for Active; 'I' for Inactive)
REMARK    1  A    between atoms: C_2  and  C_3
REMARK    2  A    between atoms: C_3  and  C_4
REMARK    3  A    between atoms: C_4  and  N_5
REMARK    4  A    between atoms: N_5  and  C_6
REMARK    5  A    between atoms: C_6  and  C_7
REMARK    6  A    between atoms: N_13  and  C_14
REMARK    7  A    between atoms: C_18  and  C_19
REMARK                            x       y       z     vdW  Elec       q    Type
REMARK                         _______ _______ _______ _____ _____    ______ ____
ROOT
ATOM      1  C   UNL     1       4.734   5.423  18.332  0.00  0.00    +0.000 A 
ATOM      2  S   UNL     1       5.022   3.860  17.716  0.00  0.00    +0.000 S 
ATOM      3  C   UNL     1       3.477   3.332  18.178  0.00  0.00    +0.000 A 
ATOM      4  C   UNL     1       2.702   4.353  18.704  0.00  0.00    +0.000 A 
ATOM      5  C   UNL     1       3.417   5.608  18.727  0.00  0.00    +0.000 A 
ATOM      6  C   UNL     1       1.267   4.079  19.069  0.00  0.00    +0.000 C 
ATOM      7  C   UNL     1       0.992   2.558  19.156  0.00  0.00    +0.000 C 
ATOM      8  N   UNL     1       1.558   1.802  18.020  0.00  0.00    +0.000 NA
ATOM      9  C   UNL     1       3.030   1.909  18.010  0.00  0.00    +0.000 C 
ATOM     10  H   UNL     1       1.208   2.213  17.155  0.00  0.00    +0.000 HD
ENDROOT
BRANCH   5  11
ATOM     11  C   UNL     1       2.758   6.948  19.010  0.00  0.00    +0.000 A 
ATOM     12  N   UNL     1       2.181   7.196  20.170  0.00  0.00    +0.000 NA
ATOM     13  C   UNL     1       1.483   8.397  20.125  0.00  0.00    +0.000 A 
ATOM     14  C   UNL     1       0.729   8.978  21.155  0.00  0.00    +0.000 A 
ATOM     15  N   UNL     1       0.046  10.136  20.954  0.00  0.00    +0.000 NA
ATOM     16  C   UNL     1       0.112  10.732  19.745  0.00  0.00    +0.000 A 
ATOM     17  C   UNL     1       0.844  10.254  18.675  0.00  0.00    +0.000 A 
ATOM     18  C   UNL     1       1.533   9.061  18.902  0.00  0.00    +0.000 A 
ATOM     19  S   UNL     1       2.519   8.169  17.822  0.00  0.00    +0.000 S 
ENDBRANCH   5  11
BRANCH   1  22
ATOM     20  O   UNL     1       5.542   6.861  16.045  0.00  0.00    +0.000 OA
ATOM     21  C   UNL     1       6.191   6.894  17.087  0.00  0.00    +0.000 C 
ATOM     22  N   UNL     1       5.858   6.228  18.265  0.00  0.00    +0.000 N 
ATOM     23  H   UNL     1       6.081   6.721  19.121  0.00  0.00    +0.000 HD
BRANCH  21  24
ATOM     24  C   UNL     1       7.513   7.643  17.210  0.00  0.00    +0.000 C 
BRANCH  24  25
ATOM     25  C   UNL     1       8.202   7.456  18.564  0.00  0.00    +0.000 C 
BRANCH  25  26
ATOM     26  N   UNL     1       8.866   8.715  18.966  0.00  0.00    +0.000 NA
ATOM     27  H   UNL     1       9.873   8.598  18.847  0.00  0.00    +0.000 HD
BRANCH  26  28
ATOM     28  C   UNL     1       8.452   9.832  18.096  0.00  0.00    +0.000 C 
BRANCH  28  29
ATOM     29  C   UNL     1       9.221  11.105  18.408  0.00  0.00    +0.000 C 
ATOM     30  C   UNL     1      10.776  11.281  18.241  0.00  0.00    +0.000 C 
ATOM     31  C   UNL     1      10.498  12.463  19.214  0.00  0.00    +0.000 C 
ATOM     32  C   UNL     1       9.574  13.362  18.420  0.00  0.00    +0.000 C 
ATOM     33  N   UNL     1       8.666  12.366  17.831  0.00  0.00    +0.000 NA
ATOM     34  C   UNL     1       9.508  11.489  19.908  0.00  0.00    +0.000 C 
ATOM     35  H   UNL     1       8.751  12.408  16.816  0.00  0.00    +0.000 HD
ENDBRANCH  28  29
ENDBRANCH  26  28
ENDBRANCH  25  26
ENDBRANCH  24  25
ENDBRANCH  21  24
ENDBRANCH   1  22
TORSDOF 7
ENDMDL
MODEL 4
REMARK VINA RESULT:      -8.9      0.923      1.194
REMARK  Name = 
REMARK  7 active torsions:
REMARK  status: ('A' for Active; 'I' for Inactive)
REMARK    1  A    between atoms: C_2  and  C_3
REMARK    2  A    between atoms: C_3  and  C_4
REMARK    3  A    between atoms: C_4  and  N_5
REMARK    4  A    between atoms: N_5  and  C_6
REMARK    5  A    between atoms: C_6  and  C_7
REMARK    6  A    between atoms: N_13  and  C_14
REMARK    7  A    between atoms: C_18  and  C_19
REMARK                            x       y       z     vdW  Elec       q    Type
REMARK                         _______ _______ _______ _____ _____    ______ ____
ROOT
ATOM      1  C   UNL     1       4.751   5.453  18.104  0.00  0.00    +0.000 A 
ATOM      2  S   UNL     1       5.020   3.899  17.456  0.00  0.00    +0.000 S 
ATOM      3  C   UNL     1       3.510   3.349  18.003  0.00  0.00    +0.000 A 
ATOM      4  C   UNL     1       2.757   4.356  18.584  0.00  0.00    +0.000 A 
ATOM      5  C   UNL     1       3.459   5.619  18.578  0.00  0.00    +0.000 A 
ATOM      6  C   UNL     1       1.349   4.062  19.031  0.00  0.00    +0.000 C 
ATOM      7  C   UNL     1       1.097   2.538  19.119  0.00  0.00    +0.000 C 
ATOM      8  N   UNL     1       1.602   1.799  17.943  0.00  0.00    +0.000 NA
ATOM      9  C   UNL     1       3.070   1.923  17.847  0.00  0.00    +0.000 C 
ATOM     10  H   UNL     1       1.197   2.214  17.105  0.00  0.00    +0.000 HD
ENDROOT
BRANCH   5  11
ATOM     11  C   UNL     1       2.803   6.948  18.913  0.00  0.00    +0.000 A 
ATOM     12  N   UNL     1       2.257   7.164  20.094  0.00  0.00    +0.000 NA
ATOM     13  C   UNL     1       1.554   8.363  20.099  0.00  0.00    +0.000 A 
ATOM     14  C   UNL     1       0.826   8.915  21.164  0.00  0.00    +0.000 A 
ATOM     15  N   UNL     1       0.134  10.074  21.012  0.00  0.00    +0.000 NA
ATOM     16  C   UNL     1       0.165  10.701  19.817  0.00  0.00    +0.000 A 
ATOM     17  C   UNL     1       0.870  10.254  18.715  0.00  0.00    +0.000 A 
ATOM     18  C   UNL     1       1.568   9.058  18.893  0.00  0.00    +0.000 A 
ATOM     19  S   UNL     1       2.528   8.199  17.764  0.00  0.00    +0.000 S 
ENDBRANCH   5  11
BRANCH   1  22
ATOM     20  O   UNL     1       7.144   5.145  19.564  0.00  0.00    +0.000 OA
ATOM     21  C   UNL     1       7.000   6.054  18.751  0.00  0.00    +0.000 C 
ATOM     22  N   UNL     1       5.861   6.271  17.979  0.00  0.00    +0.000 N 
ATOM     23  H   UNL     1       6.030   6.619  17.042  0.00  0.00    +0.000 HD
BRANCH  21  24
ATOM     24  C   UNL     1       8.059   7.126  18.518  0.00  0.00    +0.000 C 
BRANCH  24  25
ATOM     25  C   UNL     1       7.663   8.162  17.464  0.00  0.00    +0.000 C 
BRANCH  25  26
ATOM     26  N   UNL     1       7.957   9.523  17.964  0.00  0.00    +0.000 NA
ATOM     27  H   UNL     1       7.148   9.852  18.492  0.00  0.00    +0.000 HD
BRANCH  26  28
ATOM     28  C   UNL     1       9.106   9.510  18.889  0.00  0.00    +0.000 C 
BRANCH  28  29
ATOM     29  C   UNL     1       9.568  10.915  19.234  0.00  0.00    +0.000 C 
ATOM     30  C   UNL     1      11.072  11.354  19.390  0.00  0.00    +0.000 C 
ATOM     31  C   UNL     1      10.393  12.523  20.161  0.00  0.00    +0.000 C 
ATOM     32  C   UNL     1       9.543  13.195  19.103  0.00  0.00    +0.000 C 
ATOM     33  N   UNL     1       8.966  12.021  18.431  0.00  0.00    +0.000 NA
ATOM     34  C   UNL     1       9.440  11.431  20.716  0.00  0.00    +0.000 C 
ATOM     35  H   UNL     1       9.274  12.018  17.459  0.00  0.00    +0.000 HD
ENDBRANCH  28  29
ENDBRANCH  26  28
ENDBRANCH  25  26
ENDBRANCH  24  25
ENDBRANCH  21  24
ENDBRANCH   1  22
TORSDOF 7
ENDMDL
MODEL 5
REMARK VINA RESULT:      -8.8      1.209      1.549
REMARK  Name = 
REMARK  7 active torsions:
REMARK  status: ('A' for Active; 'I' for Inactive)
REMARK    1  A    between atoms: C_2  and  C_3
REMARK    2  A    between atoms: C_3  and  C_4
REMARK    3  A    between atoms: C_4  and  N_5
REMARK    4  A    between atoms: N_5  and  C_6
REMARK    5  A    between atoms: C_6  and  C_7
REMARK    6  A    between atoms: N_13  and  C_14
REMARK    7  A    between atoms: C_18  and  C_19
REMARK                            x       y       z     vdW  Elec       q    Type
REMARK                         _______ _______ _______ _____ _____    ______ ____
ROOT
ATOM      1  C   UNL     1       4.902   5.319  18.431  0.00  0.00    +0.000 A 
ATOM      2  S   UNL     1       5.209   3.750  17.838  0.00  0.00    +0.000 S 
ATOM      3  C   UNL     1       3.620   3.254  18.169  0.00  0.00    +0.000 A 
ATOM      4  C   UNL     1       2.824   4.292  18.629  0.00  0.00    +0.000 A 
ATOM      5  C   UNL     1       3.561   5.531  18.714  0.00  0.00    +0.000 A 
ATOM      6  C   UNL     1       1.358   4.048  18.872  0.00  0.00    +0.000 C 
ATOM      7  C   UNL     1       1.046   2.533  18.934  0.00  0.00    +0.000 C 
ATOM      8  N   UNL     1       1.689   1.765  17.848  0.00  0.00    +0.000 NA
ATOM      9  C   UNL     1       3.159   1.841  17.961  0.00  0.00    +0.000 C 
ATOM     10  H   UNL     1       1.421   2.183  16.957  0.00  0.00    +0.000 HD
ENDROOT
BRANCH   5  11
ATOM     11  C   UNL     1       2.909   6.884  18.942  0.00  0.00    +0.000 A 
ATOM     12  N   UNL     1       2.305   7.171  20.080  0.00  0.00    +0.000 NA
ATOM     13  C   UNL     1       1.621   8.377  19.984  0.00  0.00    +0.000 A 
ATOM     14  C   UNL     1       0.847   8.994  20.978  0.00  0.00    +0.000 A 
ATOM     15  N   UNL     1       0.181  10.151  20.727  0.00  0.00    +0.000 NA
ATOM     16  C   UNL     1       0.283  10.712  19.504  0.00  0.00    +0.000 A 
ATOM     17  C   UNL     1       1.037  10.198  18.466  0.00  0.00    +0.000 A 
ATOM     18  C   UNL     1       1.708   9.005  18.744  0.00  0.00    +0.000 A 
ATOM     19  S   UNL     1       2.712   8.074  17.715  0.00  0.00    +0.000 S 
ENDBRANCH   5  11
BRANCH   1  22
ATOM     20  O   UNL     1       5.894   6.789  16.238  0.00  0.00    +0.000 OA
ATOM     21  C   UNL     1       6.470   6.784  17.322  0.00  0.00    +0.000 C 
ATOM     22  N   UNL     1       6.045   6.100  18.459  0.00  0.00    +0.000 N 
ATOM     23  H   UNL     1       6.219   6.569  19.340  0.00  0.00    +0.000 HD
BRANCH  21  24
ATOM     24  C   UNL     1       7.796   7.501  17.553  0.00  0.00    +0.000 C 
BRANCH  24  25
ATOM     25  C   UNL     1       7.656   9.016  17.716  0.00  0.00    +0.000 C 
BRANCH  25  26
ATOM     26  N   UNL     1       8.613   9.501  18.734  0.00  0.00    +0.000 NA
ATOM     27  H   UNL     1       9.267   8.747  18.945  0.00  0.00    +0.000 HD
BRANCH  26  28
ATOM     28  C   UNL     1       9.406  10.633  18.217  0.00  0.00    +0.000 C 
BRANCH  28  29
ATOM     29  C   UNL     1       9.797  11.599  19.322  0.00  0.00    +0.000 C 
ATOM     30  C   UNL     1       9.775  13.168  19.194  0.00  0.00    +0.000 C 
ATOM     31  C   UNL     1      10.728  13.034  20.418  0.00  0.00    +0.000 C 
ATOM     32  C   UNL     1       9.859  12.376  21.469  0.00  0.00    +0.000 C 
ATOM     33  N   UNL     1       9.181  11.352  20.660  0.00  0.00    +0.000 NA
ATOM     34  C   UNL     1      11.320  11.816  19.659  0.00  0.00    +0.000 C 
ATOM     35  H   UNL     1       8.178  11.537  20.674  0.00  0.00    +0.000 HD
ENDBRANCH  28  29
ENDBRANCH  26  28
ENDBRANCH  25  26
ENDBRANCH  24  25
ENDBRANCH  21  24
ENDBRANCH   1  22
TORSDOF 7
ENDMDL
MODEL 6
REMARK VINA RESULT:      -8.7      1.231      1.615
REMARK  Name = 
REMARK  7 active torsions:
REMARK  status: ('A' for Active; 'I' for Inactive)
REMARK    1  A    between atoms: C_2  and  C_3
REMARK    2  A    between atoms: C_3  and  C_4
REMARK    3  A    between atoms: C_4  and  N_5
REMARK    4  A    between atoms: N_5  and  C_6
REMARK    5  A    between atoms: C_6  and  C_7
REMARK    6  A    between atoms: N_13  and  C_14
REMARK    7  A    between atoms: C_18  and  C_19
REMARK                            x       y       z     vdW  Elec       q    Type
REMARK                         _______ _______ _______ _____ _____    ______ ____
ROOT
ATOM      1  C   UNL     1       4.580   5.681  17.669  0.00  0.00    +0.000 A 
ATOM      2  S   UNL     1       4.992   4.145  17.054  0.00  0.00    +0.000 S 
ATOM      3  C   UNL     1       3.697   3.410  17.868  0.00  0.00    +0.000 A 
ATOM      4  C   UNL     1       2.890   4.328  18.521  0.00  0.00    +0.000 A 
ATOM      5  C   UNL     1       3.368   5.680  18.343  0.00  0.00    +0.000 A 
ATOM      6  C   UNL     1       1.637   3.854  19.207  0.00  0.00    +0.000 C 
ATOM      7  C   UNL     1       1.652   2.319  19.403  0.00  0.00    +0.000 C 
ATOM      8  N   UNL     1       2.081   1.586  18.194  0.00  0.00    +0.000 NA
ATOM      9  C   UNL     1       3.475   1.926  17.850  0.00  0.00    +0.000 C 
ATOM     10  H   UNL     1       1.487   1.874  17.417  0.00  0.00    +0.000 HD
ENDROOT
BRANCH   5  11
ATOM     11  C   UNL     1       2.566   6.913  18.722  0.00  0.00    +0.000 A 
ATOM     12  N   UNL     1       2.470   7.945  17.906  0.00  0.00    +0.000 NA
ATOM     13  C   UNL     1       1.860   9.020  18.542  0.00  0.00    +0.000 A 
ATOM     14  C   UNL     1       1.607  10.291  18.004  0.00  0.00    +0.000 A 
ATOM     15  N   UNL     1       1.051  11.273  18.761  0.00  0.00    +0.000 NA
ATOM     16  C   UNL     1       0.733  11.007  20.045  0.00  0.00    +0.000 A 
ATOM     17  C   UNL     1       0.920   9.784  20.662  0.00  0.00    +0.000 A 
ATOM     18  C   UNL     1       1.497   8.791  19.866  0.00  0.00    +0.000 A 
ATOM     19  S   UNL     1       1.891   7.177  20.283  0.00  0.00    +0.000 S 
ENDBRANCH   5  11
BRANCH   1  22
ATOM     20  O   UNL     1       7.205   5.819  18.689  0.00  0.00    +0.000 OA
ATOM     21  C   UNL     1       6.783   6.649  17.888  0.00  0.00    +0.000 C 
ATOM     22  N   UNL     1       5.509   6.649  17.325  0.00  0.00    +0.000 N 
ATOM     23  H   UNL     1       5.457   6.965  16.364  0.00  0.00    +0.000 HD
BRANCH  21  24
ATOM     24  C   UNL     1       7.603   7.853  17.440  0.00  0.00    +0.000 C 
BRANCH  24  25
ATOM     25  C   UNL     1       8.502   8.427  18.538  0.00  0.00    +0.000 C 
BRANCH  25  26
ATOM     26  N   UNL     1       8.768   9.858  18.271  0.00  0.00    +0.000 NA
ATOM     27  H   UNL     1       7.881  10.313  18.051  0.00  0.00    +0.000 HD
BRANCH  26  28
ATOM     28  C   UNL     1       9.315  10.525  19.468  0.00  0.00    +0.000 C 
BRANCH  28  29
ATOM     29  C   UNL     1      10.246  11.668  19.100  0.00  0.00    +0.000 C 
ATOM     30  C   UNL     1      10.868  11.898  17.672  0.00  0.00    +0.000 C 
ATOM     31  C   UNL     1      11.854  12.760  18.512  0.00  0.00    +0.000 C 
ATOM     32  C   UNL     1      10.967  13.835  19.102  0.00  0.00    +0.000 C 
ATOM     33  N   UNL     1       9.802  13.035  19.508  0.00  0.00    +0.000 NA
ATOM     34  C   UNL     1      11.750  11.622  19.563  0.00  0.00    +0.000 C 
ATOM     35  H   UNL     1       8.987  13.358  18.987  0.00  0.00    +0.000 HD
ENDBRANCH  28  29
ENDBRANCH  26  28
ENDBRANCH  25  26
ENDBRANCH  24  25
ENDBRANCH  21  24
ENDBRANCH   1  22
TORSDOF 7
ENDMDL
MODEL 7
REMARK VINA RESULT:      -8.7      0.908      1.179
REMARK  Name = 
REMARK  7 active torsions:
REMARK  status: ('A' for Active; 'I' for Inactive)
REMARK    1  A    between atoms: C_2  and  C_3
REMARK    2  A    between atoms: C_3  and  C_4
REMARK    3  A    between atoms: C_4  and  N_5
REMARK    4  A    between atoms: N_5  and  C_6
REMARK    5  A    between atoms: C_6  and  C_7
REMARK    6  A    between atoms: N_13  and  C_14
REMARK    7  A    between atoms: C_18  and  C_19
REMARK                            x       y       z     vdW  Elec       q    Type
REMARK                         _______ _______ _______ _____ _____    ______ ____
ROOT
ATOM      1  C   UNL     1       4.236   5.538  17.700  0.00  0.00    +0.000 A 
ATOM      2  S   UNL     1       4.540   3.976  17.087  0.00  0.00    +0.000 S 
ATOM      3  C   UNL     1       3.290   3.306  18.019  0.00  0.00    +0.000 A 
ATOM      4  C   UNL     1       2.573   4.266  18.715  0.00  0.00    +0.000 A 
ATOM      5  C   UNL     1       3.084   5.595  18.470  0.00  0.00    +0.000 A 
ATOM      6  C   UNL     1       1.364   3.853  19.511  0.00  0.00    +0.000 C 
ATOM      7  C   UNL     1       1.340   2.322  19.738  0.00  0.00    +0.000 C 
ATOM      8  N   UNL     1       1.641   1.551  18.514  0.00  0.00    +0.000 NA
ATOM      9  C   UNL     1       3.014   1.832  18.051  0.00  0.00    +0.000 C 
ATOM     10  H   UNL     1       0.996   1.848  17.782  0.00  0.00    +0.000 HD
ENDROOT
BRANCH   5  11
ATOM     11  C   UNL     1       2.361   6.865  18.887  0.00  0.00    +0.000 A 
ATOM     12  N   UNL     1       2.278   7.903  18.077  0.00  0.00    +0.000 NA
ATOM     13  C   UNL     1       1.750   9.004  18.741  0.00  0.00    +0.000 A 
ATOM     14  C   UNL     1       1.535  10.287  18.217  0.00  0.00    +0.000 A 
ATOM     15  N   UNL     1       1.063  11.293  18.999  0.00  0.00    +0.000 NA
ATOM     16  C   UNL     1       0.791  11.038  20.296  0.00  0.00    +0.000 A 
ATOM     17  C   UNL     1       0.946   9.806  20.902  0.00  0.00    +0.000 A 
ATOM     18  C   UNL     1       1.437   8.789  20.081  0.00  0.00    +0.000 A 
ATOM     19  S   UNL     1       1.771   7.157  20.477  0.00  0.00    +0.000 S 
ENDBRANCH   5  11
BRANCH   1  22
ATOM     20  O   UNL     1       6.839   5.813  18.748  0.00  0.00    +0.000 OA
ATOM     21  C   UNL     1       6.430   6.539  17.845  0.00  0.00    +0.000 C 
ATOM     22  N   UNL     1       5.167   6.463  17.261  0.00  0.00    +0.000 N 
ATOM     23  H   UNL     1       5.134   6.663  16.269  0.00  0.00    +0.000 HD
BRANCH  21  24
ATOM     24  C   UNL     1       7.255   7.686  17.273  0.00  0.00    +0.000 C 
BRANCH  24  25
ATOM     25  C   UNL     1       8.262   8.274  18.264  0.00  0.00    +0.000 C 
BRANCH  25  26
ATOM     26  N   UNL     1       8.554   9.679  17.908  0.00  0.00    +0.000 NA
ATOM     27  H   UNL     1       7.667  10.167  17.775  0.00  0.00    +0.000 HD
BRANCH  26  28
ATOM     28  C   UNL     1       9.268  10.364  19.003  0.00  0.00    +0.000 C 
BRANCH  28  29
ATOM     29  C   UNL     1       9.925  11.649  18.530  0.00  0.00    +0.000 C 
ATOM     30  C   UNL     1      10.453  12.791  19.477  0.00  0.00    +0.000 C 
ATOM     31  C   UNL     1      10.343  13.601  18.152  0.00  0.00    +0.000 C 
ATOM     32  C   UNL     1      11.324  12.906  17.233  0.00  0.00    +0.000 C 
ATOM     33  N   UNL     1      11.022  11.496  17.528  0.00  0.00    +0.000 NA
ATOM     34  C   UNL     1       9.035  12.797  17.922  0.00  0.00    +0.000 C 
ATOM     35  H   UNL     1      11.856  11.059  17.918  0.00  0.00    +0.000 HD
ENDBRANCH  28  29
ENDBRANCH  26  28
ENDBRANCH  25  26
ENDBRANCH  24  25
ENDBRANCH  21  24
ENDBRANCH   1  22
TORSDOF 7
ENDMDL
MODEL 8
REMARK VINA RESULT:      -8.5      1.407      1.742
REMARK  Name = 
REMARK  7 active torsions:
REMARK  status: ('A' for Active; 'I' for Inactive)
REMARK    1  A    between atoms: C_2  and  C_3
REMARK    2  A    between atoms: C_3  and  C_4
REMARK    3  A    between atoms: C_4  and  N_5
REMARK    4  A    between atoms: N_5  and  C_6
REMARK    5  A    between atoms: C_6  and  C_7
REMARK    6  A    between atoms: N_13  and  C_14
REMARK    7  A    between atoms: C_18  and  C_19
REMARK                            x       y       z     vdW  Elec       q    Type
REMARK                         _______ _______ _______ _____ _____    ______ ____
ROOT
ATOM      1  C   UNL     1       4.698   5.472  18.365  0.00  0.00    +0.000 A 
ATOM      2  S   UNL     1       5.114   3.904  17.840  0.00  0.00    +0.000 S 
ATOM      3  C   UNL     1       3.601   3.288  18.298  0.00  0.00    +0.000 A 
ATOM      4  C   UNL     1       2.740   4.276  18.751  0.00  0.00    +0.000 A 
ATOM      5  C   UNL     1       3.362   5.579  18.722  0.00  0.00    +0.000 A 
ATOM      6  C   UNL     1       1.321   3.915  19.101  0.00  0.00    +0.000 C 
ATOM      7  C   UNL     1       1.156   2.385  19.265  0.00  0.00    +0.000 C 
ATOM      8  N   UNL     1       1.803   1.614  18.183  0.00  0.00    +0.000 NA
ATOM      9  C   UNL     1       3.263   1.830  18.198  0.00  0.00    +0.000 C 
ATOM     10  H   UNL     1       1.445   1.952  17.290  0.00  0.00    +0.000 HD
ENDROOT
BRANCH   5  11
ATOM     11  C   UNL     1       2.600   6.879  18.917  0.00  0.00    +0.000 A 
ATOM     12  N   UNL     1       2.700   7.868  18.049  0.00  0.00    +0.000 NA
ATOM     13  C   UNL     1       2.079   9.013  18.534  0.00  0.00    +0.000 A 
ATOM     14  C   UNL     1       1.998  10.265  17.907  0.00  0.00    +0.000 A 
ATOM     15  N   UNL     1       1.406  11.321  18.525  0.00  0.00    +0.000 NA
ATOM     16  C   UNL     1       0.881  11.146  19.755  0.00  0.00    +0.000 A 
ATOM     17  C   UNL     1       0.887   9.950  20.448  0.00  0.00    +0.000 A 
ATOM     18  C   UNL     1       1.506   8.881  19.797  0.00  0.00    +0.000 A 
ATOM     19  S   UNL     1       1.719   7.271  20.342  0.00  0.00    +0.000 S 
ENDBRANCH   5  11
BRANCH   1  22
ATOM     20  O   UNL     1       5.545   6.731  15.988  0.00  0.00    +0.000 OA
ATOM     21  C   UNL     1       6.120   6.921  17.056  0.00  0.00    +0.000 C 
ATOM     22  N   UNL     1       5.762   6.353  18.277  0.00  0.00    +0.000 N 
ATOM     23  H   UNL     1       5.891   6.946  19.088  0.00  0.00    +0.000 HD
BRANCH  21  24
ATOM     24  C   UNL     1       7.373   7.782  17.175  0.00  0.00    +0.000 C 
BRANCH  24  25
ATOM     25  C   UNL     1       8.138   7.578  18.485  0.00  0.00    +0.000 C 
BRANCH  25  26
ATOM     26  N   UNL     1       8.921   8.792  18.802  0.00  0.00    +0.000 NA
ATOM     27  H   UNL     1       9.849   8.692  18.390  0.00  0.00    +0.000 HD
BRANCH  26  28
ATOM     28  C   UNL     1       8.304   9.990  18.203  0.00  0.00    +0.000 C 
BRANCH  28  29
ATOM     29  C   UNL     1       9.138  11.236  18.448  0.00  0.00    +0.000 C 
ATOM     30  C   UNL     1       8.900  12.629  17.754  0.00  0.00    +0.000 C 
ATOM     31  C   UNL     1      10.372  12.833  18.217  0.00  0.00    +0.000 C 
ATOM     32  C   UNL     1      10.282  12.746  19.725  0.00  0.00    +0.000 C 
ATOM     33  N   UNL     1       9.375  11.598  19.878  0.00  0.00    +0.000 NA
ATOM     34  C   UNL     1      10.570  11.350  17.804  0.00  0.00    +0.000 C 
ATOM     35  H   UNL     1       8.528  11.912  20.352  0.00  0.00    +0.000 HD
ENDBRANCH  28  29
ENDBRANCH  26  28
ENDBRANCH  25  26
ENDBRANCH  24  25
ENDBRANCH  21  24
ENDBRANCH   1  22
TORSDOF 7
ENDMDL
MODEL 9
REMARK VINA RESULT:      -8.1      1.375      1.620
REMARK  Name = 
REMARK  7 active torsions:
REMARK  status: ('A' for Active; 'I' for Inactive)
REMARK    1  A    between atoms: C_2  and  C_3
REMARK    2  A    between atoms: C_3  and  C_4
REMARK    3  A    between atoms: C_4  and  N_5
REMARK    4  A    between atoms: N_5  and  C_6
REMARK    5  A    between atoms: C_6  and  C_7
REMARK    6  A    between atoms: N_13  and  C_14
REMARK    7  A    between atoms: C_18  and  C_19
REMARK                            x       y       z     vdW  Elec       q    Type
REMARK                         _______ _______ _______ _____ _____    ______ ____
ROOT
ATOM      1  C   UNL     1       4.835   5.387  18.573  0.00  0.00    +0.000 A 
ATOM      2  S   UNL     1       5.283   3.838  18.016  0.00  0.00    +0.000 S 
ATOM      3  C   UNL     1       3.697   3.258  18.184  0.00  0.00    +0.000 A 
ATOM      4  C   UNL     1       2.805   4.250  18.560  0.00  0.00    +0.000 A 
ATOM      5  C   UNL     1       3.463   5.526  18.719  0.00  0.00    +0.000 A 
ATOM      6  C   UNL     1       1.337   3.928  18.654  0.00  0.00    +0.000 C 
ATOM      7  C   UNL     1       1.101   2.399  18.684  0.00  0.00    +0.000 C 
ATOM      8  N   UNL     1       1.890   1.671  17.670  0.00  0.00    +0.000 NA
ATOM      9  C   UNL     1       3.335   1.824  17.932  0.00  0.00    +0.000 C 
ATOM     10  H   UNL     1       1.692   2.079  16.756  0.00  0.00    +0.000 HD
ENDROOT
BRANCH   5  11
ATOM     11  C   UNL     1       2.721   6.842  18.879  0.00  0.00    +0.000 A 
ATOM     12  N   UNL     1       2.876   7.826  18.014  0.00  0.00    +0.000 NA
ATOM     13  C   UNL     1       2.258   8.985  18.470  0.00  0.00    +0.000 A 
ATOM     14  C   UNL     1       2.229  10.236  17.836  0.00  0.00    +0.000 A 
ATOM     15  N   UNL     1       1.633  11.305  18.426  0.00  0.00    +0.000 NA
ATOM     16  C   UNL     1       1.055  11.146  19.634  0.00  0.00    +0.000 A 
ATOM     17  C   UNL     1       1.008   9.952  20.330  0.00  0.00    +0.000 A 
ATOM     18  C   UNL     1       1.631   8.869  19.708  0.00  0.00    +0.000 A 
ATOM     19  S   UNL     1       1.789   7.257  20.265  0.00  0.00    +0.000 S 
ENDBRANCH   5  11
BRANCH   1  22
ATOM     20  O   UNL     1       6.259   6.544  16.433  0.00  0.00    +0.000 OA
ATOM     21  C   UNL     1       6.580   6.745  17.601  0.00  0.00    +0.000 C 
ATOM     22  N   UNL     1       5.926   6.227  18.717  0.00  0.00    +0.000 N 
ATOM     23  H   UNL     1       5.890   6.838  19.523  0.00  0.00    +0.000 HD
BRANCH  21  24
ATOM     24  C   UNL     1       7.806   7.565  17.989  0.00  0.00    +0.000 C 
BRANCH  24  25
ATOM     25  C   UNL     1       7.678   9.054  17.664  0.00  0.00    +0.000 C 
BRANCH  25  26
ATOM     26  N   UNL     1       8.695   9.821  18.417  0.00  0.00    +0.000 NA
ATOM     27  H   UNL     1       9.606   9.390  18.255  0.00  0.00    +0.000 HD
BRANCH  26  28
ATOM     28  C   UNL     1       8.777  11.210  17.930  0.00  0.00    +0.000 C 
BRANCH  28  29
ATOM     29  C   UNL     1      10.058  11.892  18.380  0.00  0.00    +0.000 C 
ATOM     30  C   UNL     1      10.797  11.608  19.741  0.00  0.00    +0.000 C 
ATOM     31  C   UNL     1      11.425  12.992  19.403  0.00  0.00    +0.000 C 
ATOM     32  C   UNL     1      12.163  12.735  18.106  0.00  0.00    +0.000 C 
ATOM     33  N   UNL     1      11.170  11.926  17.383  0.00  0.00    +0.000 NA
ATOM     34  C   UNL     1      10.002  13.372  18.913  0.00  0.00    +0.000 C 
ATOM     35  H   UNL     1      11.568  11.005  17.203  0.00  0.00    +0.000 HD
ENDBRANCH  28  29
ENDBRANCH  26  28
ENDBRANCH  25  26
ENDBRANCH  24  25
ENDBRANCH  21  24
ENDBRANCH   1  22
TORSDOF 7
ENDMDL
