MODEL 1
REMARK VINA RESULT:      -7.9      0.000      0.000
REMARK  Name = 
REMARK  6 active torsions:
REMARK  status: ('A' for Active; 'I' for Inactive)
REMARK    1  A    between atoms: C_1  and  C_2
REMARK    2  A    between atoms: C_8  and  O_9
REMARK    3  A    between atoms: C_12  and  C_13
REMARK    4  A    between atoms: N_16  and  C_17
REMARK    5  A    between atoms: C_17  and  C_18
REMARK    6  A    between atoms: C_18  and  C_19
REMARK                            x       y       z     vdW  Elec       q    Type
REMARK                         _______ _______ _______ _____ _____    ______ ____
ROOT
ATOM      1  C   UNL     1       8.057   5.490  18.584  0.00  0.00    +0.000 C 
ATOM      2  C   UNL     1       6.915   5.223  17.601  0.00  0.00    +0.000 C 
ATOM      3  C   UNL     1       5.904   4.158  18.067  0.00  0.00    +0.000 C 
ATOM      4  C   UNL     1       5.235   4.700  19.360  0.00  0.00    +0.000 C 
ATOM      5  C   UNL     1       4.400   5.915  19.019  0.00  0.00    +0.000 A 
ATOM      6  C   UNL     1       3.191   6.128  19.700  0.00  0.00    +0.000 A 
ATOM      7  C   UNL     1       2.250   7.029  19.207  0.00  0.00    +0.000 A 
ATOM      8  C   UNL     1       2.533   7.724  18.040  0.00  0.00    +0.000 A 
ATOM      9  C   UNL     1       3.771   7.600  17.412  0.00  0.00    +0.000 A 
ATOM     10  C   UNL     1       4.745   6.701  17.897  0.00  0.00    +0.000 A 
ATOM     11  C   UNL     1       6.054   6.435  17.096  0.00  0.00    +0.000 C 
ATOM     12  C   UNL     1       6.868   7.737  17.075  0.00  0.00    +0.000 C 
ATOM     13  C   UNL     1       5.662   5.950  15.669  0.00  0.00    +0.000 C 
ATOM     14  C   UNL     1       5.185   4.461  15.676  0.00  0.00    +0.000 C 
ATOM     15  N   UNL     1       4.877   3.957  17.011  0.00  0.00    +0.000 NA
ENDROOT
BRANCH   8  16
ATOM     16  O   UNL     1       1.593   8.519  17.450  0.00  0.00    +0.000 OA
ATOM     17  H   UNL     1       1.980   8.903  16.646  0.00  0.00    +0.000 HD
ENDBRANCH   8  16
BRANCH  15  18
ATOM     18  C   UNL     1       4.109   2.726  17.106  0.00  0.00    +0.000 C 
BRANCH  18  19
ATOM     19  C   UNL     1       2.601   2.986  17.278  0.00  0.00    +0.000 C 
BRANCH  19  20
ATOM     20  C   UNL     1       2.218   2.921  18.735  0.00  0.00    +0.000 A 
ATOM     21  C   UNL     1       1.024   3.501  19.184  0.00  0.00    +0.000 A 
ATOM     22  C   UNL     1       0.708   3.493  20.541  0.00  0.00    +0.000 A 
ATOM     23  C   UNL     1       1.583   2.913  21.455  0.00  0.00    +0.000 A 
ATOM     24  C   UNL     1       2.771   2.329  21.016  0.00  0.00    +0.000 A 
ATOM     25  C   UNL     1       3.087   2.334  19.662  0.00  0.00    +0.000 A 
ENDBRANCH  19  20
ENDBRANCH  18  19
ENDBRANCH  15  18
TORSDOF 4
ENDMDL
MODEL 2
REMARK VINA RESULT:      -7.5      2.686      6.469
REMARK  Name = 
REMARK  6 active torsions:
REMARK  status: ('A' for Active; 'I' for Inactive)
REMARK    1  A    between atoms: C_1  and  C_2
REMARK    2  A    between atoms: C_8  and  O_9
REMARK    3  A    between atoms: C_12  and  C_13
REMARK    4  A    between atoms: N_16  and  C_17
REMARK    5  A    between atoms: C_17  and  C_18
REMARK    6  A    between atoms: C_18  and  C_19
REMARK                            x       y       z     vdW  Elec       q    Type
REMARK                         _______ _______ _______ _____ _____    ______ ____
ROOT
ATOM      1  C   UNL     1       5.620   3.797  15.572  0.00  0.00    +0.000 C 
ATOM      2  C   UNL     1       6.047   4.625  16.784  0.00  0.00    +0.000 C 
ATOM      3  C   UNL     1       6.301   6.115  16.486  0.00  0.00    +0.000 C 
ATOM      4  C   UNL     1       4.952   6.721  16.009  0.00  0.00    +0.000 C 
ATOM      5  C   UNL     1       3.967   6.711  17.158  0.00  0.00    +0.000 A 
ATOM      6  C   UNL     1       3.059   7.773  17.290  0.00  0.00    +0.000 A 
ATOM      7  C   UNL     1       2.371   7.971  18.485  0.00  0.00    +0.000 A 
ATOM      8  C   UNL     1       2.584   7.092  19.537  0.00  0.00    +0.000 A 
ATOM      9  C   UNL     1       3.402   5.973  19.384  0.00  0.00    +0.000 A 
ATOM     10  C   UNL     1       4.104   5.745  18.181  0.00  0.00    +0.000 A 
ATOM     11  C   UNL     1       5.150   4.597  18.073  0.00  0.00    +0.000 C 
ATOM     12  C   UNL     1       4.403   3.263  18.212  0.00  0.00    +0.000 C 
ATOM     13  C   UNL     1       6.219   4.805  19.186  0.00  0.00    +0.000 C 
ATOM     14  C   UNL     1       7.217   5.951  18.823  0.00  0.00    +0.000 C 
ATOM     15  N   UNL     1       6.753   6.797  17.727  0.00  0.00    +0.000 NA
ENDROOT
BRANCH   8  16
ATOM     16  O   UNL     1       2.031   7.317  20.765  0.00  0.00    +0.000 OA
ATOM     17  H   UNL     1       1.434   6.579  20.970  0.00  0.00    +0.000 HD
ENDBRANCH   8  16
BRANCH  15  18
ATOM     18  C   UNL     1       7.418   8.077  17.535  0.00  0.00    +0.000 C 
BRANCH  18  19
ATOM     19  C   UNL     1       8.560   8.302  18.544  0.00  0.00    +0.000 C 
BRANCH  19  20
ATOM     20  C   UNL     1       8.826   9.776  18.718  0.00  0.00    +0.000 A 
ATOM     21  C   UNL     1       8.577  10.674  17.672  0.00  0.00    +0.000 A 
ATOM     22  C   UNL     1       8.886  12.024  17.819  0.00  0.00    +0.000 A 
ATOM     23  C   UNL     1       9.450  12.483  19.006  0.00  0.00    +0.000 A 
ATOM     24  C   UNL     1       9.698  11.597  20.054  0.00  0.00    +0.000 A 
ATOM     25  C   UNL     1       9.388  10.249  19.910  0.00  0.00    +0.000 A 
ENDBRANCH  19  20
ENDBRANCH  18  19
ENDBRANCH  15  18
TORSDOF 4
ENDMDL
MODEL 3
REMARK VINA RESULT:      -7.3      2.769      6.557
REMARK  Name = 
REMARK  6 active torsions:
REMARK  status: ('A' for Active; 'I' for Inactive)
REMARK    1  A    between atoms: C_1  and  C_2
REMARK    2  A    between atoms: C_8  and  O_9
REMARK    3  A    between atoms: C_12  and  C_13
REMARK    4  A    between atoms: N_16  and  C_17
REMARK    5  A    between atoms: C_17  and  C_18
REMARK    6  A    between atoms: C_18  and  C_19
REMARK                            x       y       z     vdW  Elec       q    Type
REMARK                         _______ _______ _______ _____ _____    ______ ____
ROOT
ATOM      1  C   UNL     1       5.804   4.085  15.261  0.00  0.00    +0.000 C 
ATOM      2  C   UNL     1       6.215   4.817  16.539  0.00  0.00    +0.000 C 
ATOM      3  C   UNL     1       6.385   6.340  16.379  0.00  0.00    +0.000 C 
ATOM      4  C   UNL     1       4.997   6.915  15.986  0.00  0.00    +0.000 C 
ATOM      5  C   UNL     1       4.040   6.745  17.146  0.00  0.00    +0.000 A 
ATOM      6  C   UNL     1       3.082   7.740  17.395  0.00  0.00    +0.000 A 
ATOM      7  C   UNL     1       2.412   7.788  18.615  0.00  0.00    +0.000 A 
ATOM      8  C   UNL     1       2.693   6.826  19.575  0.00  0.00    +0.000 A 
ATOM      9  C   UNL     1       3.564   5.772  19.301  0.00  0.00    +0.000 A 
ATOM     10  C   UNL     1       4.249   5.696  18.070  0.00  0.00    +0.000 A 
ATOM     11  C   UNL     1       5.351   4.620  17.834  0.00  0.00    +0.000 C 
ATOM     12  C   UNL     1       4.676   3.241  17.860  0.00  0.00    +0.000 C 
ATOM     13  C   UNL     1       6.432   4.779  18.944  0.00  0.00    +0.000 C 
ATOM     14  C   UNL     1       7.361   6.006  18.673  0.00  0.00    +0.000 C 
ATOM     15  N   UNL     1       6.830   6.926  17.671  0.00  0.00    +0.000 NA
ENDROOT
BRANCH   8  16
ATOM     16  O   UNL     1       2.158   6.905  20.828  0.00  0.00    +0.000 OA
ATOM     17  H   UNL     1       2.742   6.425  21.439  0.00  0.00    +0.000 HD
ENDBRANCH   8  16
BRANCH  15  18
ATOM     18  C   UNL     1       7.424   8.251  17.590  0.00  0.00    +0.000 C 
BRANCH  18  19
ATOM     19  C   UNL     1       8.590   8.433  18.580  0.00  0.00    +0.000 C 
BRANCH  19  20
ATOM     20  C   UNL     1       8.900   9.897  18.764  0.00  0.00    +0.000 A 
ATOM     21  C   UNL     1       9.366  10.377  19.995  0.00  0.00    +0.000 A 
ATOM     22  C   UNL     1       9.589  11.741  20.177  0.00  0.00    +0.000 A 
ATOM     23  C   UNL     1       9.343  12.630  19.135  0.00  0.00    +0.000 A 
ATOM     24  C   UNL     1       8.883  12.161  17.905  0.00  0.00    +0.000 A 
ATOM     25  C   UNL     1       8.662  10.800  17.721  0.00  0.00    +0.000 A 
ENDBRANCH  19  20
ENDBRANCH  18  19
ENDBRANCH  15  18
TORSDOF 4
ENDMDL
MODEL 4
REMARK VINA RESULT:      -7.1      2.456      5.210
REMARK  Name = 
REMARK  6 active torsions:
REMARK  status: ('A' for Active; 'I' for Inactive)
REMARK    1  A    between atoms: C_1  and  C_2
REMARK    2  A    between atoms: C_8  and  O_9
REMARK    3  A    between atoms: C_12  and  C_13
REMARK    4  A    between atoms: N_16  and  C_17
REMARK    5  A    between atoms: C_17  and  C_18
REMARK    6  A    between atoms: C_18  and  C_19
REMARK                            x       y       z     vdW  Elec       q    Type
REMARK                         _______ _______ _______ _____ _____    ______ ____
ROOT
ATOM      1  C   UNL     1       3.974   2.747  20.622  0.00  0.00    +0.000 C 
ATOM      2  C   UNL     1       3.444   3.636  19.496  0.00  0.00    +0.000 C 
ATOM      3  C   UNL     1       3.984   5.079  19.510  0.00  0.00    +0.000 C 
ATOM      4  C   UNL     1       5.520   4.993  19.298  0.00  0.00    +0.000 C 
ATOM      5  C   UNL     1       5.804   4.479  17.903  0.00  0.00    +0.000 A 
ATOM      6  C   UNL     1       6.910   4.982  17.200  0.00  0.00    +0.000 A 
ATOM      7  C   UNL     1       7.021   4.790  15.825  0.00  0.00    +0.000 A 
ATOM      8  C   UNL     1       6.030   4.079  15.163  0.00  0.00    +0.000 A 
ATOM      9  C   UNL     1       4.982   3.485  15.865  0.00  0.00    +0.000 A 
ATOM     10  C   UNL     1       4.851   3.658  17.260  0.00  0.00    +0.000 A 
ATOM     11  C   UNL     1       3.588   3.143  18.012  0.00  0.00    +0.000 C 
ATOM     12  C   UNL     1       3.577   1.611  17.922  0.00  0.00    +0.000 C 
ATOM     13  C   UNL     1       2.333   3.792  17.357  0.00  0.00    +0.000 C 
ATOM     14  C   UNL     1       2.164   5.285  17.786  0.00  0.00    +0.000 C 
ATOM     15  N   UNL     1       3.361   5.850  18.402  0.00  0.00    +0.000 NA
ENDROOT
BRANCH   8  16
ATOM     16  O   UNL     1       6.029   3.975  13.802  0.00  0.00    +0.000 OA
ATOM     17  H   UNL     1       5.116   3.819  13.510  0.00  0.00    +0.000 HD
ENDBRANCH   8  16
BRANCH  15  18
ATOM     18  C   UNL     1       3.439   7.298  18.521  0.00  0.00    +0.000 C 
BRANCH  18  19
ATOM     19  C   UNL     1       2.133   7.993  18.093  0.00  0.00    +0.000 C 
BRANCH  19  20
ATOM     20  C   UNL     1       1.486   8.672  19.273  0.00  0.00    +0.000 A 
ATOM     21  C   UNL     1       0.856   9.914  19.123  0.00  0.00    +0.000 A 
ATOM     22  C   UNL     1       0.317  10.565  20.230  0.00  0.00    +0.000 A 
ATOM     23  C   UNL     1       0.410   9.984  21.492  0.00  0.00    +0.000 A 
ATOM     24  C   UNL     1       1.032   8.746  21.650  0.00  0.00    +0.000 A 
ATOM     25  C   UNL     1       1.569   8.094  20.545  0.00  0.00    +0.000 A 
ENDBRANCH  19  20
ENDBRANCH  18  19
ENDBRANCH  15  18
TORSDOF 4
ENDMDL
MODEL 5
REMARK VINA RESULT:      -7.1      2.498      5.381
REMARK  Name = 
REMARK  6 active torsions:
REMARK  status: ('A' for Active; 'I' for Inactive)
REMARK    1  A    between atoms: C_1  and  C_2
REMARK    2  A    between atoms: C_8  and  O_9
REMARK    3  A    between atoms: C_12  and  C_13
REMARK    4  A    between atoms: N_16  and  C_17
REMARK    5  A    between atoms: C_17  and  C_18
REMARK    6  A    between atoms: C_18  and  C_19
REMARK                            x       y       z     vdW  Elec       q    Type
REMARK                         _______ _______ _______ _____ _____    ______ ____
ROOT
ATOM      1  C   UNL     1       3.392   2.909  20.789  0.00  0.00    +0.000 C 
ATOM      2  C   UNL     1       3.030   3.792  19.593  0.00  0.00    +0.000 C 
ATOM      3  C   UNL     1       3.645   5.204  19.630  0.00  0.00    +0.000 C 
ATOM      4  C   UNL     1       5.188   5.030  19.580  0.00  0.00    +0.000 C 
ATOM      5  C   UNL     1       5.583   4.463  18.234  0.00  0.00    +0.000 A 
ATOM      6  C   UNL     1       6.781   4.885  17.637  0.00  0.00    +0.000 A 
ATOM      7  C   UNL     1       7.021   4.648  16.285  0.00  0.00    +0.000 A 
ATOM      8  C   UNL     1       6.064   3.972  15.542  0.00  0.00    +0.000 A 
ATOM      9  C   UNL     1       4.919   3.455  16.145  0.00  0.00    +0.000 A 
ATOM     10  C   UNL     1       4.656   3.674  17.514  0.00  0.00    +0.000 A 
ATOM     11  C   UNL     1       3.296   3.249  18.144  0.00  0.00    +0.000 C 
ATOM     12  C   UNL     1       3.209   1.718  18.089  0.00  0.00    +0.000 C 
ATOM     13  C   UNL     1       2.153   3.945  17.349  0.00  0.00    +0.000 C 
ATOM     14  C   UNL     1       2.025   5.457  17.722  0.00  0.00    +0.000 C 
ATOM     15  N   UNL     1       3.183   5.975  18.445  0.00  0.00    +0.000 NA
ENDROOT
BRANCH   8  16
ATOM     16  O   UNL     1       6.196   3.829  14.191  0.00  0.00    +0.000 OA
ATOM     17  H   UNL     1       6.205   2.879  13.985  0.00  0.00    +0.000 HD
ENDBRANCH   8  16
BRANCH  15  18
ATOM     18  C   UNL     1       3.329   7.419  18.538  0.00  0.00    +0.000 C 
BRANCH  18  19
ATOM     19  C   UNL     1       2.116   8.170  17.957  0.00  0.00    +0.000 C 
BRANCH  19  20
ATOM     20  C   UNL     1       1.349   8.862  19.055  0.00  0.00    +0.000 A 
ATOM     21  C   UNL     1       1.459   8.430  20.383  0.00  0.00    +0.000 A 
ATOM     22  C   UNL     1       0.698   9.033  21.382  0.00  0.00    +0.000 A 
ATOM     23  C   UNL     1      -0.180  10.064  21.060  0.00  0.00    +0.000 A 
ATOM     24  C   UNL     1      -0.293  10.504  19.741  0.00  0.00    +0.000 A 
ATOM     25  C   UNL     1       0.468   9.904  18.743  0.00  0.00    +0.000 A 
ENDBRANCH  19  20
ENDBRANCH  18  19
ENDBRANCH  15  18
TORSDOF 4
ENDMDL
MODEL 6
REMARK VINA RESULT:      -7.0      2.575      5.498
REMARK  Name = 
REMARK  6 active torsions:
REMARK  status: ('A' for Active; 'I' for Inactive)
REMARK    1  A    between atoms: C_1  and  C_2
REMARK    2  A    between atoms: C_8  and  O_9
REMARK    3  A    between atoms: C_12  and  C_13
REMARK    4  A    between atoms: N_16  and  C_17
REMARK    5  A    between atoms: C_17  and  C_18
REMARK    6  A    between atoms: C_18  and  C_19
REMARK                            x       y       z     vdW  Elec       q    Type
REMARK                         _______ _______ _______ _____ _____    ______ ____
ROOT
ATOM      1  C   UNL     1       3.410   2.695  20.795  0.00  0.00    +0.000 C 
ATOM      2  C   UNL     1       2.931   3.527  19.605  0.00  0.00    +0.000 C 
ATOM      3  C   UNL     1       3.272   5.028  19.693  0.00  0.00    +0.000 C 
ATOM      4  C   UNL     1       4.820   5.144  19.699  0.00  0.00    +0.000 C 
ATOM      5  C   UNL     1       5.360   4.696  18.358  0.00  0.00    +0.000 A 
ATOM      6  C   UNL     1       6.478   5.349  17.817  0.00  0.00    +0.000 A 
ATOM      7  C   UNL     1       6.804   5.197  16.471  0.00  0.00    +0.000 A 
ATOM      8  C   UNL     1       6.016   4.376  15.677  0.00  0.00    +0.000 A 
ATOM      9  C   UNL     1       4.967   3.639  16.226  0.00  0.00    +0.000 A 
ATOM     10  C   UNL     1       4.621   3.769  17.588  0.00  0.00    +0.000 A 
ATOM     11  C   UNL     1       3.344   3.083  18.156  0.00  0.00    +0.000 C 
ATOM     12  C   UNL     1       3.545   1.564  18.067  0.00  0.00    +0.000 C 
ATOM     13  C   UNL     1       2.118   3.576  17.331  0.00  0.00    +0.000 C 
ATOM     14  C   UNL     1       1.699   5.027  17.730  0.00  0.00    +0.000 C 
ATOM     15  N   UNL     1       2.714   5.731  18.508  0.00  0.00    +0.000 NA
ENDROOT
BRANCH   8  16
ATOM     16  O   UNL     1       6.218   4.296  14.330  0.00  0.00    +0.000 OA
ATOM     17  H   UNL     1       5.458   3.837  13.935  0.00  0.00    +0.000 HD
ENDBRANCH   8  16
BRANCH  15  18
ATOM     18  C   UNL     1       2.586   7.174  18.635  0.00  0.00    +0.000 C 
BRANCH  18  19
ATOM     19  C   UNL     1       2.082   7.598  20.028  0.00  0.00    +0.000 C 
BRANCH  19  20
ATOM     20  C   UNL     1       1.161   8.786  19.916  0.00  0.00    +0.000 A 
ATOM     21  C   UNL     1       1.030   9.475  18.703  0.00  0.00    +0.000 A 
ATOM     22  C   UNL     1       0.227  10.610  18.624  0.00  0.00    +0.000 A 
ATOM     23  C   UNL     1      -0.444  11.067  19.755  0.00  0.00    +0.000 A 
ATOM     24  C   UNL     1      -0.322  10.386  20.966  0.00  0.00    +0.000 A 
ATOM     25  C   UNL     1       0.477   9.251  21.046  0.00  0.00    +0.000 A 
ENDBRANCH  19  20
ENDBRANCH  18  19
ENDBRANCH  15  18
TORSDOF 4
ENDMDL
MODEL 7
REMARK VINA RESULT:      -6.7      2.525      5.645
REMARK  Name = 
REMARK  6 active torsions:
REMARK  status: ('A' for Active; 'I' for Inactive)
REMARK    1  A    between atoms: C_1  and  C_2
REMARK    2  A    between atoms: C_8  and  O_9
REMARK    3  A    between atoms: C_12  and  C_13
REMARK    4  A    between atoms: N_16  and  C_17
REMARK    5  A    between atoms: C_17  and  C_18
REMARK    6  A    between atoms: C_18  and  C_19
REMARK                            x       y       z     vdW  Elec       q    Type
REMARK                         _______ _______ _______ _____ _____    ______ ____
ROOT
ATOM      1  C   UNL     1       3.611   2.717  20.660  0.00  0.00    +0.000 C 
ATOM      2  C   UNL     1       3.059   3.639  19.571  0.00  0.00    +0.000 C 
ATOM      3  C   UNL     1       3.431   5.125  19.740  0.00  0.00    +0.000 C 
ATOM      4  C   UNL     1       4.977   5.222  19.637  0.00  0.00    +0.000 C 
ATOM      5  C   UNL     1       5.408   4.866  18.231  0.00  0.00    +0.000 A 
ATOM      6  C   UNL     1       6.494   5.543  17.654  0.00  0.00    +0.000 A 
ATOM      7  C   UNL     1       6.715   5.485  16.280  0.00  0.00    +0.000 A 
ATOM      8  C   UNL     1       5.856   4.732  15.492  0.00  0.00    +0.000 A 
ATOM      9  C   UNL     1       4.839   3.970  16.065  0.00  0.00    +0.000 A 
ATOM     10  C   UNL     1       4.598   4.006  17.455  0.00  0.00    +0.000 A 
ATOM     11  C   UNL     1       3.355   3.295  18.068  0.00  0.00    +0.000 C 
ATOM     12  C   UNL     1       3.523   1.784  17.856  0.00  0.00    +0.000 C 
ATOM     13  C   UNL     1       2.080   3.860  17.375  0.00  0.00    +0.000 C 
ATOM     14  C   UNL     1       1.716   5.284  17.907  0.00  0.00    +0.000 C 
ATOM     15  N   UNL     1       2.799   5.918  18.653  0.00  0.00    +0.000 NA
ENDROOT
BRANCH   8  16
ATOM     16  O   UNL     1       5.957   4.747  14.131  0.00  0.00    +0.000 OA
ATOM     17  H   UNL     1       5.194   5.233  13.776  0.00  0.00    +0.000 HD
ENDBRANCH   8  16
BRANCH  15  18
ATOM     18  C   UNL     1       2.704   7.350  18.892  0.00  0.00    +0.000 C 
BRANCH  18  19
ATOM     19  C   UNL     1       2.256   8.125  17.639  0.00  0.00    +0.000 C 
BRANCH  19  20
ATOM     20  C   UNL     1       1.527   9.385  18.032  0.00  0.00    +0.000 A 
ATOM     21  C   UNL     1       0.130   9.398  18.132  0.00  0.00    +0.000 A 
ATOM     22  C   UNL     1      -0.540  10.582  18.433  0.00  0.00    +0.000 A 
ATOM     23  C   UNL     1       0.179  11.758  18.629  0.00  0.00    +0.000 A 
ATOM     24  C   UNL     1       1.570  11.753  18.535  0.00  0.00    +0.000 A 
ATOM     25  C   UNL     1       2.241  10.572  18.237  0.00  0.00    +0.000 A 
ENDBRANCH  19  20
ENDBRANCH  18  19
ENDBRANCH  15  18
TORSDOF 4
ENDMDL
MODEL 8
REMARK VINA RESULT:      -6.6      8.327     12.023
REMARK  Name = 
REMARK  6 active torsions:
REMARK  status: ('A' for Active; 'I' for Inactive)
REMARK    1  A    between atoms: C_1  and  C_2
REMARK    2  A    between atoms: C_8  and  O_9
REMARK    3  A    between atoms: C_12  and  C_13
REMARK    4  A    between atoms: N_16  and  C_17
REMARK    5  A    between atoms: C_17  and  C_18
REMARK    6  A    between atoms: C_18  and  C_19
REMARK                            x       y       z     vdW  Elec       q    Type
REMARK                         _______ _______ _______ _____ _____    ______ ____
ROOT
ATOM      1  C   UNL     1       8.575  10.040  18.211  0.00  0.00    +0.000 C 
ATOM      2  C   UNL     1       9.699  11.038  18.490  0.00  0.00    +0.000 C 
ATOM      3  C   UNL     1       9.784  12.204  17.486  0.00  0.00    +0.000 C 
ATOM      4  C   UNL     1       8.461  13.008  17.608  0.00  0.00    +0.000 C 
ATOM      5  C   UNL     1       8.399  13.664  18.970  0.00  0.00    +0.000 A 
ATOM      6  C   UNL     1       7.819  14.936  19.092  0.00  0.00    +0.000 A 
ATOM      7  C   UNL     1       8.029  15.703  20.236  0.00  0.00    +0.000 A 
ATOM      8  C   UNL     1       8.805  15.182  21.261  0.00  0.00    +0.000 A 
ATOM      9  C   UNL     1       9.298  13.880  21.198  0.00  0.00    +0.000 A 
ATOM     10  C   UNL     1       9.094  13.079  20.054  0.00  0.00    +0.000 A 
ATOM     11  C   UNL     1       9.792  11.694  19.913  0.00  0.00    +0.000 C 
ATOM     12  C   UNL     1       9.229  10.769  21.000  0.00  0.00    +0.000 C 
ATOM     13  C   UNL     1      11.329  11.909  20.044  0.00  0.00    +0.000 C 
ATOM     14  C   UNL     1      11.941  12.519  18.741  0.00  0.00    +0.000 C 
ATOM     15  N   UNL     1      10.939  13.072  17.835  0.00  0.00    +0.000 NA
ENDROOT
BRANCH   8  16
ATOM     16  O   UNL     1       9.143  15.943  22.343  0.00  0.00    +0.000 OA
ATOM     17  H   UNL     1       8.348  16.067  22.888  0.00  0.00    +0.000 HD
ENDBRANCH   8  16
BRANCH  15  18
ATOM     18  C   UNL     1      11.403  13.958  16.778  0.00  0.00    +0.000 C 
BRANCH  18  19
ATOM     19  C   UNL     1      12.333  15.065  17.306  0.00  0.00    +0.000 C 
BRANCH  19  20
ATOM     20  C   UNL     1      11.528  16.186  17.914  0.00  0.00    +0.000 A 
ATOM     21  C   UNL     1      10.611  16.907  17.138  0.00  0.00    +0.000 A 
ATOM     22  C   UNL     1       9.918  17.982  17.690  0.00  0.00    +0.000 A 
ATOM     23  C   UNL     1      10.140  18.346  19.015  0.00  0.00    +0.000 A 
ATOM     24  C   UNL     1      11.048  17.631  19.796  0.00  0.00    +0.000 A 
ATOM     25  C   UNL     1      11.739  16.556  19.247  0.00  0.00    +0.000 A 
ENDBRANCH  19  20
ENDBRANCH  18  19
ENDBRANCH  15  18
TORSDOF 4
ENDMDL
MODEL 9
REMARK VINA RESULT:      -6.6      1.491      5.364
REMARK  Name = 
REMARK  6 active torsions:
REMARK  status: ('A' for Active; 'I' for Inactive)
REMARK    1  A    between atoms: C_1  and  C_2
REMARK    2  A    between atoms: C_8  and  O_9
REMARK    3  A    between atoms: C_12  and  C_13
REMARK    4  A    between atoms: N_16  and  C_17
REMARK    5  A    between atoms: C_17  and  C_18
REMARK    6  A    between atoms: C_18  and  C_19
REMARK                            x       y       z     vdW  Elec       q    Type
REMARK                         _______ _______ _______ _____ _____    ______ ____
ROOT
ATOM      1  C   UNL     1       0.848   1.420  18.568  0.00  0.00    +0.000 C 
ATOM      2  C   UNL     1       2.138   2.132  18.978  0.00  0.00    +0.000 C 
ATOM      3  C   UNL     1       2.906   2.787  17.815  0.00  0.00    +0.000 C 
ATOM      4  C   UNL     1       1.983   3.886  17.222  0.00  0.00    +0.000 C 
ATOM      5  C   UNL     1       1.798   4.988  18.243  0.00  0.00    +0.000 A 
ATOM      6  C   UNL     1       1.709   6.319  17.806  0.00  0.00    +0.000 A 
ATOM      7  C   UNL     1       1.865   7.371  18.705  0.00  0.00    +0.000 A 
ATOM      8  C   UNL     1       2.093   7.083  20.043  0.00  0.00    +0.000 A 
ATOM      9  C   UNL     1       2.079   5.769  20.507  0.00  0.00    +0.000 A 
ATOM     10  C   UNL     1       1.915   4.685  19.618  0.00  0.00    +0.000 A 
ATOM     11  C   UNL     1       2.075   3.217  20.111  0.00  0.00    +0.000 C 
ATOM     12  C   UNL     1       0.944   2.928  21.109  0.00  0.00    +0.000 C 
ATOM     13  C   UNL     1       3.489   3.068  20.747  0.00  0.00    +0.000 C 
ATOM     14  C   UNL     1       4.606   2.983  19.658  0.00  0.00    +0.000 C 
ATOM     15  N   UNL     1       4.158   3.401  18.333  0.00  0.00    +0.000 NA
ENDROOT
BRANCH   8  16
ATOM     16  O   UNL     1       2.378   8.075  20.937  0.00  0.00    +0.000 OA
ATOM     17  H   UNL     1       2.830   8.792  20.461  0.00  0.00    +0.000 HD
ENDBRANCH   8  16
BRANCH  15  18
ATOM     18  C   UNL     1       5.176   3.690  17.337  0.00  0.00    +0.000 C 
BRANCH  18  19
ATOM     19  C   UNL     1       5.126   5.152  16.854  0.00  0.00    +0.000 C 
BRANCH  19  20
ATOM     20  C   UNL     1       6.273   5.939  17.436  0.00  0.00    +0.000 A 
ATOM     21  C   UNL     1       7.060   5.398  18.462  0.00  0.00    +0.000 A 
ATOM     22  C   UNL     1       8.077   6.156  19.039  0.00  0.00    +0.000 A 
ATOM     23  C   UNL     1       8.309   7.457  18.601  0.00  0.00    +0.000 A 
ATOM     24  C   UNL     1       7.533   8.001  17.578  0.00  0.00    +0.000 A 
ATOM     25  C   UNL     1       6.519   7.246  16.999  0.00  0.00    +0.000 A 
ENDBRANCH  19  20
ENDBRANCH  18  19
ENDBRANCH  15  18
TORSDOF 4
ENDMDL
