MODEL 1
REMARK VINA RESULT:      -5.5      0.000      0.000
REMARK  Name = 
REMARK  6 active torsions:
REMARK  status: ('A' for Active; 'I' for Inactive)
REMARK    1  A    between atoms: C_1  and  C_2
REMARK    2  A    between atoms: C_2  and  O_3
REMARK    3  A    between atoms: O_3  and  C_4
REMARK    4  A    between atoms: C_4  and  C_6
REMARK    5  A    between atoms: C_6  and  C_7
REMARK    6  A    between atoms: C_7  and  N_8
REMARK                            x       y       z     vdW  Elec       q    Type
REMARK                         _______ _______ _______ _____ _____    ______ ____
ROOT
ATOM      1  N   UNL     1       6.299   6.012  17.655  0.00  0.00    +0.000 N 
ATOM      2  N   UNL     1       5.542   5.129  18.326  0.00  0.00    +0.000 NA
ATOM      3  N   UNL     1       6.263   4.826  19.399  0.00  0.00    +0.000 NA
ATOM      4  C   UNL     1       7.425   5.539  19.297  0.00  0.00    +0.000 A 
ATOM      5  N   UNL     1       8.363   5.454  20.241  0.00  0.00    +0.000 N 
ATOM      6  N   UNL     1       7.487   6.304  18.209  0.00  0.00    +0.000 NA
ATOM      7  H   UNL     1       8.087   5.093  21.144  0.00  0.00    +0.000 HD
ATOM      8  H   UNL     1       9.050   6.196  20.273  0.00  0.00    +0.000 HD
ENDROOT
BRANCH   1   9
ATOM      9  C   UNL     1       5.900   6.536  16.373  0.00  0.00    +0.000 C 
BRANCH   9  10
ATOM     10  C   UNL     1       5.423   5.425  15.454  0.00  0.00    +0.000 C 
BRANCH  10  11
ATOM     11  C   UNL     1       6.587   4.881  14.679  0.00  0.00    +0.000 C 
ATOM     12  O   UNL     1       7.685   5.408  14.603  0.00  0.00    +0.000 OA
BRANCH  11  13
ATOM     13  O   UNL     1       6.196   3.761  14.013  0.00  0.00    +0.000 OA
BRANCH  13  15
ATOM     14  C   UNL     1       5.344   2.998  11.914  0.00  0.00    +0.000 C 
ATOM     15  C   UNL     1       6.462   3.762  12.602  0.00  0.00    +0.000 C 
ENDBRANCH  13  15
ENDBRANCH  11  13
ENDBRANCH  10  11
ENDBRANCH   9  10
ENDBRANCH   1   9
TORSDOF 5
ENDMDL
MODEL 2
REMARK VINA RESULT:      -5.5      4.183      5.671
REMARK  Name = 
REMARK  6 active torsions:
REMARK  status: ('A' for Active; 'I' for Inactive)
REMARK    1  A    between atoms: C_1  and  C_2
REMARK    2  A    between atoms: C_2  and  O_3
REMARK    3  A    between atoms: O_3  and  C_4
REMARK    4  A    between atoms: C_4  and  C_6
REMARK    5  A    between atoms: C_6  and  C_7
REMARK    6  A    between atoms: C_7  and  N_8
REMARK                            x       y       z     vdW  Elec       q    Type
REMARK                         _______ _______ _______ _____ _____    ______ ____
ROOT
ATOM      1  N   UNL     1       6.484   4.704  16.401  0.00  0.00    +0.000 N 
ATOM      2  N   UNL     1       7.359   5.540  15.819  0.00  0.00    +0.000 NA
ATOM      3  N   UNL     1       7.376   5.164  14.547  0.00  0.00    +0.000 NA
ATOM      4  C   UNL     1       6.516   4.106  14.444  0.00  0.00    +0.000 A 
ATOM      5  N   UNL     1       6.306   3.507  13.272  0.00  0.00    +0.000 N 
ATOM      6  N   UNL     1       5.927   3.784  15.595  0.00  0.00    +0.000 NA
ATOM      7  H   UNL     1       6.561   4.014  12.435  0.00  0.00    +0.000 HD
ATOM      8  H   UNL     1       5.470   2.944  13.188  0.00  0.00    +0.000 HD
ENDROOT
BRANCH   1   9
ATOM      9  C   UNL     1       6.233   4.733  17.821  0.00  0.00    +0.000 C 
BRANCH   9  10
ATOM     10  C   UNL     1       4.746   4.828  18.111  0.00  0.00    +0.000 C 
BRANCH  10  11
ATOM     11  C   UNL     1       4.420   4.021  19.333  0.00  0.00    +0.000 C 
ATOM     12  O   UNL     1       4.968   2.977  19.649  0.00  0.00    +0.000 OA
BRANCH  11  13
ATOM     13  O   UNL     1       3.367   4.592  19.978  0.00  0.00    +0.000 OA
BRANCH  13  15
ATOM     14  C   UNL     1       1.108   4.002  20.489  0.00  0.00    +0.000 C 
ATOM     15  C   UNL     1       2.083   4.360  19.380  0.00  0.00    +0.000 C 
ENDBRANCH  13  15
ENDBRANCH  11  13
ENDBRANCH  10  11
ENDBRANCH   9  10
ENDBRANCH   1   9
TORSDOF 5
ENDMDL
MODEL 3
REMARK VINA RESULT:      -5.4      3.775      5.012
REMARK  Name = 
REMARK  6 active torsions:
REMARK  status: ('A' for Active; 'I' for Inactive)
REMARK    1  A    between atoms: C_1  and  C_2
REMARK    2  A    between atoms: C_2  and  O_3
REMARK    3  A    between atoms: O_3  and  C_4
REMARK    4  A    between atoms: C_4  and  C_6
REMARK    5  A    between atoms: C_6  and  C_7
REMARK    6  A    between atoms: C_7  and  N_8
REMARK                            x       y       z     vdW  Elec       q    Type
REMARK                         _______ _______ _______ _____ _____    ______ ____
ROOT
ATOM      1  N   UNL     1       5.938   5.280  16.076  0.00  0.00    +0.000 N 
ATOM      2  N   UNL     1       7.181   5.701  15.792  0.00  0.00    +0.000 NA
ATOM      3  N   UNL     1       7.490   5.072  14.664  0.00  0.00    +0.000 NA
ATOM      4  C   UNL     1       6.412   4.295  14.346  0.00  0.00    +0.000 A 
ATOM      5  N   UNL     1       6.414   3.540  13.247  0.00  0.00    +0.000 N 
ATOM      6  N   UNL     1       5.406   4.399  15.212  0.00  0.00    +0.000 NA
ATOM      7  H   UNL     1       7.084   3.768  12.524  0.00  0.00    +0.000 HD
ATOM      8  H   UNL     1       5.516   3.224  12.907  0.00  0.00    +0.000 HD
ENDROOT
BRANCH   1   9
ATOM      9  C   UNL     1       5.258   5.678  17.284  0.00  0.00    +0.000 C 
BRANCH   9  10
ATOM     10  C   UNL     1       4.055   4.790  17.550  0.00  0.00    +0.000 C 
BRANCH  10  11
ATOM     11  C   UNL     1       4.474   3.617  18.386  0.00  0.00    +0.000 C 
ATOM     12  O   UNL     1       5.284   3.660  19.299  0.00  0.00    +0.000 OA
BRANCH  11  13
ATOM     13  O   UNL     1       3.875   2.492  17.909  0.00  0.00    +0.000 OA
BRANCH  13  15
ATOM     14  C   UNL     1       1.800   2.182  19.051  0.00  0.00    +0.000 C 
ATOM     15  C   UNL     1       2.453   2.579  17.739  0.00  0.00    +0.000 C 
ENDBRANCH  13  15
ENDBRANCH  11  13
ENDBRANCH  10  11
ENDBRANCH   9  10
ENDBRANCH   1   9
TORSDOF 5
ENDMDL
MODEL 4
REMARK VINA RESULT:      -5.4      2.984      3.812
REMARK  Name = 
REMARK  6 active torsions:
REMARK  status: ('A' for Active; 'I' for Inactive)
REMARK    1  A    between atoms: C_1  and  C_2
REMARK    2  A    between atoms: C_2  and  O_3
REMARK    3  A    between atoms: O_3  and  C_4
REMARK    4  A    between atoms: C_4  and  C_6
REMARK    5  A    between atoms: C_6  and  C_7
REMARK    6  A    between atoms: C_7  and  N_8
REMARK                            x       y       z     vdW  Elec       q    Type
REMARK                         _______ _______ _______ _____ _____    ______ ____
ROOT
ATOM      1  N   UNL     1       3.247   4.089  17.726  0.00  0.00    +0.000 N 
ATOM      2  N   UNL     1       2.086   3.559  17.309  0.00  0.00    +0.000 NA
ATOM      3  N   UNL     1       2.228   2.255  17.515  0.00  0.00    +0.000 NA
ATOM      4  C   UNL     1       3.482   2.079  18.031  0.00  0.00    +0.000 A 
ATOM      5  N   UNL     1       3.922   0.863  18.355  0.00  0.00    +0.000 N 
ATOM      6  N   UNL     1       4.159   3.215  18.183  0.00  0.00    +0.000 NA
ATOM      7  H   UNL     1       3.233   0.134  18.483  0.00  0.00    +0.000 HD
ATOM      8  H   UNL     1       4.711   0.815  18.986  0.00  0.00    +0.000 HD
ENDROOT
BRANCH   1   9
ATOM      9  C   UNL     1       3.529   5.497  17.598  0.00  0.00    +0.000 C 
BRANCH   9  10
ATOM     10  C   UNL     1       5.026   5.755  17.582  0.00  0.00    +0.000 C 
BRANCH  10  11
ATOM     11  C   UNL     1       5.499   5.876  16.163  0.00  0.00    +0.000 C 
ATOM     12  O   UNL     1       5.193   6.776  15.398  0.00  0.00    +0.000 OA
BRANCH  11  13
ATOM     13  O   UNL     1       6.245   4.783  15.846  0.00  0.00    +0.000 OA
BRANCH  13  15
ATOM     14  C   UNL     1       6.102   3.857  13.647  0.00  0.00    +0.000 C 
ATOM     15  C   UNL     1       6.860   4.816  14.550  0.00  0.00    +0.000 C 
ENDBRANCH  13  15
ENDBRANCH  11  13
ENDBRANCH  10  11
ENDBRANCH   9  10
ENDBRANCH   1   9
TORSDOF 5
ENDMDL
MODEL 5
REMARK VINA RESULT:      -5.3      4.045      5.282
REMARK  Name = 
REMARK  6 active torsions:
REMARK  status: ('A' for Active; 'I' for Inactive)
REMARK    1  A    between atoms: C_1  and  C_2
REMARK    2  A    between atoms: C_2  and  O_3
REMARK    3  A    between atoms: O_3  and  C_4
REMARK    4  A    between atoms: C_4  and  C_6
REMARK    5  A    between atoms: C_6  and  C_7
REMARK    6  A    between atoms: C_7  and  N_8
REMARK                            x       y       z     vdW  Elec       q    Type
REMARK                         _______ _______ _______ _____ _____    ______ ____
ROOT
ATOM      1  N   UNL     1       6.180   4.943  18.029  0.00  0.00    +0.000 N 
ATOM      2  N   UNL     1       7.402   4.430  18.247  0.00  0.00    +0.000 NA
ATOM      3  N   UNL     1       7.991   4.472  17.058  0.00  0.00    +0.000 NA
ATOM      4  C   UNL     1       7.075   4.996  16.190  0.00  0.00    +0.000 A 
ATOM      5  N   UNL     1       7.378   5.176  14.904  0.00  0.00    +0.000 N 
ATOM      6  N   UNL     1       5.916   5.311  16.764  0.00  0.00    +0.000 NA
ATOM      7  H   UNL     1       8.357   5.190  14.651  0.00  0.00    +0.000 HD
ATOM      8  H   UNL     1       6.796   5.817  14.381  0.00  0.00    +0.000 HD
ENDROOT
BRANCH   1   9
ATOM      9  C   UNL     1       5.184   5.003  19.070  0.00  0.00    +0.000 C 
BRANCH   9  10
ATOM     10  C   UNL     1       3.809   4.648  18.532  0.00  0.00    +0.000 C 
BRANCH  10  11
ATOM     11  C   UNL     1       3.588   3.169  18.656  0.00  0.00    +0.000 C 
ATOM     12  O   UNL     1       3.655   2.372  17.734  0.00  0.00    +0.000 OA
BRANCH  11  13
ATOM     13  O   UNL     1       3.219   2.878  19.933  0.00  0.00    +0.000 OA
BRANCH  13  15
ATOM     14  C   UNL     1       1.036   3.599  20.587  0.00  0.00    +0.000 C 
ATOM     15  C   UNL     1       1.866   2.427  20.092  0.00  0.00    +0.000 C 
ENDBRANCH  13  15
ENDBRANCH  11  13
ENDBRANCH  10  11
ENDBRANCH   9  10
ENDBRANCH   1   9
TORSDOF 5
ENDMDL
MODEL 6
REMARK VINA RESULT:      -5.3      4.658      5.930
REMARK  Name = 
REMARK  6 active torsions:
REMARK  status: ('A' for Active; 'I' for Inactive)
REMARK    1  A    between atoms: C_1  and  C_2
REMARK    2  A    between atoms: C_2  and  O_3
REMARK    3  A    between atoms: O_3  and  C_4
REMARK    4  A    between atoms: C_4  and  C_6
REMARK    5  A    between atoms: C_6  and  C_7
REMARK    6  A    between atoms: C_7  and  N_8
REMARK                            x       y       z     vdW  Elec       q    Type
REMARK                         _______ _______ _______ _____ _____    ______ ____
ROOT
ATOM      1  N   UNL     1       4.439   3.973  17.669  0.00  0.00    +0.000 N 
ATOM      2  N   UNL     1       4.736   4.229  18.953  0.00  0.00    +0.000 NA
ATOM      3  N   UNL     1       6.044   4.459  18.947  0.00  0.00    +0.000 NA
ATOM      4  C   UNL     1       6.457   4.311  17.652  0.00  0.00    +0.000 A 
ATOM      5  N   UNL     1       7.735   4.491  17.318  0.00  0.00    +0.000 N 
ATOM      6  N   UNL     1       5.471   4.006  16.810  0.00  0.00    +0.000 NA
ATOM      7  H   UNL     1       8.319   5.006  17.963  0.00  0.00    +0.000 HD
ATOM      8  H   UNL     1       7.934   4.657  16.340  0.00  0.00    +0.000 HD
ENDROOT
BRANCH   1   9
ATOM      9  C   UNL     1       3.110   3.592  17.258  0.00  0.00    +0.000 C 
BRANCH   9  10
ATOM     10  C   UNL     1       2.057   4.372  18.026  0.00  0.00    +0.000 C 
BRANCH  10  11
ATOM     11  C   UNL     1       1.196   3.420  18.803  0.00  0.00    +0.000 C 
ATOM     12  O   UNL     1       0.665   2.421  18.343  0.00  0.00    +0.000 OA
BRANCH  11  13
ATOM     13  O   UNL     1       1.034   3.894  20.068  0.00  0.00    +0.000 OA
BRANCH  13  15
ATOM     14  C   UNL     1       2.598   2.797  21.504  0.00  0.00    +0.000 C 
ATOM     15  C   UNL     1       1.135   2.911  21.109  0.00  0.00    +0.000 C 
ENDBRANCH  13  15
ENDBRANCH  11  13
ENDBRANCH  10  11
ENDBRANCH   9  10
ENDBRANCH   1   9
TORSDOF 5
ENDMDL
MODEL 7
REMARK VINA RESULT:      -5.3      4.159      5.390
REMARK  Name = 
REMARK  6 active torsions:
REMARK  status: ('A' for Active; 'I' for Inactive)
REMARK    1  A    between atoms: C_1  and  C_2
REMARK    2  A    between atoms: C_2  and  O_3
REMARK    3  A    between atoms: O_3  and  C_4
REMARK    4  A    between atoms: C_4  and  C_6
REMARK    5  A    between atoms: C_6  and  C_7
REMARK    6  A    between atoms: C_7  and  N_8
REMARK                            x       y       z     vdW  Elec       q    Type
REMARK                         _______ _______ _______ _____ _____    ______ ____
ROOT
ATOM      1  N   UNL     1       5.647   5.384  18.820  0.00  0.00    +0.000 N 
ATOM      2  N   UNL     1       6.750   5.296  19.581  0.00  0.00    +0.000 NA
ATOM      3  N   UNL     1       7.633   6.077  18.970  0.00  0.00    +0.000 NA
ATOM      4  C   UNL     1       7.007   6.577  17.863  0.00  0.00    +0.000 A 
ATOM      5  N   UNL     1       7.639   7.413  17.039  0.00  0.00    +0.000 N 
ATOM      6  N   UNL     1       5.747   6.165  17.732  0.00  0.00    +0.000 NA
ATOM      7  H   UNL     1       8.462   7.884  17.392  0.00  0.00    +0.000 HD
ATOM      8  H   UNL     1       7.064   7.970  16.421  0.00  0.00    +0.000 HD
ENDROOT
BRANCH   1   9
ATOM      9  C   UNL     1       4.463   4.610  19.104  0.00  0.00    +0.000 C 
BRANCH   9  10
ATOM     10  C   UNL     1       3.590   4.476  17.869  0.00  0.00    +0.000 C 
BRANCH  10  11
ATOM     11  C   UNL     1       2.157   4.317  18.284  0.00  0.00    +0.000 C 
ATOM     12  O   UNL     1       1.246   3.983  17.542  0.00  0.00    +0.000 OA
BRANCH  11  13
ATOM     13  O   UNL     1       2.024   4.688  19.586  0.00  0.00    +0.000 OA
BRANCH  13  15
ATOM     14  C   UNL     1       1.444   2.953  21.123  0.00  0.00    +0.000 C 
ATOM     15  C   UNL     1       0.914   4.100  20.281  0.00  0.00    +0.000 C 
ENDBRANCH  13  15
ENDBRANCH  11  13
ENDBRANCH  10  11
ENDBRANCH   9  10
ENDBRANCH   1   9
TORSDOF 5
ENDMDL
MODEL 8
REMARK VINA RESULT:      -5.3      4.039      5.092
REMARK  Name = 
REMARK  6 active torsions:
REMARK  status: ('A' for Active; 'I' for Inactive)
REMARK    1  A    between atoms: C_1  and  C_2
REMARK    2  A    between atoms: C_2  and  O_3
REMARK    3  A    between atoms: O_3  and  C_4
REMARK    4  A    between atoms: C_4  and  C_6
REMARK    5  A    between atoms: C_6  and  C_7
REMARK    6  A    between atoms: C_7  and  N_8
REMARK                            x       y       z     vdW  Elec       q    Type
REMARK                         _______ _______ _______ _____ _____    ______ ____
ROOT
ATOM      1  N   UNL     1       5.646   4.532  18.917  0.00  0.00    +0.000 N 
ATOM      2  N   UNL     1       6.730   4.977  19.573  0.00  0.00    +0.000 NA
ATOM      3  N   UNL     1       7.669   5.056  18.638  0.00  0.00    +0.000 NA
ATOM      4  C   UNL     1       7.092   4.635  17.473  0.00  0.00    +0.000 A 
ATOM      5  N   UNL     1       7.788   4.609  16.336  0.00  0.00    +0.000 N 
ATOM      6  N   UNL     1       5.811   4.296  17.605  0.00  0.00    +0.000 NA
ATOM      7  H   UNL     1       8.633   5.163  16.292  0.00  0.00    +0.000 HD
ATOM      8  H   UNL     1       7.258   4.576  15.475  0.00  0.00    +0.000 HD
ENDROOT
BRANCH   1   9
ATOM      9  C   UNL     1       4.412   4.234  19.602  0.00  0.00    +0.000 C 
BRANCH   9  10
ATOM     10  C   UNL     1       4.342   2.767  19.988  0.00  0.00    +0.000 C 
BRANCH  10  11
ATOM     11  C   UNL     1       3.315   2.075  19.141  0.00  0.00    +0.000 C 
ATOM     12  O   UNL     1       3.563   1.381  18.167  0.00  0.00    +0.000 OA
BRANCH  11  13
ATOM     13  O   UNL     1       2.072   2.413  19.578  0.00  0.00    +0.000 OA
BRANCH  13  15
ATOM     14  C   UNL     1       1.359   4.002  17.942  0.00  0.00    +0.000 C 
ATOM     15  C   UNL     1       1.098   2.634  18.548  0.00  0.00    +0.000 C 
ENDBRANCH  13  15
ENDBRANCH  11  13
ENDBRANCH  10  11
ENDBRANCH   9  10
ENDBRANCH   1   9
TORSDOF 5
ENDMDL
MODEL 9
REMARK VINA RESULT:      -5.3      3.773      5.084
REMARK  Name = 
REMARK  6 active torsions:
REMARK  status: ('A' for Active; 'I' for Inactive)
REMARK    1  A    between atoms: C_1  and  C_2
REMARK    2  A    between atoms: C_2  and  O_3
REMARK    3  A    between atoms: O_3  and  C_4
REMARK    4  A    between atoms: C_4  and  C_6
REMARK    5  A    between atoms: C_6  and  C_7
REMARK    6  A    between atoms: C_7  and  N_8
REMARK                            x       y       z     vdW  Elec       q    Type
REMARK                         _______ _______ _______ _____ _____    ______ ____
ROOT
ATOM      1  N   UNL     1       6.555   4.821  16.626  0.00  0.00    +0.000 N 
ATOM      2  N   UNL     1       7.381   5.670  15.992  0.00  0.00    +0.000 NA
ATOM      3  N   UNL     1       7.359   5.266  14.728  0.00  0.00    +0.000 NA
ATOM      4  C   UNL     1       6.528   4.182  14.682  0.00  0.00    +0.000 A 
ATOM      5  N   UNL     1       6.290   3.551  13.532  0.00  0.00    +0.000 N 
ATOM      6  N   UNL     1       5.995   3.868  15.862  0.00  0.00    +0.000 NA
ATOM      7  H   UNL     1       6.496   4.047  12.675  0.00  0.00    +0.000 HD
ATOM      8  H   UNL     1       5.469   2.962  13.493  0.00  0.00    +0.000 HD
ENDROOT
BRANCH   1   9
ATOM      9  C   UNL     1       6.360   4.874  18.054  0.00  0.00    +0.000 C 
BRANCH   9  10
ATOM     10  C   UNL     1       5.153   4.053  18.470  0.00  0.00    +0.000 C 
BRANCH  10  11
ATOM     11  C   UNL     1       3.970   4.958  18.654  0.00  0.00    +0.000 C 
ATOM     12  O   UNL     1       3.815   5.724  19.592  0.00  0.00    +0.000 OA
BRANCH  11  13
ATOM     13  O   UNL     1       3.069   4.723  17.662  0.00  0.00    +0.000 OA
BRANCH  13  15
ATOM     14  C   UNL     1       1.612   2.921  18.247  0.00  0.00    +0.000 C 
ATOM     15  C   UNL     1       1.735   4.428  18.103  0.00  0.00    +0.000 C 
ENDBRANCH  13  15
ENDBRANCH  11  13
ENDBRANCH  10  11
ENDBRANCH   9  10
ENDBRANCH   1   9
TORSDOF 5
ENDMDL
