MODEL 1
REMARK VINA RESULT:      -6.0      0.000      0.000
REMARK  Name = 
REMARK  7 active torsions:
REMARK  status: ('A' for Active; 'I' for Inactive)
REMARK    1  A    between atoms: C_1  and  C_2
REMARK    2  A    between atoms: C_4  and  C_5
REMARK    3  A    between atoms: C_5  and  C_6
REMARK    4  A    between atoms: C_5  and  C_7
REMARK    5  A    between atoms: C_14  and  C_15
REMARK    6  A    between atoms: C_15  and  C_16
REMARK    7  A    between atoms: C_15  and  C_17
REMARK                            x       y       z     vdW  Elec       q    Type
REMARK                         _______ _______ _______ _____ _____    ______ ____
ROOT
ATOM      1  C   UNL     1       3.218   8.656  17.439  0.00  0.00    +0.000 C 
ATOM      2  C   UNL     1       3.386   7.201  17.757  0.00  0.00    +0.000 A 
ATOM      3  C   UNL     1       2.696   6.590  18.784  0.00  0.00    +0.000 A 
ATOM      4  C   UNL     1       2.884   5.229  19.130  0.00  0.00    +0.000 A 
ATOM      5  N   UNL     1       3.781   4.458  18.392  0.00  0.00    +0.000 N 
ATOM      6  C   UNL     1       3.969   3.080  18.668  0.00  0.00    +0.000 A 
ATOM      7  C   UNL     1       4.141   2.451  19.931  0.00  0.00    +0.000 A 
ATOM      8  C   UNL     1       4.259   1.106  19.673  0.00  0.00    +0.000 A 
ATOM      9  N   UNL     1       4.266   0.993  18.316  0.00  0.00    +0.000 N 
ATOM     10  N   UNL     1       4.049   2.157  17.695  0.00  0.00    +0.000 NA
ATOM     11  C   UNL     1       4.472   5.046  17.329  0.00  0.00    +0.000 A 
ATOM     12  C   UNL     1       4.258   6.414  17.033  0.00  0.00    +0.000 A 
ATOM     13  H   UNL     1       4.419   0.153  17.757  0.00  0.00    +0.000 HD
ENDROOT
BRANCH   4  14
ATOM     14  C   UNL     1       1.974   4.671  20.242  0.00  0.00    +0.000 C 
ATOM     15  C   UNL     1       1.339   5.740  21.157  0.00  0.00    +0.000 C 
ATOM     16  C   UNL     1       0.887   3.757  19.677  0.00  0.00    +0.000 C 
ENDBRANCH   4  14
BRANCH  11  17
ATOM     17  C   UNL     1       5.485   4.299  16.442  0.00  0.00    +0.000 C 
ATOM     18  C   UNL     1       5.354   4.743  14.977  0.00  0.00    +0.000 C 
ATOM     19  C   UNL     1       6.963   4.468  16.861  0.00  0.00    +0.000 C 
ENDBRANCH  11  17
TORSDOF 2
ENDMDL
MODEL 2
REMARK VINA RESULT:      -5.9      0.840      4.031
REMARK  Name = 
REMARK  7 active torsions:
REMARK  status: ('A' for Active; 'I' for Inactive)
REMARK    1  A    between atoms: C_1  and  C_2
REMARK    2  A    between atoms: C_4  and  C_5
REMARK    3  A    between atoms: C_5  and  C_6
REMARK    4  A    between atoms: C_5  and  C_7
REMARK    5  A    between atoms: C_14  and  C_15
REMARK    6  A    between atoms: C_15  and  C_16
REMARK    7  A    between atoms: C_15  and  C_17
REMARK                            x       y       z     vdW  Elec       q    Type
REMARK                         _______ _______ _______ _____ _____    ______ ____
ROOT
ATOM      1  C   UNL     1       2.895   8.916  17.528  0.00  0.00    +0.000 C 
ATOM      2  C   UNL     1       3.186   7.472  17.806  0.00  0.00    +0.000 A 
ATOM      3  C   UNL     1       4.065   6.739  17.036  0.00  0.00    +0.000 A 
ATOM      4  C   UNL     1       4.310   5.361  17.254  0.00  0.00    +0.000 A 
ATOM      5  N   UNL     1       3.660   4.714  18.304  0.00  0.00    +0.000 N 
ATOM      6  C   UNL     1       3.908   3.348  18.593  0.00  0.00    +0.000 A 
ATOM      7  C   UNL     1       3.981   2.255  17.686  0.00  0.00    +0.000 A 
ATOM      8  C   UNL     1       4.265   1.148  18.448  0.00  0.00    +0.000 A 
ATOM      9  N   UNL     1       4.242   1.575  19.741  0.00  0.00    +0.000 N 
ATOM     10  N   UNL     1       4.074   2.898  19.848  0.00  0.00    +0.000 NA
ATOM     11  C   UNL     1       2.786   5.440  19.116  0.00  0.00    +0.000 A 
ATOM     12  C   UNL     1       2.566   6.812  18.848  0.00  0.00    +0.000 A 
ATOM     13  H   UNL     1       4.329   1.015  20.588  0.00  0.00    +0.000 HD
ENDROOT
BRANCH   4  14
ATOM     14  C   UNL     1       5.386   4.706  16.366  0.00  0.00    +0.000 C 
ATOM     15  C   UNL     1       5.458   5.252  14.924  0.00  0.00    +0.000 C 
ATOM     16  C   UNL     1       6.769   4.768  17.016  0.00  0.00    +0.000 C 
ENDBRANCH   4  14
BRANCH  11  17
ATOM     17  C   UNL     1       2.013   4.838  20.305  0.00  0.00    +0.000 C 
ATOM     18  C   UNL     1       1.396   5.949  21.169  0.00  0.00    +0.000 C 
ATOM     19  C   UNL     1       0.886   3.856  19.916  0.00  0.00    +0.000 C 
ENDBRANCH  11  17
TORSDOF 2
ENDMDL
MODEL 3
REMARK VINA RESULT:      -5.8      0.713      1.073
REMARK  Name = 
REMARK  7 active torsions:
REMARK  status: ('A' for Active; 'I' for Inactive)
REMARK    1  A    between atoms: C_1  and  C_2
REMARK    2  A    between atoms: C_4  and  C_5
REMARK    3  A    between atoms: C_5  and  C_6
REMARK    4  A    between atoms: C_5  and  C_7
REMARK    5  A    between atoms: C_14  and  C_15
REMARK    6  A    between atoms: C_15  and  C_16
REMARK    7  A    between atoms: C_15  and  C_17
REMARK                            x       y       z     vdW  Elec       q    Type
REMARK                         _______ _______ _______ _____ _____    ______ ____
ROOT
ATOM      1  C   UNL     1       2.506   8.848  18.080  0.00  0.00    +0.000 C 
ATOM      2  C   UNL     1       2.780   7.380  18.213  0.00  0.00    +0.000 A 
ATOM      3  C   UNL     1       2.090   6.583  19.103  0.00  0.00    +0.000 A 
ATOM      4  C   UNL     1       2.373   5.205  19.276  0.00  0.00    +0.000 A 
ATOM      5  N   UNL     1       3.372   4.615  18.503  0.00  0.00    +0.000 N 
ATOM      6  C   UNL     1       3.660   3.230  18.605  0.00  0.00    +0.000 A 
ATOM      7  C   UNL     1       3.817   2.448  19.782  0.00  0.00    +0.000 A 
ATOM      8  C   UNL     1       4.062   1.166  19.356  0.00  0.00    +0.000 A 
ATOM      9  N   UNL     1       4.152   1.240  17.999  0.00  0.00    +0.000 N 
ATOM     10  N   UNL     1       3.871   2.459  17.525  0.00  0.00    +0.000 NA
ATOM     11  C   UNL     1       4.066   5.394  17.575  0.00  0.00    +0.000 A 
ATOM     12  C   UNL     1       3.754   6.769  17.449  0.00  0.00    +0.000 A 
ATOM     13  H   UNL     1       4.406   0.500  17.345  0.00  0.00    +0.000 HD
ENDROOT
BRANCH   4  14
ATOM     14  C   UNL     1       1.456   4.432  20.243  0.00  0.00    +0.000 C 
ATOM     15  C   UNL     1       0.749   3.207  19.627  0.00  0.00    +0.000 C 
ATOM     16  C   UNL     1       2.196   4.020  21.516  0.00  0.00    +0.000 C 
ENDBRANCH   4  14
BRANCH  11  17
ATOM     17  C   UNL     1       5.186   4.857  16.664  0.00  0.00    +0.000 C 
ATOM     18  C   UNL     1       5.291   5.695  15.380  0.00  0.00    +0.000 C 
ATOM     19  C   UNL     1       6.586   4.807  17.316  0.00  0.00    +0.000 C 
ENDBRANCH  11  17
TORSDOF 2
ENDMDL
MODEL 4
REMARK VINA RESULT:      -5.6      9.032     11.635
REMARK  Name = 
REMARK  7 active torsions:
REMARK  status: ('A' for Active; 'I' for Inactive)
REMARK    1  A    between atoms: C_1  and  C_2
REMARK    2  A    between atoms: C_4  and  C_5
REMARK    3  A    between atoms: C_5  and  C_6
REMARK    4  A    between atoms: C_5  and  C_7
REMARK    5  A    between atoms: C_14  and  C_15
REMARK    6  A    between atoms: C_15  and  C_16
REMARK    7  A    between atoms: C_15  and  C_17
REMARK                            x       y       z     vdW  Elec       q    Type
REMARK                         _______ _______ _______ _____ _____    ______ ____
ROOT
ATOM      1  C   UNL     1      -2.918   9.940  15.362  0.00  0.00    +0.000 C 
ATOM      2  C   UNL     1      -3.158  10.696  16.634  0.00  0.00    +0.000 A 
ATOM      3  C   UNL     1      -2.123  11.199  17.395  0.00  0.00    +0.000 A 
ATOM      4  C   UNL     1      -2.332  11.870  18.625  0.00  0.00    +0.000 A 
ATOM      5  N   UNL     1      -3.635  12.056  19.084  0.00  0.00    +0.000 N 
ATOM      6  C   UNL     1      -3.900  12.763  20.285  0.00  0.00    +0.000 A 
ATOM      7  C   UNL     1      -3.251  12.632  21.544  0.00  0.00    +0.000 A 
ATOM      8  C   UNL     1      -3.850  13.547  22.376  0.00  0.00    +0.000 A 
ATOM      9  N   UNL     1      -4.867  14.092  21.652  0.00  0.00    +0.000 N 
ATOM     10  N   UNL     1      -4.887  13.668  20.383  0.00  0.00    +0.000 NA
ATOM     11  C   UNL     1      -4.703  11.581  18.318  0.00  0.00    +0.000 A 
ATOM     12  C   UNL     1      -4.439  10.906  17.102  0.00  0.00    +0.000 A 
ATOM     13  H   UNL     1      -5.580  14.749  21.968  0.00  0.00    +0.000 HD
ENDROOT
BRANCH   4  14
ATOM     14  C   UNL     1      -1.081  12.452  19.312  0.00  0.00    +0.000 C 
ATOM     15  C   UNL     1      -0.110  11.400  19.889  0.00  0.00    +0.000 C 
ATOM     16  C   UNL     1      -0.325  13.409  18.390  0.00  0.00    +0.000 C 
ENDBRANCH   4  14
BRANCH  11  17
ATOM     17  C   UNL     1      -6.183  11.728  18.718  0.00  0.00    +0.000 C 
ATOM     18  C   UNL     1      -6.985  12.397  17.591  0.00  0.00    +0.000 C 
ATOM     19  C   UNL     1      -6.891  10.404  19.085  0.00  0.00    +0.000 C 
ENDBRANCH  11  17
TORSDOF 2
ENDMDL
MODEL 5
REMARK VINA RESULT:      -5.5      1.418      2.186
REMARK  Name = 
REMARK  7 active torsions:
REMARK  status: ('A' for Active; 'I' for Inactive)
REMARK    1  A    between atoms: C_1  and  C_2
REMARK    2  A    between atoms: C_4  and  C_5
REMARK    3  A    between atoms: C_5  and  C_6
REMARK    4  A    between atoms: C_5  and  C_7
REMARK    5  A    between atoms: C_14  and  C_15
REMARK    6  A    between atoms: C_15  and  C_16
REMARK    7  A    between atoms: C_15  and  C_17
REMARK                            x       y       z     vdW  Elec       q    Type
REMARK                         _______ _______ _______ _____ _____    ______ ____
ROOT
ATOM      1  C   UNL     1       1.530   8.427  20.588  0.00  0.00    +0.000 C 
ATOM      2  C   UNL     1       1.992   7.083  20.113  0.00  0.00    +0.000 A 
ATOM      3  C   UNL     1       1.381   5.913  20.514  0.00  0.00    +0.000 A 
ATOM      4  C   UNL     1       1.839   4.633  20.114  0.00  0.00    +0.000 A 
ATOM      5  N   UNL     1       2.937   4.541  19.261  0.00  0.00    +0.000 N 
ATOM      6  C   UNL     1       3.404   3.286  18.795  0.00  0.00    +0.000 A 
ATOM      7  C   UNL     1       3.617   2.094  19.540  0.00  0.00    +0.000 A 
ATOM      8  C   UNL     1       4.049   1.153  18.637  0.00  0.00    +0.000 A 
ATOM      9  N   UNL     1       4.182   1.814  17.454  0.00  0.00    +0.000 N 
ATOM     10  N   UNL     1       3.759   3.081  17.515  0.00  0.00    +0.000 NA
ATOM     11  C   UNL     1       3.557   5.711  18.818  0.00  0.00    +0.000 A 
ATOM     12  C   UNL     1       3.068   6.966  19.257  0.00  0.00    +0.000 A 
ATOM     13  H   UNL     1       4.559   1.458  16.575  0.00  0.00    +0.000 HD
ENDROOT
BRANCH   4  14
ATOM     14  C   UNL     1       0.995   3.427  20.574  0.00  0.00    +0.000 C 
ATOM     15  C   UNL     1       0.586   2.455  19.448  0.00  0.00    +0.000 C 
ATOM     16  C   UNL     1       1.680   2.657  21.703  0.00  0.00    +0.000 C 
ENDBRANCH   4  14
BRANCH  11  17
ATOM     17  C   UNL     1       4.774   5.739  17.875  0.00  0.00    +0.000 C 
ATOM     18  C   UNL     1       4.735   6.983  16.975  0.00  0.00    +0.000 C 
ATOM     19  C   UNL     1       6.146   5.706  18.584  0.00  0.00    +0.000 C 
ENDBRANCH  11  17
TORSDOF 2
ENDMDL
MODEL 6
REMARK VINA RESULT:      -5.5      9.035     11.323
REMARK  Name = 
REMARK  7 active torsions:
REMARK  status: ('A' for Active; 'I' for Inactive)
REMARK    1  A    between atoms: C_1  and  C_2
REMARK    2  A    between atoms: C_4  and  C_5
REMARK    3  A    between atoms: C_5  and  C_6
REMARK    4  A    between atoms: C_5  and  C_7
REMARK    5  A    between atoms: C_14  and  C_15
REMARK    6  A    between atoms: C_15  and  C_16
REMARK    7  A    between atoms: C_15  and  C_17
REMARK                            x       y       z     vdW  Elec       q    Type
REMARK                         _______ _______ _______ _____ _____    ______ ____
ROOT
ATOM      1  C   UNL     1      -2.711  10.056  15.547  0.00  0.00    +0.000 C 
ATOM      2  C   UNL     1      -3.071  10.751  16.826  0.00  0.00    +0.000 A 
ATOM      3  C   UNL     1      -4.380  10.938  17.216  0.00  0.00    +0.000 A 
ATOM      4  C   UNL     1      -4.736  11.639  18.395  0.00  0.00    +0.000 A 
ATOM      5  N   UNL     1      -3.729  12.143  19.215  0.00  0.00    +0.000 N 
ATOM      6  C   UNL     1      -4.032  12.810  20.430  0.00  0.00    +0.000 A 
ATOM      7  C   UNL     1      -5.013  13.812  20.662  0.00  0.00    +0.000 A 
ATOM      8  C   UNL     1      -4.933  14.119  21.999  0.00  0.00    +0.000 A 
ATOM      9  N   UNL     1      -3.878  13.403  22.477  0.00  0.00    +0.000 N 
ATOM     10  N   UNL     1      -3.352  12.579  21.565  0.00  0.00    +0.000 NA
ATOM     11  C   UNL     1      -2.393  11.943  18.857  0.00  0.00    +0.000 A 
ATOM     12  C   UNL     1      -2.091  11.247  17.662  0.00  0.00    +0.000 A 
ATOM     13  H   UNL     1      -3.468  13.438  23.411  0.00  0.00    +0.000 HD
ENDROOT
BRANCH   4  14
ATOM     14  C   UNL     1      -6.238  11.686  18.739  0.00  0.00    +0.000 C 
ATOM     15  C   UNL     1      -7.116  12.433  17.713  0.00  0.00    +0.000 C 
ATOM     16  C   UNL     1      -6.804  10.287  18.988  0.00  0.00    +0.000 C 
ENDBRANCH   4  14
BRANCH  11  17
ATOM     17  C   UNL     1      -1.194  12.449  19.682  0.00  0.00    +0.000 C 
ATOM     18  C   UNL     1      -0.167  11.326  19.892  0.00  0.00    +0.000 C 
ATOM     19  C   UNL     1      -0.455  13.663  19.074  0.00  0.00    +0.000 C 
ENDBRANCH  11  17
TORSDOF 2
ENDMDL
MODEL 7
REMARK VINA RESULT:      -5.3     10.291     12.643
REMARK  Name = 
REMARK  7 active torsions:
REMARK  status: ('A' for Active; 'I' for Inactive)
REMARK    1  A    between atoms: C_1  and  C_2
REMARK    2  A    between atoms: C_4  and  C_5
REMARK    3  A    between atoms: C_5  and  C_6
REMARK    4  A    between atoms: C_5  and  C_7
REMARK    5  A    between atoms: C_14  and  C_15
REMARK    6  A    between atoms: C_15  and  C_16
REMARK    7  A    between atoms: C_15  and  C_17
REMARK                            x       y       z     vdW  Elec       q    Type
REMARK                         _______ _______ _______ _____ _____    ______ ____
ROOT
ATOM      1  C   UNL     1      -2.377  11.555  17.732  0.00  0.00    +0.000 C 
ATOM      2  C   UNL     1      -3.188  11.914  18.941  0.00  0.00    +0.000 A 
ATOM      3  C   UNL     1      -4.567  11.956  18.914  0.00  0.00    +0.000 A 
ATOM      4  C   UNL     1      -5.344  12.344  20.033  0.00  0.00    +0.000 A 
ATOM      5  N   UNL     1      -4.700  12.677  21.224  0.00  0.00    +0.000 N 
ATOM      6  C   UNL     1      -5.434  13.025  22.386  0.00  0.00    +0.000 A 
ATOM      7  C   UNL     1      -6.544  13.908  22.494  0.00  0.00    +0.000 A 
ATOM      8  C   UNL     1      -6.914  13.893  23.817  0.00  0.00    +0.000 A 
ATOM      9  N   UNL     1      -5.985  13.123  24.449  0.00  0.00    +0.000 N 
ATOM     10  N   UNL     1      -5.116  12.557  23.605  0.00  0.00    +0.000 NA
ATOM     11  C   UNL     1      -3.306  12.616  21.286  0.00  0.00    +0.000 A 
ATOM     12  C   UNL     1      -2.575  12.234  20.135  0.00  0.00    +0.000 A 
ATOM     13  H   UNL     1      -5.890  12.951  25.450  0.00  0.00    +0.000 HD
ENDROOT
BRANCH   4  14
ATOM     14  C   UNL     1      -6.874  12.253  19.872  0.00  0.00    +0.000 C 
ATOM     15  C   UNL     1      -7.405  12.663  18.482  0.00  0.00    +0.000 C 
ATOM     16  C   UNL     1      -7.399  10.866  20.242  0.00  0.00    +0.000 C 
ENDBRANCH   4  14
BRANCH  11  17
ATOM     17  C   UNL     1      -2.483  12.956  22.543  0.00  0.00    +0.000 C 
ATOM     18  C   UNL     1      -1.551  11.792  22.913  0.00  0.00    +0.000 C 
ATOM     19  C   UNL     1      -1.624  14.236  22.430  0.00  0.00    +0.000 C 
ENDBRANCH  11  17
TORSDOF 2
ENDMDL
MODEL 8
REMARK VINA RESULT:      -5.3      8.320     10.731
REMARK  Name = 
REMARK  7 active torsions:
REMARK  status: ('A' for Active; 'I' for Inactive)
REMARK    1  A    between atoms: C_1  and  C_2
REMARK    2  A    between atoms: C_4  and  C_5
REMARK    3  A    between atoms: C_5  and  C_6
REMARK    4  A    between atoms: C_5  and  C_7
REMARK    5  A    between atoms: C_14  and  C_15
REMARK    6  A    between atoms: C_15  and  C_16
REMARK    7  A    between atoms: C_15  and  C_17
REMARK                            x       y       z     vdW  Elec       q    Type
REMARK                         _______ _______ _______ _____ _____    ______ ____
ROOT
ATOM      1  C   UNL     1      -2.995  13.354  23.603  0.00  0.00    +0.000 C 
ATOM      2  C   UNL     1      -3.020  12.910  22.171  0.00  0.00    +0.000 A 
ATOM      3  C   UNL     1      -4.171  12.944  21.413  0.00  0.00    +0.000 A 
ATOM      4  C   UNL     1      -4.222  12.479  20.075  0.00  0.00    +0.000 A 
ATOM      5  N   UNL     1      -3.060  11.987  19.483  0.00  0.00    +0.000 N 
ATOM      6  C   UNL     1      -3.048  11.554  18.133  0.00  0.00    +0.000 A 
ATOM      7  C   UNL     1      -3.991  10.725  17.466  0.00  0.00    +0.000 A 
ATOM      8  C   UNL     1      -3.551  10.617  16.169  0.00  0.00    +0.000 A 
ATOM      9  N   UNL     1      -2.353  11.264  16.132  0.00  0.00    +0.000 N 
ATOM     10  N   UNL     1      -2.054  11.871  17.286  0.00  0.00    +0.000 NA
ATOM     11  C   UNL     1      -1.874  11.967  20.221  0.00  0.00    +0.000 A 
ATOM     12  C   UNL     1      -1.880  12.431  21.558  0.00  0.00    +0.000 A 
ATOM     13  H   UNL     1      -1.695  11.322  15.355  0.00  0.00    +0.000 HD
ENDROOT
BRANCH   4  14
ATOM     14  C   UNL     1      -5.560  12.668  19.333  0.00  0.00    +0.000 C 
ATOM     15  C   UNL     1      -6.687  11.712  19.775  0.00  0.00    +0.000 C 
ATOM     16  C   UNL     1      -6.046  14.115  19.406  0.00  0.00    +0.000 C 
ENDBRANCH   4  14
BRANCH  11  17
ATOM     17  C   UNL     1      -0.529  11.450  19.677  0.00  0.00    +0.000 C 
ATOM     18  C   UNL     1       0.631  12.325  20.177  0.00  0.00    +0.000 C 
ATOM     19  C   UNL     1      -0.206   9.982  20.033  0.00  0.00    +0.000 C 
ENDBRANCH  11  17
TORSDOF 2
ENDMDL
MODEL 9
REMARK VINA RESULT:      -5.0      9.531     11.797
REMARK  Name = 
REMARK  7 active torsions:
REMARK  status: ('A' for Active; 'I' for Inactive)
REMARK    1  A    between atoms: C_1  and  C_2
REMARK    2  A    between atoms: C_4  and  C_5
REMARK    3  A    between atoms: C_5  and  C_6
REMARK    4  A    between atoms: C_5  and  C_7
REMARK    5  A    between atoms: C_14  and  C_15
REMARK    6  A    between atoms: C_15  and  C_16
REMARK    7  A    between atoms: C_15  and  C_17
REMARK                            x       y       z     vdW  Elec       q    Type
REMARK                         _______ _______ _______ _____ _____    ______ ____
ROOT
ATOM      1  C   UNL     1       0.556  13.018  18.587  0.00  0.00    +0.000 C 
ATOM      2  C   UNL     1      -0.852  12.832  19.067  0.00  0.00    +0.000 A 
ATOM      3  C   UNL     1      -1.766  12.060  18.379  0.00  0.00    +0.000 A 
ATOM      4  C   UNL     1      -3.114  11.918  18.792  0.00  0.00    +0.000 A 
ATOM      5  N   UNL     1      -3.539  12.561  19.954  0.00  0.00    +0.000 N 
ATOM      6  C   UNL     1      -4.864  12.411  20.435  0.00  0.00    +0.000 A 
ATOM      7  C   UNL     1      -6.080  12.479  19.701  0.00  0.00    +0.000 A 
ATOM      8  C   UNL     1      -7.085  12.246  20.608  0.00  0.00    +0.000 A 
ATOM      9  N   UNL     1      -6.472  12.162  21.821  0.00  0.00    +0.000 N 
ATOM     10  N   UNL     1      -5.139  12.214  21.736  0.00  0.00    +0.000 NA
ATOM     11  C   UNL     1      -2.626  13.326  20.684  0.00  0.00    +0.000 A 
ATOM     12  C   UNL     1      -1.293  13.446  20.221  0.00  0.00    +0.000 A 
ATOM     13  H   UNL     1      -6.908  12.075  22.740  0.00  0.00    +0.000 HD
ENDROOT
BRANCH   4  14
ATOM     14  C   UNL     1      -3.986  10.951  17.968  0.00  0.00    +0.000 C 
ATOM     15  C   UNL     1      -4.528  11.533  16.646  0.00  0.00    +0.000 C 
ATOM     16  C   UNL     1      -3.264   9.630  17.699  0.00  0.00    +0.000 C 
ENDBRANCH   4  14
BRANCH  11  17
ATOM     17  C   UNL     1      -2.975  14.079  21.982  0.00  0.00    +0.000 C 
ATOM     18  C   UNL     1      -1.948  13.770  23.082  0.00  0.00    +0.000 C 
ATOM     19  C   UNL     1      -3.069  15.614  21.835  0.00  0.00    +0.000 C 
ENDBRANCH  11  17
TORSDOF 2
ENDMDL
