MODEL 1
REMARK VINA RESULT:      -5.3      0.000      0.000
REMARK  Name = 
REMARK  2 active torsions:
REMARK  status: ('A' for Active; 'I' for Inactive)
REMARK    1  A    between atoms: C_8  and  N_9
REMARK    2  A    between atoms: N_9  and  C_15
REMARK                            x       y       z     vdW  Elec       q    Type
REMARK                         _______ _______ _______ _____ _____    ______ ____
ROOT
ATOM      1  N   UNL     1       8.587  14.457  18.911  0.00  0.00    +0.000 N 
ATOM      2  C   UNL     1       7.232  14.676  18.702  0.00  0.00    +0.000 C 
ATOM      3  N   UNL     1       6.570  14.421  17.594  0.00  0.00    +0.000 NA
ATOM      4  C   UNL     1       5.195  14.889  17.822  0.00  0.00    +0.000 C 
ATOM      5  C   UNL     1       5.071  15.060  19.334  0.00  0.00    +0.000 C 
ATOM      6  N   UNL     1       6.462  15.133  19.736  0.00  0.00    +0.000 N 
ATOM      7  H   UNL     1       6.697  14.768  20.650  0.00  0.00    +0.000 HD
ENDROOT
BRANCH   1  15
ATOM      8 BR   UNL     1       9.351  12.914  21.750  0.00  0.00    +0.000 Br
ATOM      9  C   UNL     1       9.862  14.624  21.065  0.00  0.00    +0.000 A 
ATOM     10  C   UNL     1      10.683  15.352  21.961  0.00  0.00    +0.000 A 
ATOM     11  C   UNL     1      11.011  16.677  21.718  0.00  0.00    +0.000 A 
ATOM     12  C   UNL     1      10.554  17.268  20.555  0.00  0.00    +0.000 A 
ATOM     13  C   UNL     1       9.801  16.532  19.615  0.00  0.00    +0.000 A 
ATOM     14 BR   UNL     1       9.520  17.526  18.004  0.00  0.00    +0.000 Br
ATOM     15  C   UNL     1       9.402  15.182  19.839  0.00  0.00    +0.000 A 
ENDBRANCH   1  15
BRANCH   1  16
ATOM     16  C   UNL     1       9.309  13.629  17.877  0.00  0.00    +0.000 C 
ATOM     17  C   UNL     1      10.783  14.067  17.773  0.00  0.00    +0.000 C 
ATOM     18  C   UNL     1      11.873  13.168  18.326  0.00  0.00    +0.000 C 
ATOM     19  C   UNL     1      11.618  11.676  18.264  0.00  0.00    +0.000 C 
ATOM     20  C   UNL     1      10.195  11.227  18.542  0.00  0.00    +0.000 C 
ATOM     21  C   UNL     1       9.077  12.108  17.981  0.00  0.00    +0.000 C 
ENDBRANCH   1  16
TORSDOF 2
ENDMDL
MODEL 2
REMARK VINA RESULT:      -5.3      0.089      2.163
REMARK  Name = 
REMARK  2 active torsions:
REMARK  status: ('A' for Active; 'I' for Inactive)
REMARK    1  A    between atoms: C_8  and  N_9
REMARK    2  A    between atoms: N_9  and  C_15
REMARK                            x       y       z     vdW  Elec       q    Type
REMARK                         _______ _______ _______ _____ _____    ______ ____
ROOT
ATOM      1  N   UNL     1       8.531  14.407  18.925  0.00  0.00    +0.000 N 
ATOM      2  C   UNL     1       7.181  14.644  18.707  0.00  0.00    +0.000 C 
ATOM      3  N   UNL     1       6.517  14.377  17.602  0.00  0.00    +0.000 NA
ATOM      4  C   UNL     1       5.150  14.874  17.816  0.00  0.00    +0.000 C 
ATOM      5  C   UNL     1       5.025  15.080  19.323  0.00  0.00    +0.000 C 
ATOM      6  N   UNL     1       6.415  15.137  19.728  0.00  0.00    +0.000 N 
ATOM      7  H   UNL     1       6.641  14.789  20.650  0.00  0.00    +0.000 HD
ENDROOT
BRANCH   1  15
ATOM      8 BR   UNL     1       9.525  17.425  17.959  0.00  0.00    +0.000 Br
ATOM      9  C   UNL     1       9.803  16.466  19.590  0.00  0.00    +0.000 A 
ATOM     10  C   UNL     1      10.603  17.176  20.516  0.00  0.00    +0.000 A 
ATOM     11  C   UNL     1      11.057  16.577  21.680  0.00  0.00    +0.000 A 
ATOM     12  C   UNL     1      10.677  15.274  21.945  0.00  0.00    +0.000 A 
ATOM     13  C   UNL     1       9.814  14.579  21.069  0.00  0.00    +0.000 A 
ATOM     14 BR   UNL     1       9.264  12.902  21.807  0.00  0.00    +0.000 Br
ATOM     15  C   UNL     1       9.356  15.137  19.840  0.00  0.00    +0.000 A 
ENDBRANCH   1  15
BRANCH   1  16
ATOM     16  C   UNL     1       9.242  13.544  17.912  0.00  0.00    +0.000 C 
ATOM     17  C   UNL     1      10.699  14.013  17.736  0.00  0.00    +0.000 C 
ATOM     18  C   UNL     1      11.830  13.172  18.299  0.00  0.00    +0.000 C 
ATOM     19  C   UNL     1      11.614  11.672  18.322  0.00  0.00    +0.000 C 
ATOM     20  C   UNL     1      10.212  11.203  18.670  0.00  0.00    +0.000 C 
ATOM     21  C   UNL     1       9.054  12.025  18.102  0.00  0.00    +0.000 C 
ENDBRANCH   1  16
TORSDOF 2
ENDMDL
MODEL 3
REMARK VINA RESULT:      -5.1      2.358      3.870
REMARK  Name = 
REMARK  2 active torsions:
REMARK  status: ('A' for Active; 'I' for Inactive)
REMARK    1  A    between atoms: C_8  and  N_9
REMARK    2  A    between atoms: N_9  and  C_15
REMARK                            x       y       z     vdW  Elec       q    Type
REMARK                         _______ _______ _______ _____ _____    ______ ____
ROOT
ATOM      1  N   UNL     1      10.124  14.913  19.163  0.00  0.00    +0.000 N 
ATOM      2  C   UNL     1      10.794  15.962  18.549  0.00  0.00    +0.000 C 
ATOM      3  N   UNL     1      12.069  15.979  18.224  0.00  0.00    +0.000 NA
ATOM      4  C   UNL     1      12.333  17.319  17.678  0.00  0.00    +0.000 C 
ATOM      5  C   UNL     1      10.960  17.904  17.359  0.00  0.00    +0.000 C 
ATOM      6  N   UNL     1      10.091  17.071  18.166  0.00  0.00    +0.000 N 
ATOM      7  H   UNL     1       9.160  16.897  17.812  0.00  0.00    +0.000 HD
ENDROOT
BRANCH   1  15
ATOM      8 BR   UNL     1      10.584  16.018  22.261  0.00  0.00    +0.000 Br
ATOM      9  C   UNL     1       8.991  15.573  21.302  0.00  0.00    +0.000 A 
ATOM     10  C   UNL     1       7.820  15.717  22.085  0.00  0.00    +0.000 A 
ATOM     11  C   UNL     1       6.589  15.279  21.623  0.00  0.00    +0.000 A 
ATOM     12  C   UNL     1       6.516  14.731  20.357  0.00  0.00    +0.000 A 
ATOM     13  C   UNL     1       7.660  14.653  19.533  0.00  0.00    +0.000 A 
ATOM     14 BR   UNL     1       7.215  14.085  17.761  0.00  0.00    +0.000 Br
ATOM     15  C   UNL     1       8.955  15.050  19.979  0.00  0.00    +0.000 A 
ENDBRANCH   1  15
BRANCH   1  16
ATOM     16  C   UNL     1      10.849  13.592  19.237  0.00  0.00    +0.000 C 
ATOM     17  C   UNL     1      10.548  12.888  20.574  0.00  0.00    +0.000 C 
ATOM     18  C   UNL     1       9.648  11.667  20.592  0.00  0.00    +0.000 C 
ATOM     19  C   UNL     1       9.689  10.776  19.368  0.00  0.00    +0.000 C 
ATOM     20  C   UNL     1       9.809  11.482  18.029  0.00  0.00    +0.000 C 
ATOM     21  C   UNL     1      10.723  12.707  17.980  0.00  0.00    +0.000 C 
ENDBRANCH   1  16
TORSDOF 2
ENDMDL
MODEL 4
REMARK VINA RESULT:      -5.1      2.414      3.622
REMARK  Name = 
REMARK  2 active torsions:
REMARK  status: ('A' for Active; 'I' for Inactive)
REMARK    1  A    between atoms: C_8  and  N_9
REMARK    2  A    between atoms: N_9  and  C_15
REMARK                            x       y       z     vdW  Elec       q    Type
REMARK                         _______ _______ _______ _____ _____    ______ ____
ROOT
ATOM      1  N   UNL     1       9.385  14.137  20.601  0.00  0.00    +0.000 N 
ATOM      2  C   UNL     1       9.004  14.170  21.935  0.00  0.00    +0.000 C 
ATOM      3  N   UNL     1       8.544  13.152  22.632  0.00  0.00    +0.000 NA
ATOM      4  C   UNL     1       8.204  13.686  23.959  0.00  0.00    +0.000 C 
ATOM      5  C   UNL     1       8.913  15.035  24.046  0.00  0.00    +0.000 C 
ATOM      6  N   UNL     1       9.167  15.325  22.649  0.00  0.00    +0.000 N 
ATOM      7  H   UNL     1       9.999  15.858  22.433  0.00  0.00    +0.000 HD
ENDROOT
BRANCH   1  15
ATOM      8 BR   UNL     1       6.411  15.124  19.501  0.00  0.00    +0.000 Br
ATOM      9  C   UNL     1       8.163  15.835  19.215  0.00  0.00    +0.000 A 
ATOM     10  C   UNL     1       8.166  16.958  18.353  0.00  0.00    +0.000 A 
ATOM     11  C   UNL     1       9.353  17.504  17.890  0.00  0.00    +0.000 A 
ATOM     12  C   UNL     1      10.545  16.954  18.321  0.00  0.00    +0.000 A 
ATOM     13  C   UNL     1      10.559  15.884  19.242  0.00  0.00    +0.000 A 
ATOM     14 BR   UNL     1      12.333  15.496  19.844  0.00  0.00    +0.000 Br
ATOM     15  C   UNL     1       9.366  15.262  19.714  0.00  0.00    +0.000 A 
ENDBRANCH   1  15
BRANCH   1  16
ATOM     16  C   UNL     1       9.525  12.776  19.965  0.00  0.00    +0.000 C 
ATOM     17  C   UNL     1       9.324  12.872  18.441  0.00  0.00    +0.000 C 
ATOM     18  C   UNL     1      10.518  12.720  17.517  0.00  0.00    +0.000 C 
ATOM     19  C   UNL     1      11.624  11.795  17.984  0.00  0.00    +0.000 C 
ATOM     20  C   UNL     1      11.943  11.829  19.467  0.00  0.00    +0.000 C 
ATOM     21  C   UNL     1      10.756  11.966  20.422  0.00  0.00    +0.000 C 
ENDBRANCH   1  16
TORSDOF 2
ENDMDL
MODEL 5
REMARK VINA RESULT:      -5.0      7.298     10.805
REMARK  Name = 
REMARK  2 active torsions:
REMARK  status: ('A' for Active; 'I' for Inactive)
REMARK    1  A    between atoms: C_8  and  N_9
REMARK    2  A    between atoms: N_9  and  C_15
REMARK                            x       y       z     vdW  Elec       q    Type
REMARK                         _______ _______ _______ _____ _____    ______ ____
ROOT
ATOM      1  N   UNL     1       0.082  12.749  20.164  0.00  0.00    +0.000 N 
ATOM      2  C   UNL     1       1.304  13.348  19.890  0.00  0.00    +0.000 C 
ATOM      3  N   UNL     1       1.593  14.061  18.822  0.00  0.00    +0.000 NA
ATOM      4  C   UNL     1       3.017  14.412  18.938  0.00  0.00    +0.000 C 
ATOM      5  C   UNL     1       3.380  14.153  20.398  0.00  0.00    +0.000 C 
ATOM      6  N   UNL     1       2.308  13.272  20.816  0.00  0.00    +0.000 N 
ATOM      7  H   UNL     1       2.016  13.329  21.782  0.00  0.00    +0.000 HD
ENDROOT
BRANCH   1  15
ATOM      8 BR   UNL     1      -1.248  13.224  23.170  0.00  0.00    +0.000 Br
ATOM      9  C   UNL     1      -0.715  11.628  22.263  0.00  0.00    +0.000 A 
ATOM     10  C   UNL     1      -0.899  10.463  23.046  0.00  0.00    +0.000 A 
ATOM     11  C   UNL     1      -0.413   9.234  22.629  0.00  0.00    +0.000 A 
ATOM     12  C   UNL     1       0.226   9.156  21.405  0.00  0.00    +0.000 A 
ATOM     13  C   UNL     1       0.348  10.293  20.578  0.00  0.00    +0.000 A 
ATOM     14 BR   UNL     1       1.046   9.839  18.856  0.00  0.00    +0.000 Br
ATOM     15  C   UNL     1      -0.098  11.586  20.980  0.00  0.00    +0.000 A 
ENDBRANCH   1  15
BRANCH   1  16
ATOM     16  C   UNL     1      -1.084  13.156  19.298  0.00  0.00    +0.000 C 
ATOM     17  C   UNL     1      -1.317  12.115  18.187  0.00  0.00    +0.000 C 
ATOM     18  C   UNL     1      -2.520  11.193  18.264  0.00  0.00    +0.000 C 
ATOM     19  C   UNL     1      -3.766  11.757  18.918  0.00  0.00    +0.000 C 
ATOM     20  C   UNL     1      -3.543  12.647  20.127  0.00  0.00    +0.000 C 
ATOM     21  C   UNL     1      -2.346  13.597  20.068  0.00  0.00    +0.000 C 
ENDBRANCH   1  16
TORSDOF 2
ENDMDL
MODEL 6
REMARK VINA RESULT:      -5.0      2.445      3.692
REMARK  Name = 
REMARK  2 active torsions:
REMARK  status: ('A' for Active; 'I' for Inactive)
REMARK    1  A    between atoms: C_8  and  N_9
REMARK    2  A    between atoms: N_9  and  C_15
REMARK                            x       y       z     vdW  Elec       q    Type
REMARK                         _______ _______ _______ _____ _____    ______ ____
ROOT
ATOM      1  N   UNL     1       9.331  14.199  20.704  0.00  0.00    +0.000 N 
ATOM      2  C   UNL     1       9.005  14.248  22.052  0.00  0.00    +0.000 C 
ATOM      3  N   UNL     1       8.564  13.242  22.778  0.00  0.00    +0.000 NA
ATOM      4  C   UNL     1       8.284  13.793  24.112  0.00  0.00    +0.000 C 
ATOM      5  C   UNL     1       9.007  15.137  24.156  0.00  0.00    +0.000 C 
ATOM      6  N   UNL     1       9.207  15.409  22.747  0.00  0.00    +0.000 N 
ATOM      7  H   UNL     1      10.033  15.933  22.491  0.00  0.00    +0.000 HD
ENDROOT
BRANCH   1  15
ATOM      8 BR   UNL     1      12.242  15.556  19.858  0.00  0.00    +0.000 Br
ATOM      9  C   UNL     1      10.455  15.955  19.307  0.00  0.00    +0.000 A 
ATOM     10  C   UNL     1      10.388  17.045  18.406  0.00  0.00    +0.000 A 
ATOM     11  C   UNL     1       9.171  17.592  18.030  0.00  0.00    +0.000 A 
ATOM     12  C   UNL     1       8.011  17.023  18.522  0.00  0.00    +0.000 A 
ATOM     13  C   UNL     1       8.059  15.886  19.358  0.00  0.00    +0.000 A 
ATOM     14 BR   UNL     1       6.313  15.174  19.680  0.00  0.00    +0.000 Br
ATOM     15  C   UNL     1       9.286  15.314  19.806  0.00  0.00    +0.000 A 
ENDBRANCH   1  15
BRANCH   1  16
ATOM     16  C   UNL     1       9.432  12.830  20.078  0.00  0.00    +0.000 C 
ATOM     17  C   UNL     1       9.190  12.915  18.559  0.00  0.00    +0.000 C 
ATOM     18  C   UNL     1      10.354  12.737  17.602  0.00  0.00    +0.000 C 
ATOM     19  C   UNL     1      11.460  11.800  18.047  0.00  0.00    +0.000 C 
ATOM     20  C   UNL     1      11.822  11.843  19.520  0.00  0.00    +0.000 C 
ATOM     21  C   UNL     1      10.664  12.006  20.506  0.00  0.00    +0.000 C 
ENDBRANCH   1  16
TORSDOF 2
ENDMDL
MODEL 7
REMARK VINA RESULT:      -5.0      7.431     10.711
REMARK  Name = 
REMARK  2 active torsions:
REMARK  status: ('A' for Active; 'I' for Inactive)
REMARK    1  A    between atoms: C_8  and  N_9
REMARK    2  A    between atoms: N_9  and  C_15
REMARK                            x       y       z     vdW  Elec       q    Type
REMARK                         _______ _______ _______ _____ _____    ______ ____
ROOT
ATOM      1  N   UNL     1       0.325  11.700  19.304  0.00  0.00    +0.000 N 
ATOM      2  C   UNL     1       1.336  12.651  19.252  0.00  0.00    +0.000 C 
ATOM      3  N   UNL     1       1.563  13.483  18.258  0.00  0.00    +0.000 NA
ATOM      4  C   UNL     1       2.775  14.233  18.623  0.00  0.00    +0.000 C 
ATOM      5  C   UNL     1       2.958  14.003  20.120  0.00  0.00    +0.000 C 
ATOM      6  N   UNL     1       2.151  12.819  20.337  0.00  0.00    +0.000 N 
ATOM      7  H   UNL     1       1.703  12.726  21.239  0.00  0.00    +0.000 HD
ENDROOT
BRANCH   1  15
ATOM      8 BR   UNL     1      -1.278  11.691  22.213  0.00  0.00    +0.000 Br
ATOM      9  C   UNL     1      -0.316  10.316  21.296  0.00  0.00    +0.000 A 
ATOM     10  C   UNL     1      -0.267   9.102  22.023  0.00  0.00    +0.000 A 
ATOM     11  C   UNL     1       0.529   8.047  21.604  0.00  0.00    +0.000 A 
ATOM     12  C   UNL     1       1.248   8.186  20.432  0.00  0.00    +0.000 A 
ATOM     13  C   UNL     1       1.147   9.360  19.655  0.00  0.00    +0.000 A 
ATOM     14 BR   UNL     1       2.048   9.175  17.977  0.00  0.00    +0.000 Br
ATOM     15  C   UNL     1       0.376  10.488  20.064  0.00  0.00    +0.000 A 
ENDBRANCH   1  15
BRANCH   1  16
ATOM     16  C   UNL     1      -0.754  11.796  18.254  0.00  0.00    +0.000 C 
ATOM     17  C   UNL     1      -1.068  10.402  17.678  0.00  0.00    +0.000 C 
ATOM     18  C   UNL     1      -2.372   9.718  18.041  0.00  0.00    +0.000 C 
ATOM     19  C   UNL     1      -3.566  10.619  18.286  0.00  0.00    +0.000 C 
ATOM     20  C   UNL     1      -3.284  11.920  19.014  0.00  0.00    +0.000 C 
ATOM     21  C   UNL     1      -1.982  12.639  18.655  0.00  0.00    +0.000 C 
ENDBRANCH   1  16
TORSDOF 2
ENDMDL
MODEL 8
REMARK VINA RESULT:      -5.0      7.291     10.798
REMARK  Name = 
REMARK  2 active torsions:
REMARK  status: ('A' for Active; 'I' for Inactive)
REMARK    1  A    between atoms: C_8  and  N_9
REMARK    2  A    between atoms: N_9  and  C_15
REMARK                            x       y       z     vdW  Elec       q    Type
REMARK                         _______ _______ _______ _____ _____    ______ ____
ROOT
ATOM      1  N   UNL     1       0.101  12.746  20.138  0.00  0.00    +0.000 N 
ATOM      2  C   UNL     1       1.320  13.341  19.848  0.00  0.00    +0.000 C 
ATOM      3  N   UNL     1       1.600  14.044  18.771  0.00  0.00    +0.000 NA
ATOM      4  C   UNL     1       3.025  14.395  18.871  0.00  0.00    +0.000 C 
ATOM      5  C   UNL     1       3.400  14.151  20.330  0.00  0.00    +0.000 C 
ATOM      6  N   UNL     1       2.332  13.275  20.766  0.00  0.00    +0.000 N 
ATOM      7  H   UNL     1       2.048  13.341  21.734  0.00  0.00    +0.000 HD
ENDROOT
BRANCH   1  15
ATOM      8 BR   UNL     1       1.044   9.831  18.856  0.00  0.00    +0.000 Br
ATOM      9  C   UNL     1       0.345  10.287  20.577  0.00  0.00    +0.000 A 
ATOM     10  C   UNL     1       0.180   9.162  21.419  0.00  0.00    +0.000 A 
ATOM     11  C   UNL     1      -0.473   9.267  22.638  0.00  0.00    +0.000 A 
ATOM     12  C   UNL     1      -0.928  10.509  23.038  0.00  0.00    +0.000 A 
ATOM     13  C   UNL     1      -0.701  11.655  22.245  0.00  0.00    +0.000 A 
ATOM     14 BR   UNL     1      -1.216  13.256  23.157  0.00  0.00    +0.000 Br
ATOM     15  C   UNL     1      -0.073  11.591  20.967  0.00  0.00    +0.000 A 
ENDBRANCH   1  15
BRANCH   1  16
ATOM     16  C   UNL     1      -1.073  13.145  19.278  0.00  0.00    +0.000 C 
ATOM     17  C   UNL     1      -1.312  12.096  18.175  0.00  0.00    +0.000 C 
ATOM     18  C   UNL     1      -2.512  11.172  18.267  0.00  0.00    +0.000 C 
ATOM     19  C   UNL     1      -3.754  11.736  18.926  0.00  0.00    +0.000 C 
ATOM     20  C   UNL     1      -3.525  12.634  20.128  0.00  0.00    +0.000 C 
ATOM     21  C   UNL     1      -2.331  13.587  20.055  0.00  0.00    +0.000 C 
ENDBRANCH   1  16
TORSDOF 2
ENDMDL
MODEL 9
REMARK VINA RESULT:      -5.0      7.916     10.531
REMARK  Name = 
REMARK  2 active torsions:
REMARK  status: ('A' for Active; 'I' for Inactive)
REMARK    1  A    between atoms: C_8  and  N_9
REMARK    2  A    between atoms: N_9  and  C_15
REMARK                            x       y       z     vdW  Elec       q    Type
REMARK                         _______ _______ _______ _____ _____    ______ ____
ROOT
ATOM      1  N   UNL     1      -0.682  11.434  19.454  0.00  0.00    +0.000 N 
ATOM      2  C   UNL     1      -1.900  11.256  18.812  0.00  0.00    +0.000 C 
ATOM      3  N   UNL     1      -2.723  12.213  18.438  0.00  0.00    +0.000 NA
ATOM      4  C   UNL     1      -3.905  11.540  17.879  0.00  0.00    +0.000 C 
ATOM      5  C   UNL     1      -3.464  10.103  17.613  0.00  0.00    +0.000 C 
ATOM      6  N   UNL     1      -2.289   9.995  18.455  0.00  0.00    +0.000 N 
ATOM      7  H   UNL     1      -1.550   9.383  18.137  0.00  0.00    +0.000 HD
ENDROOT
BRANCH   1  15
ATOM      8 BR   UNL     1       1.525   9.385  18.054  0.00  0.00    +0.000 Br
ATOM      9  C   UNL     1       0.952   9.575  19.868  0.00  0.00    +0.000 A 
ATOM     10  C   UNL     1       1.568   8.645  20.740  0.00  0.00    +0.000 A 
ATOM     11  C   UNL     1       1.154   8.512  22.056  0.00  0.00    +0.000 A 
ATOM     12  C   UNL     1       0.149   9.340  22.520  0.00  0.00    +0.000 A 
ATOM     13  C   UNL     1      -0.420  10.327  21.685  0.00  0.00    +0.000 A 
ATOM     14 BR   UNL     1      -1.599  11.478  22.657  0.00  0.00    +0.000 Br
ATOM     15  C   UNL     1      -0.059  10.474  20.314  0.00  0.00    +0.000 A 
ENDBRANCH   1  15
BRANCH   1  16
ATOM     16  C   UNL     1      -0.137  12.840  19.502  0.00  0.00    +0.000 C 
ATOM     17  C   UNL     1       0.694  13.050  20.782  0.00  0.00    +0.000 C 
ATOM     18  C   UNL     1       2.205  13.151  20.687  0.00  0.00    +0.000 C 
ATOM     19  C   UNL     1       2.765  13.772  19.423  0.00  0.00    +0.000 C 
ATOM     20  C   UNL     1       2.049  13.422  18.131  0.00  0.00    +0.000 C 
ATOM     21  C   UNL     1       0.523  13.329  18.197  0.00  0.00    +0.000 C 
ENDBRANCH   1  16
TORSDOF 2
ENDMDL
