MODEL 1
REMARK VINA RESULT:      -8.1      0.000      0.000
REMARK  Name = 
REMARK  5 active torsions:
REMARK  status: ('A' for Active; 'I' for Inactive)
REMARK    1  A    between atoms: C_1  and  C_2
REMARK    2  A    between atoms: C_2  and  N_3
REMARK    3  A    between atoms: C_2  and  C_12
REMARK    4  A    between atoms: C_4  and  C_6
REMARK    5  A    between atoms: C_17  and  C_18
REMARK                            x       y       z     vdW  Elec       q    Type
REMARK                         _______ _______ _______ _____ _____    ______ ____
ROOT
ATOM      1  C   UNL     1       1.624   8.413  19.924  0.00  0.00    +0.000 C 
ATOM      2  O   UNL     1       2.266   8.756  18.932  0.00  0.00    +0.000 OA
ATOM      3  N   UNL     1       1.696   7.194  20.568  0.00  0.00    +0.000 N 
ATOM      4  C   UNL     1       2.473   6.180  20.083  0.00  0.00    +0.000 A 
ATOM      5  N   UNL     1       3.344   6.222  19.113  0.00  0.00    +0.000 NA
ATOM      6  C   UNL     1       3.879   4.959  18.898  0.00  0.00    +0.000 A 
ATOM      7  C   UNL     1       3.361   3.972  19.716  0.00  0.00    +0.000 A 
ATOM      8  S   UNL     1       2.244   4.663  20.829  0.00  0.00    +0.000 S 
ATOM      9  H   UNL     1       1.163   7.018  21.410  0.00  0.00    +0.000 HD
ENDROOT
BRANCH   6  10
ATOM     10  C   UNL     1       4.896   4.735  17.874  0.00  0.00    +0.000 A 
ATOM     11  C   UNL     1       4.509   4.371  16.585  0.00  0.00    +0.000 A 
ATOM     12  C   UNL     1       5.490   4.142  15.626  0.00  0.00    +0.000 A 
ATOM     13  C   UNL     1       6.826   4.282  15.978  0.00  0.00    +0.000 A 
ATOM     14  C   UNL     1       7.125   4.657  17.278  0.00  0.00    +0.000 A 
ATOM     15  N   UNL     1       6.196   4.892  18.233  0.00  0.00    +0.000 NA
ENDBRANCH   6  10
BRANCH   1  17
ATOM     16  C   UNL     1       0.234   8.858  21.976  0.00  0.00    +0.000 C 
ATOM     17  C   UNL     1       0.693   9.412  20.632  0.00  0.00    +0.000 C 
BRANCH  17  18
ATOM     18  N   UNL     1      -0.469   9.618  19.781  0.00  0.00    +0.000 N 
ATOM     19  C   UNL     1      -0.578  10.719  18.963  0.00  0.00    +0.000 C 
ATOM     20  O   UNL     1       0.281  11.591  18.897  0.00  0.00    +0.000 OA
ATOM     21  H   UNL     1      -0.983   8.785  19.514  0.00  0.00    +0.000 HD
BRANCH  19  22
ATOM     22  C   UNL     1      -1.812  10.760  18.125  0.00  0.00    +0.000 A 
ATOM     23  C   UNL     1      -2.886  11.601  18.457  0.00  0.00    +0.000 A 
ATOM     24  C   UNL     1      -4.042  11.603  17.674  0.00  0.00    +0.000 A 
ATOM     25  C   UNL     1      -4.123  10.776  16.553  0.00  0.00    +0.000 A 
ATOM     26  C   UNL     1      -3.046   9.959  16.207  0.00  0.00    +0.000 A 
ATOM     27  C   UNL     1      -1.887   9.956  16.985  0.00  0.00    +0.000 A 
ENDBRANCH  19  22
ENDBRANCH  17  18
ENDBRANCH   1  17
TORSDOF 4
ENDMDL
MODEL 2
REMARK VINA RESULT:      -8.0      0.566      1.368
REMARK  Name = 
REMARK  5 active torsions:
REMARK  status: ('A' for Active; 'I' for Inactive)
REMARK    1  A    between atoms: C_1  and  C_2
REMARK    2  A    between atoms: C_2  and  N_3
REMARK    3  A    between atoms: C_2  and  C_12
REMARK    4  A    between atoms: C_4  and  C_6
REMARK    5  A    between atoms: C_17  and  C_18
REMARK                            x       y       z     vdW  Elec       q    Type
REMARK                         _______ _______ _______ _____ _____    ______ ____
ROOT
ATOM      1  C   UNL     1       1.694   8.381  19.794  0.00  0.00    +0.000 C 
ATOM      2  O   UNL     1       2.332   8.715  18.796  0.00  0.00    +0.000 OA
ATOM      3  N   UNL     1       1.774   7.170  20.452  0.00  0.00    +0.000 N 
ATOM      4  C   UNL     1       2.554   6.155  19.977  0.00  0.00    +0.000 A 
ATOM      5  N   UNL     1       3.423   6.188  19.004  0.00  0.00    +0.000 NA
ATOM      6  C   UNL     1       3.963   4.926  18.802  0.00  0.00    +0.000 A 
ATOM      7  C   UNL     1       3.452   3.946  19.633  0.00  0.00    +0.000 A 
ATOM      8  S   UNL     1       2.335   4.645  20.741  0.00  0.00    +0.000 S 
ATOM      9  H   UNL     1       1.244   7.002  21.297  0.00  0.00    +0.000 HD
ENDROOT
BRANCH   6  10
ATOM     10  C   UNL     1       4.977   4.695  17.777  0.00  0.00    +0.000 A 
ATOM     11  C   UNL     1       6.329   4.772  18.112  0.00  0.00    +0.000 A 
ATOM     12  C   UNL     1       7.282   4.569  17.120  0.00  0.00    +0.000 A 
ATOM     13  C   UNL     1       6.863   4.295  15.825  0.00  0.00    +0.000 A 
ATOM     14  C   UNL     1       5.500   4.227  15.578  0.00  0.00    +0.000 A 
ATOM     15  N   UNL     1       4.548   4.414  16.520  0.00  0.00    +0.000 NA
ENDBRANCH   6  10
BRANCH   1  17
ATOM     16  C   UNL     1       0.315   8.848  21.848  0.00  0.00    +0.000 C 
ATOM     17  C   UNL     1       0.760   9.384  20.492  0.00  0.00    +0.000 C 
BRANCH  17  18
ATOM     18  N   UNL     1      -0.409   9.569  19.646  0.00  0.00    +0.000 N 
ATOM     19  C   UNL     1      -0.617  10.735  18.946  0.00  0.00    +0.000 C 
ATOM     20  O   UNL     1       0.155  11.687  18.989  0.00  0.00    +0.000 OA
ATOM     21  H   UNL     1      -0.838   8.723  19.283  0.00  0.00    +0.000 HD
BRANCH  19  22
ATOM     22  C   UNL     1      -1.841  10.748  18.094  0.00  0.00    +0.000 A 
ATOM     23  C   UNL     1      -1.941   9.933  16.957  0.00  0.00    +0.000 A 
ATOM     24  C   UNL     1      -3.086   9.981  16.158  0.00  0.00    +0.000 A 
ATOM     25  C   UNL     1      -4.136  10.834  16.500  0.00  0.00    +0.000 A 
ATOM     26  C   UNL     1      -4.049  11.626  17.647  0.00  0.00    +0.000 A 
ATOM     27  C   UNL     1      -2.908  11.578  18.450  0.00  0.00    +0.000 A 
ENDBRANCH  19  22
ENDBRANCH  17  18
ENDBRANCH   1  17
TORSDOF 4
ENDMDL
MODEL 3
REMARK VINA RESULT:      -7.8      3.192      8.585
REMARK  Name = 
REMARK  5 active torsions:
REMARK  status: ('A' for Active; 'I' for Inactive)
REMARK    1  A    between atoms: C_1  and  C_2
REMARK    2  A    between atoms: C_2  and  N_3
REMARK    3  A    between atoms: C_2  and  C_12
REMARK    4  A    between atoms: C_4  and  C_6
REMARK    5  A    between atoms: C_17  and  C_18
REMARK                            x       y       z     vdW  Elec       q    Type
REMARK                         _______ _______ _______ _____ _____    ______ ____
ROOT
ATOM      1  C   UNL     1       2.049   5.098  19.929  0.00  0.00    +0.000 C 
ATOM      2  O   UNL     1       1.363   5.204  20.946  0.00  0.00    +0.000 OA
ATOM      3  N   UNL     1       2.439   6.123  19.092  0.00  0.00    +0.000 N 
ATOM      4  C   UNL     1       2.007   7.404  19.290  0.00  0.00    +0.000 A 
ATOM      5  N   UNL     1       1.349   7.888  20.307  0.00  0.00    +0.000 NA
ATOM      6  C   UNL     1       1.055   9.228  20.091  0.00  0.00    +0.000 A 
ATOM      7  C   UNL     1       1.486   9.718  18.872  0.00  0.00    +0.000 A 
ATOM      8  S   UNL     1       2.351   8.495  18.023  0.00  0.00    +0.000 S 
ATOM      9  H   UNL     1       3.046   5.946  18.302  0.00  0.00    +0.000 HD
ENDROOT
BRANCH   6  10
ATOM     10  C   UNL     1       0.336  10.012  21.091  0.00  0.00    +0.000 A 
ATOM     11  C   UNL     1      -0.133   9.394  22.249  0.00  0.00    +0.000 A 
ATOM     12  C   UNL     1      -0.833  10.151  23.182  0.00  0.00    +0.000 A 
ATOM     13  C   UNL     1      -1.047  11.500  22.935  0.00  0.00    +0.000 A 
ATOM     14  C   UNL     1      -0.540  12.040  21.763  0.00  0.00    +0.000 A 
ATOM     15  N   UNL     1       0.149  11.333  20.837  0.00  0.00    +0.000 NA
ENDBRANCH   6  10
BRANCH   1  17
ATOM     16  C   UNL     1       3.132   2.984  20.764  0.00  0.00    +0.000 C 
ATOM     17  C   UNL     1       2.643   3.736  19.531  0.00  0.00    +0.000 C 
BRANCH  17  18
ATOM     18  N   UNL     1       3.771   3.984  18.646  0.00  0.00    +0.000 N 
ATOM     19  C   UNL     1       3.684   3.773  17.289  0.00  0.00    +0.000 C 
ATOM     20  O   UNL     1       2.667   3.365  16.740  0.00  0.00    +0.000 OA
ATOM     21  H   UNL     1       4.457   4.658  18.971  0.00  0.00    +0.000 HD
BRANCH  19  22
ATOM     22  C   UNL     1       4.916   4.114  16.520  0.00  0.00    +0.000 A 
ATOM     23  C   UNL     1       4.912   4.132  15.117  0.00  0.00    +0.000 A 
ATOM     24  C   UNL     1       6.083   4.426  14.416  0.00  0.00    +0.000 A 
ATOM     25  C   UNL     1       7.256   4.715  15.114  0.00  0.00    +0.000 A 
ATOM     26  C   UNL     1       7.255   4.724  16.510  0.00  0.00    +0.000 A 
ATOM     27  C   UNL     1       6.085   4.433  17.215  0.00  0.00    +0.000 A 
ENDBRANCH  19  22
ENDBRANCH  17  18
ENDBRANCH   1  17
TORSDOF 4
ENDMDL
MODEL 4
REMARK VINA RESULT:      -7.7      2.471      3.856
REMARK  Name = 
REMARK  5 active torsions:
REMARK  status: ('A' for Active; 'I' for Inactive)
REMARK    1  A    between atoms: C_1  and  C_2
REMARK    2  A    between atoms: C_2  and  N_3
REMARK    3  A    between atoms: C_2  and  C_12
REMARK    4  A    between atoms: C_4  and  C_6
REMARK    5  A    between atoms: C_17  and  C_18
REMARK                            x       y       z     vdW  Elec       q    Type
REMARK                         _______ _______ _______ _____ _____    ______ ____
ROOT
ATOM      1  C   UNL     1       3.291   5.716  18.928  0.00  0.00    +0.000 C 
ATOM      2  O   UNL     1       2.791   5.535  17.819  0.00  0.00    +0.000 OA
ATOM      3  N   UNL     1       4.637   5.709  19.233  0.00  0.00    +0.000 N 
ATOM      4  C   UNL     1       5.577   5.407  18.289  0.00  0.00    +0.000 A 
ATOM      5  N   UNL     1       5.413   5.252  17.004  0.00  0.00    +0.000 NA
ATOM      6  C   UNL     1       6.615   4.895  16.409  0.00  0.00    +0.000 A 
ATOM      7  C   UNL     1       7.672   4.761  17.290  0.00  0.00    +0.000 A 
ATOM      8  S   UNL     1       7.160   5.174  18.881  0.00  0.00    +0.000 S 
ATOM      9  H   UNL     1       4.959   5.917  20.170  0.00  0.00    +0.000 HD
ENDROOT
BRANCH   6  10
ATOM     10  C   UNL     1       6.707   4.678  14.967  0.00  0.00    +0.000 A 
ATOM     11  C   UNL     1       5.834   3.786  14.346  0.00  0.00    +0.000 A 
ATOM     12  C   UNL     1       5.948   3.576  12.976  0.00  0.00    +0.000 A 
ATOM     13  C   UNL     1       6.927   4.257  12.265  0.00  0.00    +0.000 A 
ATOM     14  C   UNL     1       7.748   5.133  12.958  0.00  0.00    +0.000 A 
ATOM     15  N   UNL     1       7.661   5.364  14.288  0.00  0.00    +0.000 NA
ENDBRANCH   6  10
BRANCH   1  17
ATOM     16  C   UNL     1       1.431   4.945  20.441  0.00  0.00    +0.000 C 
ATOM     17  C   UNL     1       2.404   6.078  20.131  0.00  0.00    +0.000 C 
BRANCH  17  18
ATOM     18  N   UNL     1       1.649   7.272  19.784  0.00  0.00    +0.000 N 
ATOM     19  C   UNL     1       1.378   8.250  20.714  0.00  0.00    +0.000 C 
ATOM     20  O   UNL     1       1.746   8.184  21.881  0.00  0.00    +0.000 OA
ATOM     21  H   UNL     1       1.669   7.549  18.808  0.00  0.00    +0.000 HD
BRANCH  19  22
ATOM     22  C   UNL     1       0.628   9.428  20.187  0.00  0.00    +0.000 A 
ATOM     23  C   UNL     1      -0.176  10.210  21.030  0.00  0.00    +0.000 A 
ATOM     24  C   UNL     1      -0.891  11.292  20.511  0.00  0.00    +0.000 A 
ATOM     25  C   UNL     1      -0.794  11.601  19.154  0.00  0.00    +0.000 A 
ATOM     26  C   UNL     1       0.027  10.839  18.319  0.00  0.00    +0.000 A 
ATOM     27  C   UNL     1       0.746   9.759  18.835  0.00  0.00    +0.000 A 
ENDBRANCH  19  22
ENDBRANCH  17  18
ENDBRANCH   1  17
TORSDOF 4
ENDMDL
MODEL 5
REMARK VINA RESULT:      -7.6      1.938      2.294
REMARK  Name = 
REMARK  5 active torsions:
REMARK  status: ('A' for Active; 'I' for Inactive)
REMARK    1  A    between atoms: C_1  and  C_2
REMARK    2  A    between atoms: C_2  and  N_3
REMARK    3  A    between atoms: C_2  and  C_12
REMARK    4  A    between atoms: C_4  and  C_6
REMARK    5  A    between atoms: C_17  and  C_18
REMARK                            x       y       z     vdW  Elec       q    Type
REMARK                         _______ _______ _______ _____ _____    ______ ____
ROOT
ATOM      1  C   UNL     1       1.213   8.401  20.585  0.00  0.00    +0.000 C 
ATOM      2  O   UNL     1       1.080   7.367  21.238  0.00  0.00    +0.000 OA
ATOM      3  N   UNL     1       1.863   8.530  19.374  0.00  0.00    +0.000 N 
ATOM      4  C   UNL     1       2.517   7.474  18.805  0.00  0.00    +0.000 A 
ATOM      5  N   UNL     1       2.508   6.223  19.173  0.00  0.00    +0.000 NA
ATOM      6  C   UNL     1       3.352   5.480  18.358  0.00  0.00    +0.000 A 
ATOM      7  C   UNL     1       4.011   6.219  17.392  0.00  0.00    +0.000 A 
ATOM      8  S   UNL     1       3.493   7.859  17.459  0.00  0.00    +0.000 S 
ATOM      9  H   UNL     1       1.880   9.415  18.885  0.00  0.00    +0.000 HD
ENDROOT
BRANCH   6  10
ATOM     10  C   UNL     1       3.509   4.041  18.549  0.00  0.00    +0.000 A 
ATOM     11  C   UNL     1       2.919   3.155  17.648  0.00  0.00    +0.000 A 
ATOM     12  C   UNL     1       3.062   1.788  17.855  0.00  0.00    +0.000 A 
ATOM     13  C   UNL     1       3.787   1.341  18.952  0.00  0.00    +0.000 A 
ATOM     14  C   UNL     1       4.350   2.288  19.794  0.00  0.00    +0.000 A 
ATOM     15  N   UNL     1       4.234   3.624  19.619  0.00  0.00    +0.000 NA
ENDBRANCH   6  10
BRANCH   1  17
ATOM     16  C   UNL     1       0.091   9.588  22.501  0.00  0.00    +0.000 C 
ATOM     17  C   UNL     1       0.544   9.706  21.050  0.00  0.00    +0.000 C 
BRANCH  17  18
ATOM     18  N   UNL     1      -0.619   9.936  20.206  0.00  0.00    +0.000 N 
ATOM     19  C   UNL     1      -0.544  10.708  19.069  0.00  0.00    +0.000 C 
ATOM     20  O   UNL     1       0.490  11.250  18.696  0.00  0.00    +0.000 OA
ATOM     21  H   UNL     1      -1.348   9.231  20.244  0.00  0.00    +0.000 HD
BRANCH  19  22
ATOM     22  C   UNL     1      -1.815  10.811  18.294  0.00  0.00    +0.000 A 
ATOM     23  C   UNL     1      -2.855  11.652  18.718  0.00  0.00    +0.000 A 
ATOM     24  C   UNL     1      -4.047  11.712  17.992  0.00  0.00    +0.000 A 
ATOM     25  C   UNL     1      -4.196  10.944  16.837  0.00  0.00    +0.000 A 
ATOM     26  C   UNL     1      -3.151  10.127  16.400  0.00  0.00    +0.000 A 
ATOM     27  C   UNL     1      -1.957  10.066  17.120  0.00  0.00    +0.000 A 
ENDBRANCH  19  22
ENDBRANCH  17  18
ENDBRANCH   1  17
TORSDOF 4
ENDMDL
MODEL 6
REMARK VINA RESULT:      -7.6      1.092      1.564
REMARK  Name = 
REMARK  5 active torsions:
REMARK  status: ('A' for Active; 'I' for Inactive)
REMARK    1  A    between atoms: C_1  and  C_2
REMARK    2  A    between atoms: C_2  and  N_3
REMARK    3  A    between atoms: C_2  and  C_12
REMARK    4  A    between atoms: C_4  and  C_6
REMARK    5  A    between atoms: C_17  and  C_18
REMARK                            x       y       z     vdW  Elec       q    Type
REMARK                         _______ _______ _______ _____ _____    ______ ____
ROOT
ATOM      1  C   UNL     1       1.989   8.602  18.639  0.00  0.00    +0.000 C 
ATOM      2  O   UNL     1       2.428   8.873  17.522  0.00  0.00    +0.000 OA
ATOM      3  N   UNL     1       2.293   7.485  19.392  0.00  0.00    +0.000 N 
ATOM      4  C   UNL     1       3.091   6.492  18.898  0.00  0.00    +0.000 A 
ATOM      5  N   UNL     1       3.792   6.489  17.797  0.00  0.00    +0.000 NA
ATOM      6  C   UNL     1       4.421   5.263  17.636  0.00  0.00    +0.000 A 
ATOM      7  C   UNL     1       4.147   4.344  18.632  0.00  0.00    +0.000 A 
ATOM      8  S   UNL     1       3.148   5.067  19.833  0.00  0.00    +0.000 S 
ATOM      9  H   UNL     1       1.920   7.370  20.325  0.00  0.00    +0.000 HD
ENDROOT
BRANCH   6  10
ATOM     10  C   UNL     1       5.285   5.004  16.486  0.00  0.00    +0.000 A 
ATOM     11  C   UNL     1       4.748   4.431  15.334  0.00  0.00    +0.000 A 
ATOM     12  C   UNL     1       5.587   4.174  14.256  0.00  0.00    +0.000 A 
ATOM     13  C   UNL     1       6.935   4.492  14.356  0.00  0.00    +0.000 A 
ATOM     14  C   UNL     1       7.386   5.067  15.533  0.00  0.00    +0.000 A 
ATOM     15  N   UNL     1       6.596   5.336  16.598  0.00  0.00    +0.000 NA
ENDBRANCH   6  10
BRANCH   1  17
ATOM     16  C   UNL     1       0.736   9.075  20.771  0.00  0.00    +0.000 C 
ATOM     17  C   UNL     1       1.076   9.594  19.378  0.00  0.00    +0.000 C 
BRANCH  17  18
ATOM     18  N   UNL     1      -0.151   9.730  18.608  0.00  0.00    +0.000 N 
ATOM     19  C   UNL     1      -0.894  10.888  18.631  0.00  0.00    +0.000 C 
ATOM     20  O   UNL     1      -0.580  11.870  19.294  0.00  0.00    +0.000 OA
ATOM     21  H   UNL     1      -0.233   9.138  17.787  0.00  0.00    +0.000 HD
BRANCH  19  22
ATOM     22  C   UNL     1      -2.102  10.878  17.755  0.00  0.00    +0.000 A 
ATOM     23  C   UNL     1      -2.127  10.137  16.564  0.00  0.00    +0.000 A 
ATOM     24  C   UNL     1      -3.258  10.165  15.746  0.00  0.00    +0.000 A 
ATOM     25  C   UNL     1      -4.368  10.921  16.121  0.00  0.00    +0.000 A 
ATOM     26  C   UNL     1      -4.354  11.639  17.319  0.00  0.00    +0.000 A 
ATOM     27  C   UNL     1      -3.227  11.611  18.142  0.00  0.00    +0.000 A 
ENDBRANCH  19  22
ENDBRANCH  17  18
ENDBRANCH   1  17
TORSDOF 4
ENDMDL
MODEL 7
REMARK VINA RESULT:      -7.6      1.026      1.142
REMARK  Name = 
REMARK  5 active torsions:
REMARK  status: ('A' for Active; 'I' for Inactive)
REMARK    1  A    between atoms: C_1  and  C_2
REMARK    2  A    between atoms: C_2  and  N_3
REMARK    3  A    between atoms: C_2  and  C_12
REMARK    4  A    between atoms: C_4  and  C_6
REMARK    5  A    between atoms: C_17  and  C_18
REMARK                            x       y       z     vdW  Elec       q    Type
REMARK                         _______ _______ _______ _____ _____    ______ ____
ROOT
ATOM      1  C   UNL     1       1.414   8.869  19.434  0.00  0.00    +0.000 C 
ATOM      2  O   UNL     1       1.887   9.153  18.335  0.00  0.00    +0.000 OA
ATOM      3  N   UNL     1       1.639   7.711  20.151  0.00  0.00    +0.000 N 
ATOM      4  C   UNL     1       2.387   6.691  19.633  0.00  0.00    +0.000 A 
ATOM      5  N   UNL     1       3.105   6.685  18.544  0.00  0.00    +0.000 NA
ATOM      6  C   UNL     1       3.665   5.431  18.348  0.00  0.00    +0.000 A 
ATOM      7  C   UNL     1       3.321   4.495  19.306  0.00  0.00    +0.000 A 
ATOM      8  S   UNL     1       2.345   5.232  20.517  0.00  0.00    +0.000 S 
ATOM      9  H   UNL     1       1.244   7.584  21.073  0.00  0.00    +0.000 HD
ENDROOT
BRANCH   6  10
ATOM     10  C   UNL     1       4.531   5.162  17.203  0.00  0.00    +0.000 A 
ATOM     11  C   UNL     1       4.883   6.202  16.343  0.00  0.00    +0.000 A 
ATOM     12  C   UNL     1       5.692   5.926  15.247  0.00  0.00    +0.000 A 
ATOM     13  C   UNL     1       6.127   4.625  15.038  0.00  0.00    +0.000 A 
ATOM     14  C   UNL     1       5.740   3.651  15.945  0.00  0.00    +0.000 A 
ATOM     15  N   UNL     1       4.958   3.886  17.023  0.00  0.00    +0.000 NA
ENDBRANCH   6  10
BRANCH   1  17
ATOM     16  C   UNL     1       0.177   9.351  21.574  0.00  0.00    +0.000 C 
ATOM     17  C   UNL     1       0.547   9.887  20.195  0.00  0.00    +0.000 C 
BRANCH  17  18
ATOM     18  N   UNL     1      -0.670  10.099  19.425  0.00  0.00    +0.000 N 
ATOM     19  C   UNL     1      -1.213  11.353  19.268  0.00  0.00    +0.000 C 
ATOM     20  O   UNL     1      -0.721  12.363  19.759  0.00  0.00    +0.000 OA
ATOM     21  H   UNL     1      -0.877   9.407  18.713  0.00  0.00    +0.000 HD
BRANCH  19  22
ATOM     22  C   UNL     1      -2.438  11.405  18.417  0.00  0.00    +0.000 A 
ATOM     23  C   UNL     1      -3.655  11.882  18.928  0.00  0.00    +0.000 A 
ATOM     24  C   UNL     1      -4.796  11.897  18.123  0.00  0.00    +0.000 A 
ATOM     25  C   UNL     1      -4.720  11.447  16.804  0.00  0.00    +0.000 A 
ATOM     26  C   UNL     1      -3.504  10.997  16.287  0.00  0.00    +0.000 A 
ATOM     27  C   UNL     1      -2.360  10.984  17.087  0.00  0.00    +0.000 A 
ENDBRANCH  19  22
ENDBRANCH  17  18
ENDBRANCH   1  17
TORSDOF 4
ENDMDL
MODEL 8
REMARK VINA RESULT:      -7.5      3.107      8.695
REMARK  Name = 
REMARK  5 active torsions:
REMARK  status: ('A' for Active; 'I' for Inactive)
REMARK    1  A    between atoms: C_1  and  C_2
REMARK    2  A    between atoms: C_2  and  N_3
REMARK    3  A    between atoms: C_2  and  C_12
REMARK    4  A    between atoms: C_4  and  C_6
REMARK    5  A    between atoms: C_17  and  C_18
REMARK                            x       y       z     vdW  Elec       q    Type
REMARK                         _______ _______ _______ _____ _____    ______ ____
ROOT
ATOM      1  C   UNL     1       1.845   5.683  20.058  0.00  0.00    +0.000 C 
ATOM      2  O   UNL     1       1.211   5.861  21.097  0.00  0.00    +0.000 OA
ATOM      3  N   UNL     1       2.215   6.649  19.145  0.00  0.00    +0.000 N 
ATOM      4  C   UNL     1       1.817   7.949  19.287  0.00  0.00    +0.000 A 
ATOM      5  N   UNL     1       1.217   8.505  20.304  0.00  0.00    +0.000 NA
ATOM      6  C   UNL     1       0.938   9.835  20.024  0.00  0.00    +0.000 A 
ATOM      7  C   UNL     1       1.321  10.246  18.760  0.00  0.00    +0.000 A 
ATOM      8  S   UNL     1       2.121   8.958  17.946  0.00  0.00    +0.000 S 
ATOM      9  H   UNL     1       2.781   6.415  18.339  0.00  0.00    +0.000 HD
ENDROOT
BRANCH   6  10
ATOM     10  C   UNL     1       0.281  10.691  21.008  0.00  0.00    +0.000 A 
ATOM     11  C   UNL     1      -0.361  10.117  22.105  0.00  0.00    +0.000 A 
ATOM     12  C   UNL     1      -0.998  10.944  23.023  0.00  0.00    +0.000 A 
ATOM     13  C   UNL     1      -0.980  12.318  22.822  0.00  0.00    +0.000 A 
ATOM     14  C   UNL     1      -0.312  12.809  21.711  0.00  0.00    +0.000 A 
ATOM     15  N   UNL     1       0.322  12.032  20.802  0.00  0.00    +0.000 NA
ENDBRANCH   6  10
BRANCH   1  17
ATOM     16  C   UNL     1       2.740   3.518  20.983  0.00  0.00    +0.000 C 
ATOM     17  C   UNL     1       2.395   4.288  19.712  0.00  0.00    +0.000 C 
BRANCH  17  18
ATOM     18  N   UNL     1       3.604   4.468  18.923  0.00  0.00    +0.000 N 
ATOM     19  C   UNL     1       3.802   3.791  17.741  0.00  0.00    +0.000 C 
ATOM     20  O   UNL     1       2.988   2.999  17.280  0.00  0.00    +0.000 OA
ATOM     21  H   UNL     1       4.091   5.351  19.043  0.00  0.00    +0.000 HD
BRANCH  19  22
ATOM     22  C   UNL     1       5.074   4.119  17.034  0.00  0.00    +0.000 A 
ATOM     23  C   UNL     1       6.250   4.393  17.748  0.00  0.00    +0.000 A 
ATOM     24  C   UNL     1       7.423   4.724  17.066  0.00  0.00    +0.000 A 
ATOM     25  C   UNL     1       7.426   4.770  15.672  0.00  0.00    +0.000 A 
ATOM     26  C   UNL     1       6.263   4.472  14.959  0.00  0.00    +0.000 A 
ATOM     27  C   UNL     1       5.089   4.137  15.637  0.00  0.00    +0.000 A 
ENDBRANCH  19  22
ENDBRANCH  17  18
ENDBRANCH   1  17
TORSDOF 4
ENDMDL
MODEL 9
REMARK VINA RESULT:      -7.5      2.395      3.087
REMARK  Name = 
REMARK  5 active torsions:
REMARK  status: ('A' for Active; 'I' for Inactive)
REMARK    1  A    between atoms: C_1  and  C_2
REMARK    2  A    between atoms: C_2  and  N_3
REMARK    3  A    between atoms: C_2  and  C_12
REMARK    4  A    between atoms: C_4  and  C_6
REMARK    5  A    between atoms: C_17  and  C_18
REMARK                            x       y       z     vdW  Elec       q    Type
REMARK                         _______ _______ _______ _____ _____    ______ ____
ROOT
ATOM      1  C   UNL     1       0.537   9.622  21.019  0.00  0.00    +0.000 C 
ATOM      2  O   UNL     1       0.494   8.790  21.925  0.00  0.00    +0.000 OA
ATOM      3  N   UNL     1       1.077   9.440  19.762  0.00  0.00    +0.000 N 
ATOM      4  C   UNL     1       1.716   8.280  19.425  0.00  0.00    +0.000 A 
ATOM      5  N   UNL     1       1.780   7.166  20.101  0.00  0.00    +0.000 NA
ATOM      6  C   UNL     1       2.575   6.247  19.431  0.00  0.00    +0.000 A 
ATOM      7  C   UNL     1       3.125   6.718  18.252  0.00  0.00    +0.000 A 
ATOM      8  S   UNL     1       2.560   8.314  17.943  0.00  0.00    +0.000 S 
ATOM      9  H   UNL     1       1.023  10.169  19.063  0.00  0.00    +0.000 HD
ENDROOT
BRANCH   6  10
ATOM     10  C   UNL     1       2.796   4.907  19.969  0.00  0.00    +0.000 A 
ATOM     11  C   UNL     1       2.012   4.449  21.027  0.00  0.00    +0.000 A 
ATOM     12  C   UNL     1       2.248   3.179  21.541  0.00  0.00    +0.000 A 
ATOM     13  C   UNL     1       3.258   2.402  20.988  0.00  0.00    +0.000 A 
ATOM     14  C   UNL     1       3.986   2.929  19.933  0.00  0.00    +0.000 A 
ATOM     15  N   UNL     1       3.778   4.158  19.406  0.00  0.00    +0.000 NA
ENDBRANCH   6  10
BRANCH   1  17
ATOM     16  C   UNL     1      -0.619  11.177  22.627  0.00  0.00    +0.000 C 
ATOM     17  C   UNL     1      -0.134  10.995  21.193  0.00  0.00    +0.000 C 
BRANCH  17  18
ATOM     18  N   UNL     1      -1.276  11.050  20.293  0.00  0.00    +0.000 N 
ATOM     19  C   UNL     1      -1.176  11.591  19.032  0.00  0.00    +0.000 C 
ATOM     20  O   UNL     1      -0.134  12.060  18.586  0.00  0.00    +0.000 OA
ATOM     21  H   UNL     1      -2.004  10.360  20.449  0.00  0.00    +0.000 HD
BRANCH  19  22
ATOM     22  C   UNL     1      -2.427  11.535  18.222  0.00  0.00    +0.000 A 
ATOM     23  C   UNL     1      -3.670  11.861  18.785  0.00  0.00    +0.000 A 
ATOM     24  C   UNL     1      -4.832  11.774  18.016  0.00  0.00    +0.000 A 
ATOM     25  C   UNL     1      -4.754  11.375  16.681  0.00  0.00    +0.000 A 
ATOM     26  C   UNL     1      -3.514  11.076  16.112  0.00  0.00    +0.000 A 
ATOM     27  C   UNL     1      -2.349  11.164  16.877  0.00  0.00    +0.000 A 
ENDBRANCH  19  22
ENDBRANCH  17  18
ENDBRANCH   1  17
TORSDOF 4
ENDMDL
