MODEL 1
REMARK VINA RESULT:      -8.2      0.000      0.000
REMARK  Name = 
REMARK  4 active torsions:
REMARK  status: ('A' for Active; 'I' for Inactive)
REMARK    1  A    between atoms: N_2  and  C_4
REMARK    2  A    between atoms: C_7  and  N_8
REMARK    3  A    between atoms: C_9  and  C_12
REMARK    4  A    between atoms: N_10  and  O_11
REMARK                            x       y       z     vdW  Elec       q    Type
REMARK                         _______ _______ _______ _____ _____    ______ ____
ROOT
ATOM      1  N   UNL     1       5.153   3.660  16.607  0.00  0.00    +0.000 N 
ATOM      2  C   UNL     1       6.395   4.198  16.305  0.00  0.00    +0.000 C 
ATOM      3  N   UNL     1       7.387   4.587  17.051  0.00  0.00    +0.000 NA
ATOM      4  H   UNL     1       4.718   3.090  15.886  0.00  0.00    +0.000 HD
ENDROOT
BRANCH   1   8
ATOM      5  C   UNL     1       2.772   3.338  20.231  0.00  0.00    +0.000 A 
ATOM      6  C   UNL     1       3.484   2.241  19.730  0.00  0.00    +0.000 A 
ATOM      7  C   UNL     1       4.304   2.367  18.582  0.00  0.00    +0.000 A 
ATOM      8  C   UNL     1       4.440   3.547  17.809  0.00  0.00    +0.000 A 
ATOM      9  C   UNL     1       3.784   4.667  18.401  0.00  0.00    +0.000 A 
ATOM     10  N   UNL     1       3.792   5.947  17.997  0.00  0.00    +0.000 NA
ATOM     11  O   UNL     1       3.013   6.637  18.912  0.00  0.00    +0.000 OA
ATOM     12  N   UNL     1       2.495   5.800  19.881  0.00  0.00    +0.000 NA
ATOM     13  C   UNL     1       2.952   4.573  19.597  0.00  0.00    +0.000 A 
BRANCH   5  15
ATOM     14  O   UNL     1       2.441   3.369  22.477  0.00  0.00    +0.000 OA
ATOM     15  N   UNL     1       1.911   3.236  21.369  0.00  0.00    +0.000 N 
ATOM     16  O   UNL     1       0.725   2.953  21.162  0.00  0.00    +0.000 OA
ENDBRANCH   5  15
ENDBRANCH   1   8
BRANCH   2  17
ATOM     17  C   UNL     1       6.710   4.350  14.825  0.00  0.00    +0.000 A 
ATOM     18  C   UNL     1       7.692   5.239  14.362  0.00  0.00    +0.000 A 
ATOM     19  C   UNL     1       7.920   5.373  12.988  0.00  0.00    +0.000 A 
ATOM     20  C   UNL     1       7.165   4.633  12.082  0.00  0.00    +0.000 A 
ATOM     21  F   UNL     1       7.405   4.781  10.771  0.00  0.00    +0.000 F 
ATOM     22  C   UNL     1       6.173   3.767  12.531  0.00  0.00    +0.000 A 
ATOM     23 BR   UNL     1       5.124   2.780  11.306  0.00  0.00    +0.000 Br
ATOM     24  C   UNL     1       5.942   3.625  13.899  0.00  0.00    +0.000 A 
ENDBRANCH   2  17
BRANCH   3  25
ATOM     25  O   UNL     1       7.270   4.291  18.401  0.00  0.00    +0.000 OA
ATOM     26  H   UNL     1       6.747   3.468  18.386  0.00  0.00    +0.000 HD
ENDBRANCH   3  25
TORSDOF 4
ENDMDL
MODEL 2
REMARK VINA RESULT:      -7.6      5.827      7.634
REMARK  Name = 
REMARK  4 active torsions:
REMARK  status: ('A' for Active; 'I' for Inactive)
REMARK    1  A    between atoms: N_2  and  C_4
REMARK    2  A    between atoms: C_7  and  N_8
REMARK    3  A    between atoms: C_9  and  C_12
REMARK    4  A    between atoms: N_10  and  O_11
REMARK                            x       y       z     vdW  Elec       q    Type
REMARK                         _______ _______ _______ _____ _____    ______ ____
ROOT
ATOM      1  N   UNL     1       1.460   8.526  19.439  0.00  0.00    +0.000 N 
ATOM      2  C   UNL     1       2.192   8.459  18.264  0.00  0.00    +0.000 C 
ATOM      3  N   UNL     1       2.450   9.339  17.340  0.00  0.00    +0.000 NA
ATOM      4  H   UNL     1       1.712   7.863  20.169  0.00  0.00    +0.000 HD
ENDROOT
BRANCH   1   8
ATOM      5  C   UNL     1      -1.163  11.598  21.047  0.00  0.00    +0.000 A 
ATOM      6  C   UNL     1      -1.141  11.307  19.678  0.00  0.00    +0.000 A 
ATOM      7  C   UNL     1      -0.327  10.265  19.167  0.00  0.00    +0.000 A 
ATOM      8  C   UNL     1       0.564   9.480  19.941  0.00  0.00    +0.000 A 
ATOM      9  C   UNL     1       0.443   9.734  21.339  0.00  0.00    +0.000 A 
ATOM     10  N   UNL     1       1.053   9.106  22.356  0.00  0.00    +0.000 NA
ATOM     11  O   UNL     1       0.594   9.720  23.510  0.00  0.00    +0.000 OA
ATOM     12  N   UNL     1      -0.287  10.747  23.230  0.00  0.00    +0.000 NA
ATOM     13  C   UNL     1      -0.405  10.784  21.897  0.00  0.00    +0.000 A 
BRANCH   5  15
ATOM     14  O   UNL     1      -3.153  12.433  21.755  0.00  0.00    +0.000 OA
ATOM     15  N   UNL     1      -1.950  12.663  21.590  0.00  0.00    +0.000 N 
ATOM     16  O   UNL     1      -1.386  13.746  21.783  0.00  0.00    +0.000 OA
ENDBRANCH   5  15
ENDBRANCH   1   8
BRANCH   2  17
ATOM     17  C   UNL     1       2.867   7.127  17.977  0.00  0.00    +0.000 A 
ATOM     18  C   UNL     1       4.138   7.050  17.388  0.00  0.00    +0.000 A 
ATOM     19  C   UNL     1       4.702   5.800  17.108  0.00  0.00    +0.000 A 
ATOM     20  C   UNL     1       3.998   4.636  17.403  0.00  0.00    +0.000 A 
ATOM     21  F   UNL     1       4.563   3.452  17.124  0.00  0.00    +0.000 F 
ATOM     22  C   UNL     1       2.727   4.704  17.966  0.00  0.00    +0.000 A 
ATOM     23 BR   UNL     1       1.751   3.129  18.344  0.00  0.00    +0.000 Br
ATOM     24  C   UNL     1       2.159   5.945  18.251  0.00  0.00    +0.000 A 
ENDBRANCH   2  17
BRANCH   3  25
ATOM     25  O   UNL     1       2.050  10.636  17.623  0.00  0.00    +0.000 OA
ATOM     26  H   UNL     1       2.610  11.159  17.018  0.00  0.00    +0.000 HD
ENDBRANCH   3  25
TORSDOF 4
ENDMDL
MODEL 3
REMARK VINA RESULT:      -7.4      5.728      7.618
REMARK  Name = 
REMARK  4 active torsions:
REMARK  status: ('A' for Active; 'I' for Inactive)
REMARK    1  A    between atoms: N_2  and  C_4
REMARK    2  A    between atoms: C_7  and  N_8
REMARK    3  A    between atoms: C_9  and  C_12
REMARK    4  A    between atoms: N_10  and  O_11
REMARK                            x       y       z     vdW  Elec       q    Type
REMARK                         _______ _______ _______ _____ _____    ______ ____
ROOT
ATOM      1  N   UNL     1       1.431   8.471  19.439  0.00  0.00    +0.000 N 
ATOM      2  C   UNL     1       2.156   8.389  18.260  0.00  0.00    +0.000 C 
ATOM      3  N   UNL     1       2.419   9.260  17.330  0.00  0.00    +0.000 NA
ATOM      4  H   UNL     1       1.680   7.809  20.171  0.00  0.00    +0.000 HD
ENDROOT
BRANCH   1   8
ATOM      5  C   UNL     1      -1.145  11.583  21.045  0.00  0.00    +0.000 A 
ATOM      6  C   UNL     1      -1.138  11.281  19.677  0.00  0.00    +0.000 A 
ATOM      7  C   UNL     1      -0.339  10.227  19.168  0.00  0.00    +0.000 A 
ATOM      8  C   UNL     1       0.550   9.439  19.941  0.00  0.00    +0.000 A 
ATOM      9  C   UNL     1       0.443   9.704  21.338  0.00  0.00    +0.000 A 
ATOM     10  N   UNL     1       1.055   9.078  22.355  0.00  0.00    +0.000 NA
ATOM     11  O   UNL     1       0.612   9.706  23.507  0.00  0.00    +0.000 OA
ATOM     12  N   UNL     1      -0.261  10.740  23.227  0.00  0.00    +0.000 NA
ATOM     13  C   UNL     1      -0.390  10.768  21.894  0.00  0.00    +0.000 A 
BRANCH   5  15
ATOM     14  O   UNL     1      -3.110  12.431  21.806  0.00  0.00    +0.000 OA
ATOM     15  N   UNL     1      -1.916  12.661  21.585  0.00  0.00    +0.000 N 
ATOM     16  O   UNL     1      -1.352  13.753  21.721  0.00  0.00    +0.000 OA
ENDBRANCH   5  15
ENDBRANCH   1   8
BRANCH   2  17
ATOM     17  C   UNL     1       2.813   7.047  17.977  0.00  0.00    +0.000 A 
ATOM     18  C   UNL     1       2.173   5.832  18.263  0.00  0.00    +0.000 A 
ATOM     19  C   UNL     1       2.833   4.622  18.020  0.00  0.00    +0.000 A 
ATOM     20  C   UNL     1       4.127   4.625  17.505  0.00  0.00    +0.000 A 
ATOM     21  F   UNL     1       4.735   3.452  17.282  0.00  0.00    +0.000 F 
ATOM     22  C   UNL     1       4.777   5.827  17.240  0.00  0.00    +0.000 A 
ATOM     23 BR   UNL     1       6.545   5.841  16.567  0.00  0.00    +0.000 Br
ATOM     24  C   UNL     1       4.126   7.036  17.476  0.00  0.00    +0.000 A 
ENDBRANCH   2  17
BRANCH   3  25
ATOM     25  O   UNL     1       2.036  10.564  17.608  0.00  0.00    +0.000 OA
ATOM     26  H   UNL     1       2.835  10.924  18.036  0.00  0.00    +0.000 HD
ENDBRANCH   3  25
TORSDOF 4
ENDMDL
MODEL 4
REMARK VINA RESULT:      -7.2      5.734      6.863
REMARK  Name = 
REMARK  4 active torsions:
REMARK  status: ('A' for Active; 'I' for Inactive)
REMARK    1  A    between atoms: N_2  and  C_4
REMARK    2  A    between atoms: C_7  and  N_8
REMARK    3  A    between atoms: C_9  and  C_12
REMARK    4  A    between atoms: N_10  and  O_11
REMARK                            x       y       z     vdW  Elec       q    Type
REMARK                         _______ _______ _______ _____ _____    ______ ____
ROOT
ATOM      1  N   UNL     1       6.878   8.242  17.328  0.00  0.00    +0.000 N 
ATOM      2  C   UNL     1       7.943   8.513  18.174  0.00  0.00    +0.000 C 
ATOM      3  N   UNL     1       8.620   7.769  18.998  0.00  0.00    +0.000 NA
ATOM      4  H   UNL     1       6.772   8.853  16.522  0.00  0.00    +0.000 HD
ENDROOT
BRANCH   1   8
ATOM      5  C   UNL     1       4.328   4.728  17.103  0.00  0.00    +0.000 A 
ATOM      6  C   UNL     1       3.894   5.900  17.734  0.00  0.00    +0.000 A 
ATOM      7  C   UNL     1       4.707   7.061  17.754  0.00  0.00    +0.000 A 
ATOM      8  C   UNL     1       6.017   7.142  17.218  0.00  0.00    +0.000 A 
ATOM      9  C   UNL     1       6.387   5.967  16.498  0.00  0.00    +0.000 A 
ATOM     10  N   UNL     1       7.501   5.743  15.785  0.00  0.00    +0.000 NA
ATOM     11  O   UNL     1       7.375   4.459  15.280  0.00  0.00    +0.000 OA
ATOM     12  N   UNL     1       6.198   3.861  15.685  0.00  0.00    +0.000 NA
ATOM     13  C   UNL     1       5.560   4.764  16.439  0.00  0.00    +0.000 A 
BRANCH   5  15
ATOM     14  O   UNL     1       2.431   3.603  16.564  0.00  0.00    +0.000 OA
ATOM     15  N   UNL     1       3.545   3.530  17.093  0.00  0.00    +0.000 N 
ATOM     16  O   UNL     1       4.009   2.541  17.673  0.00  0.00    +0.000 OA
ENDBRANCH   5  15
ENDBRANCH   1   8
BRANCH   2  17
ATOM     17  C   UNL     1       8.472   9.939  18.138  0.00  0.00    +0.000 A 
ATOM     18  C   UNL     1       7.823  10.954  17.420  0.00  0.00    +0.000 A 
ATOM     19  C   UNL     1       8.368  12.243  17.386  0.00  0.00    +0.000 A 
ATOM     20  C   UNL     1       9.559  12.513  18.055  0.00  0.00    +0.000 A 
ATOM     21  F   UNL     1      10.058  13.756  18.006  0.00  0.00    +0.000 F 
ATOM     22  C   UNL     1      10.221  11.505  18.751  0.00  0.00    +0.000 A 
ATOM     23 BR   UNL     1      11.854  11.857  19.638  0.00  0.00    +0.000 Br
ATOM     24  C   UNL     1       9.683  10.220  18.793  0.00  0.00    +0.000 A 
ENDBRANCH   2  17
BRANCH   3  25
ATOM     25  O   UNL     1       8.344   6.411  18.941  0.00  0.00    +0.000 OA
ATOM     26  H   UNL     1       7.425   6.403  18.613  0.00  0.00    +0.000 HD
ENDBRANCH   3  25
TORSDOF 4
ENDMDL
MODEL 5
REMARK VINA RESULT:      -7.1      6.104      8.868
REMARK  Name = 
REMARK  4 active torsions:
REMARK  status: ('A' for Active; 'I' for Inactive)
REMARK    1  A    between atoms: N_2  and  C_4
REMARK    2  A    between atoms: C_7  and  N_8
REMARK    3  A    between atoms: C_9  and  C_12
REMARK    4  A    between atoms: N_10  and  O_11
REMARK                            x       y       z     vdW  Elec       q    Type
REMARK                         _______ _______ _______ _____ _____    ______ ____
ROOT
ATOM      1  N   UNL     1       2.095   7.573  19.315  0.00  0.00    +0.000 N 
ATOM      2  C   UNL     1       1.580   8.856  19.202  0.00  0.00    +0.000 C 
ATOM      3  N   UNL     1       1.582   9.718  18.228  0.00  0.00    +0.000 NA
ATOM      4  H   UNL     1       1.651   6.965  20.000  0.00  0.00    +0.000 HD
ENDROOT
BRANCH   1   8
ATOM      5  C   UNL     1       4.700   5.280  16.696  0.00  0.00    +0.000 A 
ATOM      6  C   UNL     1       4.999   6.605  17.038  0.00  0.00    +0.000 A 
ATOM      7  C   UNL     1       4.177   7.329  17.938  0.00  0.00    +0.000 A 
ATOM      8  C   UNL     1       2.980   6.836  18.516  0.00  0.00    +0.000 A 
ATOM      9  C   UNL     1       2.760   5.457  18.227  0.00  0.00    +0.000 A 
ATOM     10  N   UNL     1       1.790   4.653  18.690  0.00  0.00    +0.000 NA
ATOM     11  O   UNL     1       2.023   3.413  18.118  0.00  0.00    +0.000 OA
ATOM     12  N   UNL     1       3.120   3.431  17.279  0.00  0.00    +0.000 NA
ATOM     13  C   UNL     1       3.603   4.679  17.323  0.00  0.00    +0.000 A 
BRANCH   5  15
ATOM     14  O   UNL     1       6.473   3.941  16.226  0.00  0.00    +0.000 OA
ATOM     15  N   UNL     1       5.491   4.534  15.766  0.00  0.00    +0.000 N 
ATOM     16  O   UNL     1       5.177   4.597  14.572  0.00  0.00    +0.000 OA
ENDBRANCH   5  15
ENDBRANCH   1   8
BRANCH   2  17
ATOM     17  C   UNL     1       0.836   9.382  20.419  0.00  0.00    +0.000 A 
ATOM     18  C   UNL     1       0.930   8.761  21.674  0.00  0.00    +0.000 A 
ATOM     19  C   UNL     1       0.196   9.260  22.756  0.00  0.00    +0.000 A 
ATOM     20  C   UNL     1      -0.637  10.363  22.583  0.00  0.00    +0.000 A 
ATOM     21  F   UNL     1      -1.328  10.819  23.637  0.00  0.00    +0.000 F 
ATOM     22  C   UNL     1      -0.754  10.970  21.336  0.00  0.00    +0.000 A 
ATOM     23 BR   UNL     1      -1.904  12.451  21.087  0.00  0.00    +0.000 Br
ATOM     24  C   UNL     1      -0.023  10.482  20.254  0.00  0.00    +0.000 A 
ENDBRANCH   2  17
BRANCH   3  25
ATOM     25  O   UNL     1       2.055   9.245  17.013  0.00  0.00    +0.000 OA
ATOM     26  H   UNL     1       2.611   9.987  16.707  0.00  0.00    +0.000 HD
ENDBRANCH   3  25
TORSDOF 4
ENDMDL
MODEL 6
REMARK VINA RESULT:      -7.1      6.484      8.414
REMARK  Name = 
REMARK  4 active torsions:
REMARK  status: ('A' for Active; 'I' for Inactive)
REMARK    1  A    between atoms: N_2  and  C_4
REMARK    2  A    between atoms: C_7  and  N_8
REMARK    3  A    between atoms: C_9  and  C_12
REMARK    4  A    between atoms: N_10  and  O_11
REMARK                            x       y       z     vdW  Elec       q    Type
REMARK                         _______ _______ _______ _____ _____    ______ ____
ROOT
ATOM      1  N   UNL     1       1.227   8.959  19.663  0.00  0.00    +0.000 N 
ATOM      2  C   UNL     1       2.019   8.583  18.589  0.00  0.00    +0.000 C 
ATOM      3  N   UNL     1       2.391   9.211  17.511  0.00  0.00    +0.000 NA
ATOM      4  H   UNL     1       1.389   8.468  20.540  0.00  0.00    +0.000 HD
ENDROOT
BRANCH   1   8
ATOM      5  C   UNL     1      -1.567  12.221  20.342  0.00  0.00    +0.000 A 
ATOM      6  C   UNL     1      -0.499  11.986  21.217  0.00  0.00    +0.000 A 
ATOM      7  C   UNL     1       0.442  10.957  20.959  0.00  0.00    +0.000 A 
ATOM      8  C   UNL     1       0.374  10.052  19.871  0.00  0.00    +0.000 A 
ATOM      9  C   UNL     1      -0.663  10.381  18.949  0.00  0.00    +0.000 A 
ATOM     10  N   UNL     1      -0.944   9.806  17.769  0.00  0.00    +0.000 NA
ATOM     11  O   UNL     1      -2.033  10.495  17.263  0.00  0.00    +0.000 OA
ATOM     12  N   UNL     1      -2.458  11.490  18.121  0.00  0.00    +0.000 NA
ATOM     13  C   UNL     1      -1.633  11.450  19.175  0.00  0.00    +0.000 A 
BRANCH   5  15
ATOM     14  O   UNL     1      -2.175  14.403  20.497  0.00  0.00    +0.000 OA
ATOM     15  N   UNL     1      -2.551  13.230  20.590  0.00  0.00    +0.000 N 
ATOM     16  O   UNL     1      -3.674  12.854  20.947  0.00  0.00    +0.000 OA
ENDBRANCH   5  15
ENDBRANCH   1   8
BRANCH   2  17
ATOM     17  C   UNL     1       2.612   7.185  18.659  0.00  0.00    +0.000 A 
ATOM     18  C   UNL     1       3.510   6.709  17.691  0.00  0.00    +0.000 A 
ATOM     19  C   UNL     1       4.000   5.401  17.777  0.00  0.00    +0.000 A 
ATOM     20  C   UNL     1       3.588   4.570  18.815  0.00  0.00    +0.000 A 
ATOM     21  F   UNL     1       4.074   3.322  18.873  0.00  0.00    +0.000 F 
ATOM     22  C   UNL     1       2.680   5.026  19.766  0.00  0.00    +0.000 A 
ATOM     23 BR   UNL     1       2.093   3.895  21.163  0.00  0.00    +0.000 Br
ATOM     24  C   UNL     1       2.189   6.328  19.690  0.00  0.00    +0.000 A 
ENDBRANCH   2  17
BRANCH   3  25
ATOM     25  O   UNL     1       2.069  10.559  17.465  0.00  0.00    +0.000 OA
ATOM     26  H   UNL     1       1.312  10.610  18.079  0.00  0.00    +0.000 HD
ENDBRANCH   3  25
TORSDOF 4
ENDMDL
MODEL 7
REMARK VINA RESULT:      -7.0      6.124      7.851
REMARK  Name = 
REMARK  4 active torsions:
REMARK  status: ('A' for Active; 'I' for Inactive)
REMARK    1  A    between atoms: N_2  and  C_4
REMARK    2  A    between atoms: C_7  and  N_8
REMARK    3  A    between atoms: C_9  and  C_12
REMARK    4  A    between atoms: N_10  and  O_11
REMARK                            x       y       z     vdW  Elec       q    Type
REMARK                         _______ _______ _______ _____ _____    ______ ____
ROOT
ATOM      1  N   UNL     1       1.447   8.805  19.399  0.00  0.00    +0.000 N 
ATOM      2  C   UNL     1       2.182   8.658  18.233  0.00  0.00    +0.000 C 
ATOM      3  N   UNL     1       2.498   9.492  17.285  0.00  0.00    +0.000 NA
ATOM      4  H   UNL     1       1.653   8.151  20.151  0.00  0.00    +0.000 HD
ENDROOT
BRANCH   1   8
ATOM      5  C   UNL     1      -1.302  11.839  20.864  0.00  0.00    +0.000 A 
ATOM      6  C   UNL     1      -0.166  11.474  21.597  0.00  0.00    +0.000 A 
ATOM      7  C   UNL     1       0.757  10.526  21.088  0.00  0.00    +0.000 A 
ATOM      8  C   UNL     1       0.607   9.827  19.865  0.00  0.00    +0.000 A 
ATOM      9  C   UNL     1      -0.503  10.293  19.100  0.00  0.00    +0.000 A 
ATOM     10  N   UNL     1      -0.874   9.930  17.862  0.00  0.00    +0.000 NA
ATOM     11  O   UNL     1      -2.005  10.676  17.573  0.00  0.00    +0.000 OA
ATOM     12  N   UNL     1      -2.364  11.495  18.626  0.00  0.00    +0.000 NA
ATOM     13  C   UNL     1      -1.457  11.286  19.588  0.00  0.00    +0.000 A 
BRANCH   5  15
ATOM     14  O   UNL     1      -2.185  13.929  20.950  0.00  0.00    +0.000 OA
ATOM     15  N   UNL     1      -2.269  12.768  21.365  0.00  0.00    +0.000 N 
ATOM     16  O   UNL     1      -3.061  12.359  22.221  0.00  0.00    +0.000 OA
ENDBRANCH   5  15
ENDBRANCH   1   8
BRANCH   2  17
ATOM     17  C   UNL     1       2.776   7.280  17.992  0.00  0.00    +0.000 A 
ATOM     18  C   UNL     1       4.041   7.107  17.409  0.00  0.00    +0.000 A 
ATOM     19  C   UNL     1       4.530   5.818  17.172  0.00  0.00    +0.000 A 
ATOM     20  C   UNL     1       3.757   4.708  17.504  0.00  0.00    +0.000 A 
ATOM     21  F   UNL     1       4.251   3.484  17.266  0.00  0.00    +0.000 F 
ATOM     22  C   UNL     1       2.492   4.870  18.061  0.00  0.00    +0.000 A 
ATOM     23 BR   UNL     1       1.424   3.369  18.488  0.00  0.00    +0.000 Br
ATOM     24  C   UNL     1       1.999   6.151  18.303  0.00  0.00    +0.000 A 
ENDBRANCH   2  17
BRANCH   3  25
ATOM     25  O   UNL     1       2.176  10.819  17.526  0.00  0.00    +0.000 OA
ATOM     26  H   UNL     1       3.056  11.232  17.604  0.00  0.00    +0.000 HD
ENDBRANCH   3  25
TORSDOF 4
ENDMDL
MODEL 8
REMARK VINA RESULT:      -7.0      5.139      8.197
REMARK  Name = 
REMARK  4 active torsions:
REMARK  status: ('A' for Active; 'I' for Inactive)
REMARK    1  A    between atoms: N_2  and  C_4
REMARK    2  A    between atoms: C_7  and  N_8
REMARK    3  A    between atoms: C_9  and  C_12
REMARK    4  A    between atoms: N_10  and  O_11
REMARK                            x       y       z     vdW  Elec       q    Type
REMARK                         _______ _______ _______ _____ _____    ______ ____
ROOT
ATOM      1  N   UNL     1       3.630   7.416  18.425  0.00  0.00    +0.000 N 
ATOM      2  C   UNL     1       2.550   6.916  19.137  0.00  0.00    +0.000 C 
ATOM      3  N   UNL     1       2.105   5.708  19.322  0.00  0.00    +0.000 NA
ATOM      4  H   UNL     1       3.999   8.313  18.731  0.00  0.00    +0.000 HD
ENDROOT
BRANCH   1   8
ATOM      5  C   UNL     1       6.211   5.441  15.537  0.00  0.00    +0.000 A 
ATOM      6  C   UNL     1       5.265   6.392  15.134  0.00  0.00    +0.000 A 
ATOM      7  C   UNL     1       4.466   7.074  16.085  0.00  0.00    +0.000 A 
ATOM      8  C   UNL     1       4.490   6.836  17.482  0.00  0.00    +0.000 A 
ATOM      9  C   UNL     1       5.530   5.938  17.867  0.00  0.00    +0.000 A 
ATOM     10  N   UNL     1       5.901   5.574  19.104  0.00  0.00    +0.000 NA
ATOM     11  O   UNL     1       6.959   4.695  18.937  0.00  0.00    +0.000 OA
ATOM     12  N   UNL     1       7.248   4.485  17.603  0.00  0.00    +0.000 NA
ATOM     13  C   UNL     1       6.384   5.239  16.911  0.00  0.00    +0.000 A 
BRANCH   5  15
ATOM     14  O   UNL     1       8.058   5.251  14.230  0.00  0.00    +0.000 OA
ATOM     15  N   UNL     1       7.010   4.712  14.599  0.00  0.00    +0.000 N 
ATOM     16  O   UNL     1       6.558   3.640  14.179  0.00  0.00    +0.000 OA
ENDBRANCH   5  15
ENDBRANCH   1   8
BRANCH   2  17
ATOM     17  C   UNL     1       1.716   7.944  19.886  0.00  0.00    +0.000 A 
ATOM     18  C   UNL     1       1.270   7.725  21.198  0.00  0.00    +0.000 A 
ATOM     19  C   UNL     1       0.473   8.684  21.833  0.00  0.00    +0.000 A 
ATOM     20  C   UNL     1       0.114   9.848  21.160  0.00  0.00    +0.000 A 
ATOM     21  F   UNL     1      -0.649  10.750  21.793  0.00  0.00    +0.000 F 
ATOM     22  C   UNL     1       0.534  10.063  19.850  0.00  0.00    +0.000 A 
ATOM     23 BR   UNL     1       0.028  11.629  18.918  0.00  0.00    +0.000 Br
ATOM     24  C   UNL     1       1.330   9.115  19.211  0.00  0.00    +0.000 A 
ENDBRANCH   2  17
BRANCH   3  25
ATOM     25  O   UNL     1       2.922   4.692  18.848  0.00  0.00    +0.000 OA
ATOM     26  H   UNL     1       2.283   4.110  18.395  0.00  0.00    +0.000 HD
ENDBRANCH   3  25
TORSDOF 4
ENDMDL
MODEL 9
REMARK VINA RESULT:      -7.0      6.257      8.191
REMARK  Name = 
REMARK  4 active torsions:
REMARK  status: ('A' for Active; 'I' for Inactive)
REMARK    1  A    between atoms: N_2  and  C_4
REMARK    2  A    between atoms: C_7  and  N_8
REMARK    3  A    between atoms: C_9  and  C_12
REMARK    4  A    between atoms: N_10  and  O_11
REMARK                            x       y       z     vdW  Elec       q    Type
REMARK                         _______ _______ _______ _____ _____    ______ ____
ROOT
ATOM      1  N   UNL     1       1.214   9.038  19.591  0.00  0.00    +0.000 N 
ATOM      2  C   UNL     1       2.016   8.740  18.500  0.00  0.00    +0.000 C 
ATOM      3  N   UNL     1       2.370   9.432  17.457  0.00  0.00    +0.000 NA
ATOM      4  H   UNL     1       1.389   8.507  20.442  0.00  0.00    +0.000 HD
ENDROOT
BRANCH   1   8
ATOM      5  C   UNL     1      -1.668  12.181  20.438  0.00  0.00    +0.000 A 
ATOM      6  C   UNL     1      -0.581  11.946  21.288  0.00  0.00    +0.000 A 
ATOM      7  C   UNL     1       0.388  10.958  20.977  0.00  0.00    +0.000 A 
ATOM      8  C   UNL     1       0.331  10.094  19.854  0.00  0.00    +0.000 A 
ATOM      9  C   UNL     1      -0.730  10.427  18.961  0.00  0.00    +0.000 A 
ATOM     10  N   UNL     1      -1.010   9.890  17.763  0.00  0.00    +0.000 NA
ATOM     11  O   UNL     1      -2.128  10.564  17.299  0.00  0.00    +0.000 OA
ATOM     12  N   UNL     1      -2.570  11.511  18.203  0.00  0.00    +0.000 NA
ATOM     13  C   UNL     1      -1.728  11.456  19.243  0.00  0.00    +0.000 A 
BRANCH   5  15
ATOM     14  O   UNL     1      -2.390  14.332  20.534  0.00  0.00    +0.000 OA
ATOM     15  N   UNL     1      -2.679  13.149  20.740  0.00  0.00    +0.000 N 
ATOM     16  O   UNL     1      -3.729  12.736  21.246  0.00  0.00    +0.000 OA
ENDBRANCH   5  15
ENDBRANCH   1   8
BRANCH   2  17
ATOM     17  C   UNL     1       2.647   7.357  18.499  0.00  0.00    +0.000 A 
ATOM     18  C   UNL     1       2.412   6.432  19.527  0.00  0.00    +0.000 A 
ATOM     19  C   UNL     1       3.047   5.184  19.501  0.00  0.00    +0.000 A 
ATOM     20  C   UNL     1       3.919   4.867  18.463  0.00  0.00    +0.000 A 
ATOM     21  F   UNL     1       4.512   3.665  18.464  0.00  0.00    +0.000 F 
ATOM     22  C   UNL     1       4.175   5.788  17.452  0.00  0.00    +0.000 A 
ATOM     23 BR   UNL     1       5.380   5.377  16.053  0.00  0.00    +0.000 Br
ATOM     24  C   UNL     1       3.545   7.031  17.468  0.00  0.00    +0.000 A 
ENDBRANCH   2  17
BRANCH   3  25
ATOM     25  O   UNL     1       2.011  10.772  17.480  0.00  0.00    +0.000 OA
ATOM     26  H   UNL     1       1.281  10.799  16.834  0.00  0.00    +0.000 HD
ENDBRANCH   3  25
TORSDOF 4
ENDMDL
