MODEL 1
REMARK VINA RESULT:      -7.7      0.000      0.000
REMARK  Name = 
REMARK  7 active torsions:
REMARK  status: ('A' for Active; 'I' for Inactive)
REMARK    1  A    between atoms: C_1  and  O_2
REMARK    2  A    between atoms: O_2  and  C_3
REMARK    3  A    between atoms: C_7  and  N_8
REMARK    4  A    between atoms: C_10  and  C_11
REMARK    5  A    between atoms: C_11  and  N_12
REMARK    6  A    between atoms: N_12  and  C_13
REMARK    7  A    between atoms: C_15  and  C_16
REMARK                            x       y       z     vdW  Elec       q    Type
REMARK                         _______ _______ _______ _____ _____    ______ ____
ROOT
ATOM      1  N   UNL     1       8.591   9.147  18.378  0.00  0.00    +0.000 N 
ATOM      2  C   UNL     1       8.600   7.874  18.902  0.00  0.00    +0.000 A 
ATOM      3  C   UNL     1       7.717   7.158  18.128  0.00  0.00    +0.000 A 
ATOM      4  N   UNL     1       7.242   7.977  17.136  0.00  0.00    +0.000 NA
ATOM      5  N   UNL     1       7.798   9.173  17.283  0.00  0.00    +0.000 NA
ENDROOT
BRANCH   1  10
ATOM      6  C   UNL     1      10.555  12.307  18.501  0.00  0.00    +0.000 A 
ATOM      7  C   UNL     1      10.621  12.514  19.880  0.00  0.00    +0.000 A 
ATOM      8  C   UNL     1       9.977  11.641  20.760  0.00  0.00    +0.000 A 
ATOM      9  C   UNL     1       9.280  10.538  20.264  0.00  0.00    +0.000 A 
ATOM     10  C   UNL     1       9.228  10.310  18.881  0.00  0.00    +0.000 A 
ATOM     11  C   UNL     1       9.851  11.210  18.003  0.00  0.00    +0.000 A 
BRANCH   6  13
ATOM     12  C   UNL     1      10.642  14.518  17.624  0.00  0.00    +0.000 C 
ATOM     13  O   UNL     1      11.230  13.227  17.742  0.00  0.00    +0.000 OA
ENDBRANCH   6  13
ENDBRANCH   1  10
BRANCH   3  14
ATOM     14  C   UNL     1       7.270   5.745  18.300  0.00  0.00    +0.000 C 
BRANCH  14  15
ATOM     15  N   UNL     1       6.322   5.380  17.253  0.00  0.00    +0.000 NA
ATOM     16  H   UNL     1       6.829   5.046  16.435  0.00  0.00    +0.000 HD
BRANCH  15  17
ATOM     17  C   UNL     1       5.302   4.424  17.698  0.00  0.00    +0.000 C 
ATOM     18  C   UNL     1       4.480   3.752  16.640  0.00  0.00    +0.000 C 
ATOM     19  C   UNL     1       3.840   4.788  17.536  0.00  0.00    +0.000 C 
BRANCH  19  20
ATOM     20  C   UNL     1       2.782   4.330  18.511  0.00  0.00    +0.000 A 
ATOM     21  C   UNL     1       1.922   3.257  18.236  0.00  0.00    +0.000 A 
ATOM     22  C   UNL     1       0.952   2.849  19.158  0.00  0.00    +0.000 A 
ATOM     23  C   UNL     1       0.832   3.504  20.382  0.00  0.00    +0.000 A 
ATOM     24  C   UNL     1       1.686   4.558  20.686  0.00  0.00    +0.000 A 
ATOM     25  C   UNL     1       2.650   4.960  19.761  0.00  0.00    +0.000 A 
ENDBRANCH  19  20
ENDBRANCH  15  17
ENDBRANCH  14  15
ENDBRANCH   3  14
TORSDOF 6
ENDMDL
MODEL 2
REMARK VINA RESULT:      -7.7      4.242      7.433
REMARK  Name = 
REMARK  7 active torsions:
REMARK  status: ('A' for Active; 'I' for Inactive)
REMARK    1  A    between atoms: C_1  and  O_2
REMARK    2  A    between atoms: O_2  and  C_3
REMARK    3  A    between atoms: C_7  and  N_8
REMARK    4  A    between atoms: C_10  and  C_11
REMARK    5  A    between atoms: C_11  and  N_12
REMARK    6  A    between atoms: N_12  and  C_13
REMARK    7  A    between atoms: C_15  and  C_16
REMARK                            x       y       z     vdW  Elec       q    Type
REMARK                         _______ _______ _______ _____ _____    ______ ____
ROOT
ATOM      1  N   UNL     1       3.618   4.103  17.497  0.00  0.00    +0.000 N 
ATOM      2  C   UNL     1       3.439   4.336  18.842  0.00  0.00    +0.000 A 
ATOM      3  C   UNL     1       2.102   4.109  19.073  0.00  0.00    +0.000 A 
ATOM      4  N   UNL     1       1.520   3.696  17.902  0.00  0.00    +0.000 NA
ATOM      5  N   UNL     1       2.454   3.672  16.960  0.00  0.00    +0.000 NA
ENDROOT
BRANCH   1  10
ATOM      6  C   UNL     1       6.795   5.593  16.253  0.00  0.00    +0.000 A 
ATOM      7  C   UNL     1       6.989   4.845  15.089  0.00  0.00    +0.000 A 
ATOM      8  C   UNL     1       6.103   3.823  14.746  0.00  0.00    +0.000 A 
ATOM      9  C   UNL     1       4.997   3.555  15.557  0.00  0.00    +0.000 A 
ATOM     10  C   UNL     1       4.782   4.316  16.715  0.00  0.00    +0.000 A 
ATOM     11  C   UNL     1       5.696   5.321  17.069  0.00  0.00    +0.000 A 
BRANCH   6  13
ATOM     12  C   UNL     1       7.437   7.513  17.504  0.00  0.00    +0.000 C 
ATOM     13  O   UNL     1       7.728   6.570  16.479  0.00  0.00    +0.000 OA
ENDBRANCH   6  13
ENDBRANCH   1  10
BRANCH   3  14
ATOM     14  C   UNL     1       1.336   4.297  20.340  0.00  0.00    +0.000 C 
BRANCH  14  15
ATOM     15  N   UNL     1       1.833   5.458  21.068  0.00  0.00    +0.000 NA
ATOM     16  H   UNL     1       2.846   5.512  20.973  0.00  0.00    +0.000 HD
BRANCH  15  17
ATOM     17  C   UNL     1       1.176   6.712  20.686  0.00  0.00    +0.000 C 
ATOM     18  C   UNL     1       1.994   7.716  19.931  0.00  0.00    +0.000 C 
ATOM     19  C   UNL     1       1.604   7.997  21.364  0.00  0.00    +0.000 C 
BRANCH  19  20
ATOM     20  C   UNL     1       0.640   9.129  21.631  0.00  0.00    +0.000 A 
ATOM     21  C   UNL     1       0.032   9.318  22.880  0.00  0.00    +0.000 A 
ATOM     22  C   UNL     1      -0.854  10.377  23.104  0.00  0.00    +0.000 A 
ATOM     23  C   UNL     1      -1.142  11.276  22.078  0.00  0.00    +0.000 A 
ATOM     24  C   UNL     1      -0.538  11.121  20.836  0.00  0.00    +0.000 A 
ATOM     25  C   UNL     1       0.345  10.061  20.620  0.00  0.00    +0.000 A 
ENDBRANCH  19  20
ENDBRANCH  15  17
ENDBRANCH  14  15
ENDBRANCH   3  14
TORSDOF 6
ENDMDL
MODEL 3
REMARK VINA RESULT:      -7.7      5.535      7.979
REMARK  Name = 
REMARK  7 active torsions:
REMARK  status: ('A' for Active; 'I' for Inactive)
REMARK    1  A    between atoms: C_1  and  O_2
REMARK    2  A    between atoms: O_2  and  C_3
REMARK    3  A    between atoms: C_7  and  N_8
REMARK    4  A    between atoms: C_10  and  C_11
REMARK    5  A    between atoms: C_11  and  N_12
REMARK    6  A    between atoms: N_12  and  C_13
REMARK    7  A    between atoms: C_15  and  C_16
REMARK                            x       y       z     vdW  Elec       q    Type
REMARK                         _______ _______ _______ _____ _____    ______ ____
ROOT
ATOM      1  N   UNL     1       6.513   4.239  14.155  0.00  0.00    +0.000 N 
ATOM      2  C   UNL     1       6.500   3.758  15.445  0.00  0.00    +0.000 A 
ATOM      3  C   UNL     1       7.163   4.706  16.190  0.00  0.00    +0.000 A 
ATOM      4  N   UNL     1       7.506   5.746  15.367  0.00  0.00    +0.000 NA
ATOM      5  N   UNL     1       7.085   5.464  14.141  0.00  0.00    +0.000 NA
ENDROOT
BRANCH   1  10
ATOM      6  C   UNL     1       4.323   3.123  11.359  0.00  0.00    +0.000 A 
ATOM      7  C   UNL     1       5.160   2.198  10.732  0.00  0.00    +0.000 A 
ATOM      8  C   UNL     1       6.456   1.981  11.202  0.00  0.00    +0.000 A 
ATOM      9  C   UNL     1       6.919   2.677  12.322  0.00  0.00    +0.000 A 
ATOM     10  C   UNL     1       6.077   3.591  12.971  0.00  0.00    +0.000 A 
ATOM     11  C   UNL     1       4.786   3.825  12.472  0.00  0.00    +0.000 A 
BRANCH   6  13
ATOM     12  C   UNL     1       2.958   4.052   9.644  0.00  0.00    +0.000 C 
ATOM     13  O   UNL     1       3.074   3.243  10.809  0.00  0.00    +0.000 OA
ENDBRANCH   6  13
ENDBRANCH   1  10
BRANCH   3  14
ATOM     14  C   UNL     1       7.519   4.661  17.639  0.00  0.00    +0.000 C 
BRANCH  14  15
ATOM     15  N   UNL     1       6.580   5.458  18.420  0.00  0.00    +0.000 NA
ATOM     16  H   UNL     1       6.762   6.449  18.263  0.00  0.00    +0.000 HD
BRANCH  15  17
ATOM     17  C   UNL     1       5.177   5.109  18.177  0.00  0.00    +0.000 C 
ATOM     18  C   UNL     1       4.218   6.236  17.939  0.00  0.00    +0.000 C 
ATOM     19  C   UNL     1       4.146   5.456  19.231  0.00  0.00    +0.000 C 
BRANCH  19  20
ATOM     20  C   UNL     1       2.926   4.600  19.479  0.00  0.00    +0.000 A 
ATOM     21  C   UNL     1       2.541   4.198  20.766  0.00  0.00    +0.000 A 
ATOM     22  C   UNL     1       1.403   3.409  20.971  0.00  0.00    +0.000 A 
ATOM     23  C   UNL     1       0.623   3.015  19.887  0.00  0.00    +0.000 A 
ATOM     24  C   UNL     1       0.973   3.416  18.602  0.00  0.00    +0.000 A 
ATOM     25  C   UNL     1       2.110   4.203  18.406  0.00  0.00    +0.000 A 
ENDBRANCH  19  20
ENDBRANCH  15  17
ENDBRANCH  14  15
ENDBRANCH   3  14
TORSDOF 6
ENDMDL
MODEL 4
REMARK VINA RESULT:      -7.7      5.324      7.340
REMARK  Name = 
REMARK  7 active torsions:
REMARK  status: ('A' for Active; 'I' for Inactive)
REMARK    1  A    between atoms: C_1  and  O_2
REMARK    2  A    between atoms: O_2  and  C_3
REMARK    3  A    between atoms: C_7  and  N_8
REMARK    4  A    between atoms: C_10  and  C_11
REMARK    5  A    between atoms: C_11  and  N_12
REMARK    6  A    between atoms: N_12  and  C_13
REMARK    7  A    between atoms: C_15  and  C_16
REMARK                            x       y       z     vdW  Elec       q    Type
REMARK                         _______ _______ _______ _____ _____    ______ ____
ROOT
ATOM      1  N   UNL     1       6.779   5.214  15.632  0.00  0.00    +0.000 N 
ATOM      2  C   UNL     1       6.009   4.706  16.654  0.00  0.00    +0.000 A 
ATOM      3  C   UNL     1       6.487   5.303  17.797  0.00  0.00    +0.000 A 
ATOM      4  N   UNL     1       7.478   6.184  17.449  0.00  0.00    +0.000 NA
ATOM      5  N   UNL     1       7.629   6.140  16.132  0.00  0.00    +0.000 NA
ENDROOT
BRANCH   1  10
ATOM      6  C   UNL     1       5.917   3.463  12.462  0.00  0.00    +0.000 A 
ATOM      7  C   UNL     1       6.904   3.969  11.613  0.00  0.00    +0.000 A 
ATOM      8  C   UNL     1       7.816   4.921  12.074  0.00  0.00    +0.000 A 
ATOM      9  C   UNL     1       7.761   5.357  13.400  0.00  0.00    +0.000 A 
ATOM     10  C   UNL     1       6.788   4.836  14.265  0.00  0.00    +0.000 A 
ATOM     11  C   UNL     1       5.855   3.903  13.784  0.00  0.00    +0.000 A 
BRANCH   6  13
ATOM     12  C   UNL     1       3.972   3.027  11.161  0.00  0.00    +0.000 C 
ATOM     13  O   UNL     1       5.086   2.532  11.897  0.00  0.00    +0.000 OA
ENDBRANCH   6  13
ENDBRANCH   1  10
BRANCH   3  14
ATOM     14  C   UNL     1       6.079   5.055  19.211  0.00  0.00    +0.000 C 
BRANCH  14  15
ATOM     15  N   UNL     1       4.798   4.358  19.256  0.00  0.00    +0.000 NA
ATOM     16  H   UNL     1       4.874   3.545  19.865  0.00  0.00    +0.000 HD
BRANCH  15  17
ATOM     17  C   UNL     1       3.676   5.225  19.631  0.00  0.00    +0.000 C 
ATOM     18  C   UNL     1       2.301   4.785  19.228  0.00  0.00    +0.000 C 
ATOM     19  C   UNL     1       2.935   5.972  18.541  0.00  0.00    +0.000 C 
BRANCH  19  20
ATOM     20  C   UNL     1       2.326   7.335  18.768  0.00  0.00    +0.000 A 
ATOM     21  C   UNL     1       2.222   8.290  17.747  0.00  0.00    +0.000 A 
ATOM     22  C   UNL     1       1.648   9.545  17.981  0.00  0.00    +0.000 A 
ATOM     23  C   UNL     1       1.158   9.864  19.245  0.00  0.00    +0.000 A 
ATOM     24  C   UNL     1       1.232   8.927  20.270  0.00  0.00    +0.000 A 
ATOM     25  C   UNL     1       1.807   7.678  20.029  0.00  0.00    +0.000 A 
ENDBRANCH  19  20
ENDBRANCH  15  17
ENDBRANCH  14  15
ENDBRANCH   3  14
TORSDOF 6
ENDMDL
MODEL 5
REMARK VINA RESULT:      -7.6      3.188      9.843
REMARK  Name = 
REMARK  7 active torsions:
REMARK  status: ('A' for Active; 'I' for Inactive)
REMARK    1  A    between atoms: C_1  and  O_2
REMARK    2  A    between atoms: O_2  and  C_3
REMARK    3  A    between atoms: C_7  and  N_8
REMARK    4  A    between atoms: C_10  and  C_11
REMARK    5  A    between atoms: C_11  and  N_12
REMARK    6  A    between atoms: N_12  and  C_13
REMARK    7  A    between atoms: C_15  and  C_16
REMARK                            x       y       z     vdW  Elec       q    Type
REMARK                         _______ _______ _______ _____ _____    ______ ____
ROOT
ATOM      1  N   UNL     1       5.871   5.399  18.222  0.00  0.00    +0.000 N 
ATOM      2  C   UNL     1       6.064   6.596  17.570  0.00  0.00    +0.000 A 
ATOM      3  C   UNL     1       7.304   7.032  17.974  0.00  0.00    +0.000 A 
ATOM      4  N   UNL     1       7.852   6.085  18.801  0.00  0.00    +0.000 NA
ATOM      5  N   UNL     1       6.985   5.089  18.923  0.00  0.00    +0.000 NA
ENDROOT
BRANCH   1  10
ATOM      6  C   UNL     1       3.163   3.184  19.494  0.00  0.00    +0.000 A 
ATOM      7  C   UNL     1       2.500   2.880  18.303  0.00  0.00    +0.000 A 
ATOM      8  C   UNL     1       2.917   3.444  17.096  0.00  0.00    +0.000 A 
ATOM      9  C   UNL     1       4.018   4.302  17.068  0.00  0.00    +0.000 A 
ATOM     10  C   UNL     1       4.704   4.594  18.256  0.00  0.00    +0.000 A 
ATOM     11  C   UNL     1       4.259   4.047  19.470  0.00  0.00    +0.000 A 
BRANCH   6  13
ATOM     12  C   UNL     1       1.319   2.862  20.963  0.00  0.00    +0.000 C 
ATOM     13  O   UNL     1       2.665   2.565  20.610  0.00  0.00    +0.000 OA
ENDBRANCH   6  13
ENDBRANCH   1  10
BRANCH   3  14
ATOM     14  C   UNL     1       7.985   8.319  17.647  0.00  0.00    +0.000 C 
BRANCH  14  15
ATOM     15  N   UNL     1       8.823   8.749  18.760  0.00  0.00    +0.000 NA
ATOM     16  H   UNL     1       9.743   8.318  18.681  0.00  0.00    +0.000 HD
BRANCH  15  17
ATOM     17  C   UNL     1       8.907  10.207  18.897  0.00  0.00    +0.000 C 
ATOM     18  C   UNL     1       9.984  10.910  18.128  0.00  0.00    +0.000 C 
ATOM     19  C   UNL     1      10.089  10.805  19.632  0.00  0.00    +0.000 C 
BRANCH  19  20
ATOM     20  C   UNL     1       9.976  12.073  20.444  0.00  0.00    +0.000 A 
ATOM     21  C   UNL     1      10.646  13.253  20.091  0.00  0.00    +0.000 A 
ATOM     22  C   UNL     1      10.522  14.417  20.857  0.00  0.00    +0.000 A 
ATOM     23  C   UNL     1       9.713  14.423  21.992  0.00  0.00    +0.000 A 
ATOM     24  C   UNL     1       9.023  13.271  22.353  0.00  0.00    +0.000 A 
ATOM     25  C   UNL     1       9.153  12.114  21.584  0.00  0.00    +0.000 A 
ENDBRANCH  19  20
ENDBRANCH  15  17
ENDBRANCH  14  15
ENDBRANCH   3  14
TORSDOF 6
ENDMDL
MODEL 6
REMARK VINA RESULT:      -7.5      4.311      7.425
REMARK  Name = 
REMARK  7 active torsions:
REMARK  status: ('A' for Active; 'I' for Inactive)
REMARK    1  A    between atoms: C_1  and  O_2
REMARK    2  A    between atoms: O_2  and  C_3
REMARK    3  A    between atoms: C_7  and  N_8
REMARK    4  A    between atoms: C_10  and  C_11
REMARK    5  A    between atoms: C_11  and  N_12
REMARK    6  A    between atoms: N_12  and  C_13
REMARK    7  A    between atoms: C_15  and  C_16
REMARK                            x       y       z     vdW  Elec       q    Type
REMARK                         _______ _______ _______ _____ _____    ______ ____
ROOT
ATOM      1  N   UNL     1       3.638   4.173  17.653  0.00  0.00    +0.000 N 
ATOM      2  C   UNL     1       3.435   4.480  18.980  0.00  0.00    +0.000 A 
ATOM      3  C   UNL     1       2.100   4.237  19.207  0.00  0.00    +0.000 A 
ATOM      4  N   UNL     1       1.543   3.745  18.055  0.00  0.00    +0.000 NA
ATOM      5  N   UNL     1       2.490   3.686  17.128  0.00  0.00    +0.000 NA
ENDROOT
BRANCH   1  10
ATOM      6  C   UNL     1       6.739   5.714  16.288  0.00  0.00    +0.000 A 
ATOM      7  C   UNL     1       7.020   4.836  15.239  0.00  0.00    +0.000 A 
ATOM      8  C   UNL     1       6.218   3.716  15.017  0.00  0.00    +0.000 A 
ATOM      9  C   UNL     1       5.110   3.477  15.833  0.00  0.00    +0.000 A 
ATOM     10  C   UNL     1       4.807   4.366  16.874  0.00  0.00    +0.000 A 
ATOM     11  C   UNL     1       5.637   5.472  17.110  0.00  0.00    +0.000 A 
BRANCH   6  13
ATOM     12  C   UNL     1       7.690   7.394  17.681  0.00  0.00    +0.000 C 
ATOM     13  O   UNL     1       7.594   6.778  16.401  0.00  0.00    +0.000 OA
ENDBRANCH   6  13
ENDBRANCH   1  10
BRANCH   3  14
ATOM     14  C   UNL     1       1.314   4.481  20.451  0.00  0.00    +0.000 C 
BRANCH  14  15
ATOM     15  N   UNL     1       1.809   5.666  21.143  0.00  0.00    +0.000 NA
ATOM     16  H   UNL     1       2.821   5.723  21.038  0.00  0.00    +0.000 HD
BRANCH  15  17
ATOM     17  C   UNL     1       1.139   6.904  20.731  0.00  0.00    +0.000 C 
ATOM     18  C   UNL     1       1.966   7.927  20.013  0.00  0.00    +0.000 C 
ATOM     19  C   UNL     1       1.507   8.199  21.427  0.00  0.00    +0.000 C 
BRANCH  19  20
ATOM     20  C   UNL     1       0.506   9.307  21.650  0.00  0.00    +0.000 A 
ATOM     21  C   UNL     1       0.000  10.085  20.599  0.00  0.00    +0.000 A 
ATOM     22  C   UNL     1      -0.931  11.103  20.831  0.00  0.00    +0.000 A 
ATOM     23  C   UNL     1      -1.382  11.356  22.125  0.00  0.00    +0.000 A 
ATOM     24  C   UNL     1      -0.910  10.586  23.182  0.00  0.00    +0.000 A 
ATOM     25  C   UNL     1       0.020   9.572  22.943  0.00  0.00    +0.000 A 
ENDBRANCH  19  20
ENDBRANCH  15  17
ENDBRANCH  14  15
ENDBRANCH   3  14
TORSDOF 6
ENDMDL
MODEL 7
REMARK VINA RESULT:      -7.5      1.247      1.405
REMARK  Name = 
REMARK  7 active torsions:
REMARK  status: ('A' for Active; 'I' for Inactive)
REMARK    1  A    between atoms: C_1  and  O_2
REMARK    2  A    between atoms: O_2  and  C_3
REMARK    3  A    between atoms: C_7  and  N_8
REMARK    4  A    between atoms: C_10  and  C_11
REMARK    5  A    between atoms: C_11  and  N_12
REMARK    6  A    between atoms: N_12  and  C_13
REMARK    7  A    between atoms: C_15  and  C_16
REMARK                            x       y       z     vdW  Elec       q    Type
REMARK                         _______ _______ _______ _____ _____    ______ ____
ROOT
ATOM      1  N   UNL     1       8.442   9.018  18.505  0.00  0.00    +0.000 N 
ATOM      2  C   UNL     1       7.499   8.778  17.531  0.00  0.00    +0.000 A 
ATOM      3  C   UNL     1       7.321   7.414  17.529  0.00  0.00    +0.000 A 
ATOM      4  N   UNL     1       8.100   6.871  18.518  0.00  0.00    +0.000 NA
ATOM      5  N   UNL     1       8.755   7.855  19.119  0.00  0.00    +0.000 NA
ENDROOT
BRANCH   1  10
ATOM      6  C   UNL     1      10.038  12.360  18.127  0.00  0.00    +0.000 A 
ATOM      7  C   UNL     1      10.476  12.584  19.434  0.00  0.00    +0.000 A 
ATOM      8  C   UNL     1      10.200  11.659  20.442  0.00  0.00    +0.000 A 
ATOM      9  C   UNL     1       9.502  10.487  20.144  0.00  0.00    +0.000 A 
ATOM     10  C   UNL     1       9.079  10.243  18.829  0.00  0.00    +0.000 A 
ATOM     11  C   UNL     1       9.333  11.194  17.828  0.00  0.00    +0.000 A 
BRANCH   6  13
ATOM     12  C   UNL     1      11.689  13.288  16.686  0.00  0.00    +0.000 C 
ATOM     13  O   UNL     1      10.374  13.337  17.227  0.00  0.00    +0.000 OA
ENDBRANCH   6  13
ENDBRANCH   1  10
BRANCH   3  14
ATOM     14  C   UNL     1       6.477   6.592  16.614  0.00  0.00    +0.000 C 
BRANCH  14  15
ATOM     15  N   UNL     1       5.086   6.603  17.055  0.00  0.00    +0.000 NA
ATOM     16  H   UNL     1       4.475   6.432  16.258  0.00  0.00    +0.000 HD
BRANCH  15  17
ATOM     17  C   UNL     1       4.819   5.683  18.165  0.00  0.00    +0.000 C 
ATOM     18  C   UNL     1       5.316   4.276  18.027  0.00  0.00    +0.000 C 
ATOM     19  C   UNL     1       3.832   4.553  17.955  0.00  0.00    +0.000 C 
BRANCH  19  20
ATOM     20  C   UNL     1       2.955   4.031  19.067  0.00  0.00    +0.000 A 
ATOM     21  C   UNL     1       1.598   4.370  19.176  0.00  0.00    +0.000 A 
ATOM     22  C   UNL     1       0.805   3.868  20.214  0.00  0.00    +0.000 A 
ATOM     23  C   UNL     1       1.356   3.008  21.161  0.00  0.00    +0.000 A 
ATOM     24  C   UNL     1       2.694   2.642  21.064  0.00  0.00    +0.000 A 
ATOM     25  C   UNL     1       3.479   3.146  20.026  0.00  0.00    +0.000 A 
ENDBRANCH  19  20
ENDBRANCH  15  17
ENDBRANCH  14  15
ENDBRANCH   3  14
TORSDOF 6
ENDMDL
MODEL 8
REMARK VINA RESULT:      -7.5      5.332      7.904
REMARK  Name = 
REMARK  7 active torsions:
REMARK  status: ('A' for Active; 'I' for Inactive)
REMARK    1  A    between atoms: C_1  and  O_2
REMARK    2  A    between atoms: O_2  and  C_3
REMARK    3  A    between atoms: C_7  and  N_8
REMARK    4  A    between atoms: C_10  and  C_11
REMARK    5  A    between atoms: C_11  and  N_12
REMARK    6  A    between atoms: N_12  and  C_13
REMARK    7  A    between atoms: C_15  and  C_16
REMARK                            x       y       z     vdW  Elec       q    Type
REMARK                         _______ _______ _______ _____ _____    ______ ____
ROOT
ATOM      1  N   UNL     1       6.347   4.648  14.222  0.00  0.00    +0.000 N 
ATOM      2  C   UNL     1       5.505   4.999  15.254  0.00  0.00    +0.000 A 
ATOM      3  C   UNL     1       6.303   5.650  16.165  0.00  0.00    +0.000 A 
ATOM      4  N   UNL     1       7.573   5.730  15.655  0.00  0.00    +0.000 NA
ATOM      5  N   UNL     1       7.582   5.141  14.466  0.00  0.00    +0.000 NA
ENDROOT
BRANCH   1  10
ATOM      6  C   UNL     1       4.474   3.032  11.440  0.00  0.00    +0.000 A 
ATOM      7  C   UNL     1       5.445   2.154  10.953  0.00  0.00    +0.000 A 
ATOM      8  C   UNL     1       6.725   2.133  11.510  0.00  0.00    +0.000 A 
ATOM      9  C   UNL     1       7.037   2.978  12.578  0.00  0.00    +0.000 A 
ATOM     10  C   UNL     1       6.060   3.847  13.087  0.00  0.00    +0.000 A 
ATOM     11  C   UNL     1       4.786   3.883  12.500  0.00  0.00    +0.000 A 
BRANCH   6  13
ATOM     12  C   UNL     1       3.010   3.889   9.770  0.00  0.00    +0.000 C 
ATOM     13  O   UNL     1       3.257   2.956  10.816  0.00  0.00    +0.000 OA
ENDBRANCH   6  13
ENDBRANCH   1  10
BRANCH   3  14
ATOM     14  C   UNL     1       5.934   6.171  17.514  0.00  0.00    +0.000 C 
BRANCH  14  15
ATOM     15  N   UNL     1       4.734   6.996  17.430  0.00  0.00    +0.000 NA
ATOM     16  H   UNL     1       4.684   7.431  16.510  0.00  0.00    +0.000 HD
BRANCH  15  17
ATOM     17  C   UNL     1       3.504   6.272  17.767  0.00  0.00    +0.000 C 
ATOM     18  C   UNL     1       2.366   7.071  18.326  0.00  0.00    +0.000 C 
ATOM     19  C   UNL     1       3.122   6.121  19.225  0.00  0.00    +0.000 C 
BRANCH  19  20
ATOM     20  C   UNL     1       2.396   4.904  19.746  0.00  0.00    +0.000 A 
ATOM     21  C   UNL     1       1.600   4.094  18.923  0.00  0.00    +0.000 A 
ATOM     22  C   UNL     1       0.940   2.969  19.429  0.00  0.00    +0.000 A 
ATOM     23  C   UNL     1       1.074   2.626  20.773  0.00  0.00    +0.000 A 
ATOM     24  C   UNL     1       1.873   3.402  21.606  0.00  0.00    +0.000 A 
ATOM     25  C   UNL     1       2.527   4.524  21.094  0.00  0.00    +0.000 A 
ENDBRANCH  19  20
ENDBRANCH  15  17
ENDBRANCH  14  15
ENDBRANCH   3  14
TORSDOF 6
ENDMDL
MODEL 9
REMARK VINA RESULT:      -7.4      5.969      7.903
REMARK  Name = 
REMARK  7 active torsions:
REMARK  status: ('A' for Active; 'I' for Inactive)
REMARK    1  A    between atoms: C_1  and  O_2
REMARK    2  A    between atoms: O_2  and  C_3
REMARK    3  A    between atoms: C_7  and  N_8
REMARK    4  A    between atoms: C_10  and  C_11
REMARK    5  A    between atoms: C_11  and  N_12
REMARK    6  A    between atoms: N_12  and  C_13
REMARK    7  A    between atoms: C_15  and  C_16
REMARK                            x       y       z     vdW  Elec       q    Type
REMARK                         _______ _______ _______ _____ _____    ______ ____
ROOT
ATOM      1  N   UNL     1       2.367   6.372  19.975  0.00  0.00    +0.000 N 
ATOM      2  C   UNL     1       3.326   5.855  19.132  0.00  0.00    +0.000 A 
ATOM      3  C   UNL     1       3.542   4.571  19.575  0.00  0.00    +0.000 A 
ATOM      4  N   UNL     1       2.689   4.319  20.618  0.00  0.00    +0.000 NA
ATOM      5  N   UNL     1       1.965   5.409  20.836  0.00  0.00    +0.000 NA
ENDROOT
BRANCH   1  10
ATOM      6  C   UNL     1       0.893   9.515  21.318  0.00  0.00    +0.000 A 
ATOM      7  C   UNL     1       0.759  10.258  20.143  0.00  0.00    +0.000 A 
ATOM      8  C   UNL     1       1.200   9.741  18.924  0.00  0.00    +0.000 A 
ATOM      9  C   UNL     1       1.759   8.462  18.868  0.00  0.00    +0.000 A 
ATOM     10  C   UNL     1       1.876   7.700  20.040  0.00  0.00    +0.000 A 
ATOM     11  C   UNL     1       1.459   8.241  21.266  0.00  0.00    +0.000 A 
BRANCH   6  13
ATOM     12  C   UNL     1      -0.785  10.874  22.320  0.00  0.00    +0.000 C 
ATOM     13  O   UNL     1       0.420  10.127  22.449  0.00  0.00    +0.000 OA
ENDBRANCH   6  13
ENDBRANCH   1  10
BRANCH   3  14
ATOM     14  C   UNL     1       4.541   3.578  19.083  0.00  0.00    +0.000 C 
BRANCH  14  15
ATOM     15  N   UNL     1       4.305   3.272  17.676  0.00  0.00    +0.000 NA
ATOM     16  H   UNL     1       3.436   3.708  17.374  0.00  0.00    +0.000 HD
BRANCH  15  17
ATOM     17  C   UNL     1       5.432   3.624  16.806  0.00  0.00    +0.000 C 
ATOM     18  C   UNL     1       5.940   5.032  16.874  0.00  0.00    +0.000 C 
ATOM     19  C   UNL     1       5.191   4.568  15.646  0.00  0.00    +0.000 C 
BRANCH  19  20
ATOM     20  C   UNL     1       5.952   4.460  14.347  0.00  0.00    +0.000 A 
ATOM     21  C   UNL     1       7.144   5.160  14.114  0.00  0.00    +0.000 A 
ATOM     22  C   UNL     1       7.834   5.040  12.903  0.00  0.00    +0.000 A 
ATOM     23  C   UNL     1       7.344   4.205  11.900  0.00  0.00    +0.000 A 
ATOM     24  C   UNL     1       6.174   3.485  12.113  0.00  0.00    +0.000 A 
ATOM     25  C   UNL     1       5.491   3.611  13.325  0.00  0.00    +0.000 A 
ENDBRANCH  19  20
ENDBRANCH  15  17
ENDBRANCH  14  15
ENDBRANCH   3  14
TORSDOF 6
ENDMDL
