MODEL 1
REMARK VINA RESULT:      -7.5      0.000      0.000
REMARK  Name = 
REMARK  17 active torsions:
REMARK  status: ('A' for Active; 'I' for Inactive)
REMARK    1  A    between atoms: C_1  and  O_2
REMARK    2  A    between atoms: O_2  and  C_3
REMARK    3  A    between atoms: C_5  and  C_6
REMARK    4  A    between atoms: C_6  and  C_7
REMARK    5  A    between atoms: N_8  and  O_9
REMARK    6  A    between atoms: O_9  and  C_10
REMARK    7  A    between atoms: C_10  and  C_11
REMARK    8  A    between atoms: C_11  and  C_12
REMARK    9  A    between atoms: C_12  and  C_13
REMARK   10  A    between atoms: C_13  and  O_14
REMARK   11  A    between atoms: O_14  and  N_15
REMARK   12  A    between atoms: C_16  and  C_17
REMARK   13  A    between atoms: C_16  and  C_22
REMARK   14  A    between atoms: C_17  and  C_18
REMARK   15  A    between atoms: C_18  and  C_19
REMARK   16  A    between atoms: C_19  and  O_21
REMARK   17  A    between atoms: C_30  and  C_31
REMARK                            x       y       z     vdW  Elec       q    Type
REMARK                         _______ _______ _______ _____ _____    ______ ____
ROOT
ATOM      1  C   UNL     1       6.732   5.946  17.617  0.00  0.00    +0.000 C 
ENDROOT
BRANCH   1   2
ATOM      2  C   UNL     1       7.842   6.836  18.183  0.00  0.00    +0.000 C 
BRANCH   2   3
ATOM      3  C   UNL     1       7.766   8.278  17.694  0.00  0.00    +0.000 C 
BRANCH   3   4
ATOM      4  O   UNL     1       8.498   9.092  18.607  0.00  0.00    +0.000 OA
BRANCH   4   7
ATOM      5  C   UNL     1       9.439  11.111  18.774  0.00  0.00    +0.000 C 
ATOM      6  C   UNL     1       9.613  10.796  20.245  0.00  0.00    +0.000 C 
ATOM      7  N   UNL     1       8.916  10.251  17.938  0.00  0.00    +0.000 NA
BRANCH   5  10
ATOM      8  C   UNL     1       9.506  14.806  17.952  0.00  0.00    +0.000 A 
ATOM      9  C   UNL     1       9.108  13.554  18.429  0.00  0.00    +0.000 A 
ATOM     10  C   UNL     1       9.914  12.422  18.246  0.00  0.00    +0.000 A 
ATOM     11  C   UNL     1      11.141  12.554  17.589  0.00  0.00    +0.000 A 
ATOM     12  C   UNL     1      11.549  13.805  17.114  0.00  0.00    +0.000 A 
ATOM     13  C   UNL     1      10.741  14.937  17.290  0.00  0.00    +0.000 A 
ATOM     14  C   UNL     1      11.208  16.275  16.786  0.00  0.00    +0.000 C 
BRANCH   8  16
ATOM     15  C   UNL     1       8.553  16.447  19.396  0.00  0.00    +0.000 C 
ATOM     16  O   UNL     1       8.770  15.958  18.077  0.00  0.00    +0.000 OA
ENDBRANCH   8  16
ENDBRANCH   5  10
ENDBRANCH   4   7
ENDBRANCH   3   4
ENDBRANCH   2   3
ENDBRANCH   1   2
BRANCH   1  17
ATOM     17  C   UNL     1       6.365   4.780  18.534  0.00  0.00    +0.000 C 
BRANCH  17  18
ATOM     18  O   UNL     1       5.040   5.001  19.012  0.00  0.00    +0.000 OA
BRANCH  18  19
ATOM     19  N   UNL     1       4.131   4.220  18.303  0.00  0.00    +0.000 NA
ATOM     20  C   UNL     1       2.951   4.773  18.213  0.00  0.00    +0.000 C 
BRANCH  20  21
ATOM     21  C   UNL     1       2.543   6.125  18.746  0.00  0.00    +0.000 A 
ATOM     22  C   UNL     1       2.143   6.302  20.080  0.00  0.00    +0.000 A 
ATOM     23  C   UNL     1       1.711   7.550  20.539  0.00  0.00    +0.000 A 
ATOM     24  C   UNL     1       1.715   8.648  19.685  0.00  0.00    +0.000 A 
ATOM     25  C   UNL     1       2.138   8.493  18.367  0.00  0.00    +0.000 A 
ATOM     26  C   UNL     1       2.538   7.238  17.896  0.00  0.00    +0.000 A 
ENDBRANCH  20  21
BRANCH  20  27
ATOM     27  C   UNL     1       1.895   3.924  17.498  0.00  0.00    +0.000 C 
BRANCH  27  28
ATOM     28  C   UNL     1       1.043   3.098  18.459  0.00  0.00    +0.000 C 
BRANCH  28  29
ATOM     29  C   UNL     1       1.855   2.198  19.354  0.00  0.00    +0.000 C 
ATOM     30  O   UNL     1       1.812   2.240  20.575  0.00  0.00    +0.000 OA
BRANCH  29  31
ATOM     31  O   UNL     1       2.636   1.324  18.689  0.00  0.00    +0.000 OA
ATOM     32  H   UNL     1       2.158   0.767  18.034  0.00  0.00    +0.000 HD
ENDBRANCH  29  31
ENDBRANCH  28  29
ENDBRANCH  27  28
ENDBRANCH  20  27
ENDBRANCH  18  19
ENDBRANCH  17  18
ENDBRANCH   1  17
TORSDOF 14
ENDMDL
MODEL 2
REMARK VINA RESULT:      -7.4      4.950      8.051
REMARK  Name = 
REMARK  17 active torsions:
REMARK  status: ('A' for Active; 'I' for Inactive)
REMARK    1  A    between atoms: C_1  and  O_2
REMARK    2  A    between atoms: O_2  and  C_3
REMARK    3  A    between atoms: C_5  and  C_6
REMARK    4  A    between atoms: C_6  and  C_7
REMARK    5  A    between atoms: N_8  and  O_9
REMARK    6  A    between atoms: O_9  and  C_10
REMARK    7  A    between atoms: C_10  and  C_11
REMARK    8  A    between atoms: C_11  and  C_12
REMARK    9  A    between atoms: C_12  and  C_13
REMARK   10  A    between atoms: C_13  and  O_14
REMARK   11  A    between atoms: O_14  and  N_15
REMARK   12  A    between atoms: C_16  and  C_17
REMARK   13  A    between atoms: C_16  and  C_22
REMARK   14  A    between atoms: C_17  and  C_18
REMARK   15  A    between atoms: C_18  and  C_19
REMARK   16  A    between atoms: C_19  and  O_21
REMARK   17  A    between atoms: C_30  and  C_31
REMARK                            x       y       z     vdW  Elec       q    Type
REMARK                         _______ _______ _______ _____ _____    ______ ____
ROOT
ATOM      1  C   UNL     1       3.244   2.776  19.482  0.00  0.00    +0.000 C 
ENDROOT
BRANCH   1   2
ATOM      2  C   UNL     1       1.736   2.788  19.745  0.00  0.00    +0.000 C 
BRANCH   2   3
ATOM      3  C   UNL     1       1.277   3.984  20.571  0.00  0.00    +0.000 C 
BRANCH   3   4
ATOM      4  O   UNL     1       2.331   4.945  20.576  0.00  0.00    +0.000 OA
BRANCH   4   7
ATOM      5  C   UNL     1       2.073   7.007  19.755  0.00  0.00    +0.000 C 
ATOM      6  C   UNL     1       2.854   6.517  18.555  0.00  0.00    +0.000 C 
ATOM      7  N   UNL     1       1.773   6.220  20.756  0.00  0.00    +0.000 NA
BRANCH   5  10
ATOM      8  C   UNL     1       0.656  10.259  21.081  0.00  0.00    +0.000 A 
ATOM      9  C   UNL     1       1.122   8.943  20.998  0.00  0.00    +0.000 A 
ATOM     10  C   UNL     1       1.590   8.418  19.786  0.00  0.00    +0.000 A 
ATOM     11  C   UNL     1       1.605   9.230  18.648  0.00  0.00    +0.000 A 
ATOM     12  C   UNL     1       1.146  10.549  18.723  0.00  0.00    +0.000 A 
ATOM     13  C   UNL     1       0.671  11.074  19.933  0.00  0.00    +0.000 A 
ATOM     14  C   UNL     1       0.199  12.500  19.995  0.00  0.00    +0.000 C 
BRANCH   8  16
ATOM     15  C   UNL     1      -0.529  10.000  23.133  0.00  0.00    +0.000 C 
ATOM     16  O   UNL     1       0.169  10.843  22.222  0.00  0.00    +0.000 OA
ENDBRANCH   8  16
ENDBRANCH   5  10
ENDBRANCH   4   7
ENDBRANCH   3   4
ENDBRANCH   2   3
ENDBRANCH   1   2
BRANCH   1  17
ATOM     17  C   UNL     1       3.599   2.686  17.998  0.00  0.00    +0.000 C 
BRANCH  17  18
ATOM     18  O   UNL     1       4.547   3.712  17.713  0.00  0.00    +0.000 OA
BRANCH  18  19
ATOM     19  N   UNL     1       4.820   3.756  16.348  0.00  0.00    +0.000 NA
ATOM     20  C   UNL     1       5.769   4.602  16.049  0.00  0.00    +0.000 C 
BRANCH  20  21
ATOM     21  C   UNL     1       6.567   5.445  17.014  0.00  0.00    +0.000 A 
ATOM     22  C   UNL     1       6.664   6.838  16.871  0.00  0.00    +0.000 A 
ATOM     23  C   UNL     1       7.456   7.595  17.740  0.00  0.00    +0.000 A 
ATOM     24  C   UNL     1       8.127   6.976  18.790  0.00  0.00    +0.000 A 
ATOM     25  C   UNL     1       8.016   5.599  18.963  0.00  0.00    +0.000 A 
ATOM     26  C   UNL     1       7.251   4.835  18.074  0.00  0.00    +0.000 A 
ENDBRANCH  20  21
BRANCH  20  27
ATOM     27  C   UNL     1       6.064   4.736  14.552  0.00  0.00    +0.000 C 
BRANCH  27  28
ATOM     28  C   UNL     1       6.170   3.388  13.842  0.00  0.00    +0.000 C 
BRANCH  28  29
ATOM     29  C   UNL     1       6.038   3.489  12.345  0.00  0.00    +0.000 C 
ATOM     30  O   UNL     1       5.046   3.126  11.727  0.00  0.00    +0.000 OA
BRANCH  29  31
ATOM     31  O   UNL     1       7.111   4.030  11.735  0.00  0.00    +0.000 OA
ATOM     32  H   UNL     1       7.094   5.011  11.677  0.00  0.00    +0.000 HD
ENDBRANCH  29  31
ENDBRANCH  28  29
ENDBRANCH  27  28
ENDBRANCH  20  27
ENDBRANCH  18  19
ENDBRANCH  17  18
ENDBRANCH   1  17
TORSDOF 14
ENDMDL
MODEL 3
REMARK VINA RESULT:      -7.3      2.329      3.222
REMARK  Name = 
REMARK  17 active torsions:
REMARK  status: ('A' for Active; 'I' for Inactive)
REMARK    1  A    between atoms: C_1  and  O_2
REMARK    2  A    between atoms: O_2  and  C_3
REMARK    3  A    between atoms: C_5  and  C_6
REMARK    4  A    between atoms: C_6  and  C_7
REMARK    5  A    between atoms: N_8  and  O_9
REMARK    6  A    between atoms: O_9  and  C_10
REMARK    7  A    between atoms: C_10  and  C_11
REMARK    8  A    between atoms: C_11  and  C_12
REMARK    9  A    between atoms: C_12  and  C_13
REMARK   10  A    between atoms: C_13  and  O_14
REMARK   11  A    between atoms: O_14  and  N_15
REMARK   12  A    between atoms: C_16  and  C_17
REMARK   13  A    between atoms: C_16  and  C_22
REMARK   14  A    between atoms: C_17  and  C_18
REMARK   15  A    between atoms: C_18  and  C_19
REMARK   16  A    between atoms: C_19  and  O_21
REMARK   17  A    between atoms: C_30  and  C_31
REMARK                            x       y       z     vdW  Elec       q    Type
REMARK                         _______ _______ _______ _____ _____    ______ ____
ROOT
ATOM      1  C   UNL     1       8.033   6.710  18.746  0.00  0.00    +0.000 C 
ENDROOT
BRANCH   1   2
ATOM      2  C   UNL     1       7.596   7.541  17.537  0.00  0.00    +0.000 C 
BRANCH   2   3
ATOM      3  C   UNL     1       7.819   9.037  17.722  0.00  0.00    +0.000 C 
BRANCH   3   4
ATOM      4  O   UNL     1       9.057   9.217  18.407  0.00  0.00    +0.000 OA
BRANCH   4   7
ATOM      5  C   UNL     1       9.600  11.200  19.279  0.00  0.00    +0.000 C 
ATOM      6  C   UNL     1      10.463  11.391  18.050  0.00  0.00    +0.000 C 
ATOM      7  N   UNL     1       8.863  10.133  19.451  0.00  0.00    +0.000 NA
BRANCH   5  10
ATOM      8  C   UNL     1       8.986  12.940  22.586  0.00  0.00    +0.000 A 
ATOM      9  C   UNL     1       9.057  11.966  21.584  0.00  0.00    +0.000 A 
ATOM     10  C   UNL     1       9.549  12.277  20.310  0.00  0.00    +0.000 A 
ATOM     11  C   UNL     1       9.988  13.578  20.043  0.00  0.00    +0.000 A 
ATOM     12  C   UNL     1       9.926  14.556  21.041  0.00  0.00    +0.000 A 
ATOM     13  C   UNL     1       9.428  14.248  22.315  0.00  0.00    +0.000 A 
ATOM     14  C   UNL     1       9.387  15.311  23.378  0.00  0.00    +0.000 C 
BRANCH   8  16
ATOM     15  C   UNL     1       7.269  12.026  23.964  0.00  0.00    +0.000 C 
ATOM     16  O   UNL     1       8.506  12.721  23.852  0.00  0.00    +0.000 OA
ENDBRANCH   8  16
ENDBRANCH   5  10
ENDBRANCH   4   7
ENDBRANCH   3   4
ENDBRANCH   2   3
ENDBRANCH   1   2
BRANCH   1  17
ATOM     17  C   UNL     1       7.535   5.266  18.699  0.00  0.00    +0.000 C 
BRANCH  17  18
ATOM     18  O   UNL     1       6.429   5.156  19.592  0.00  0.00    +0.000 OA
BRANCH  18  19
ATOM     19  N   UNL     1       5.748   3.960  19.380  0.00  0.00    +0.000 NA
ATOM     20  C   UNL     1       4.524   4.142  18.963  0.00  0.00    +0.000 C 
BRANCH  20  21
ATOM     21  C   UNL     1       3.855   5.462  18.671  0.00  0.00    +0.000 A 
ATOM     22  C   UNL     1       4.096   6.164  17.479  0.00  0.00    +0.000 A 
ATOM     23  C   UNL     1       3.512   7.415  17.253  0.00  0.00    +0.000 A 
ATOM     24  C   UNL     1       2.645   7.961  18.194  0.00  0.00    +0.000 A 
ATOM     25  C   UNL     1       2.372   7.262  19.367  0.00  0.00    +0.000 A 
ATOM     26  C   UNL     1       2.982   6.027  19.611  0.00  0.00    +0.000 A 
ENDBRANCH  20  21
BRANCH  20  27
ATOM     27  C   UNL     1       3.711   2.857  18.775  0.00  0.00    +0.000 C 
BRANCH  27  28
ATOM     28  C   UNL     1       2.570   2.721  19.782  0.00  0.00    +0.000 C 
BRANCH  28  29
ATOM     29  C   UNL     1       3.043   2.610  21.208  0.00  0.00    +0.000 C 
ATOM     30  O   UNL     1       2.420   3.051  22.164  0.00  0.00    +0.000 OA
BRANCH  29  31
ATOM     31  O   UNL     1       4.219   1.967  21.347  0.00  0.00    +0.000 OA
ATOM     32  H   UNL     1       4.906   2.475  21.835  0.00  0.00    +0.000 HD
ENDBRANCH  29  31
ENDBRANCH  28  29
ENDBRANCH  27  28
ENDBRANCH  20  27
ENDBRANCH  18  19
ENDBRANCH  17  18
ENDBRANCH   1  17
TORSDOF 14
ENDMDL
MODEL 4
REMARK VINA RESULT:      -7.3      5.866      9.398
REMARK  Name = 
REMARK  17 active torsions:
REMARK  status: ('A' for Active; 'I' for Inactive)
REMARK    1  A    between atoms: C_1  and  O_2
REMARK    2  A    between atoms: O_2  and  C_3
REMARK    3  A    between atoms: C_5  and  C_6
REMARK    4  A    between atoms: C_6  and  C_7
REMARK    5  A    between atoms: N_8  and  O_9
REMARK    6  A    between atoms: O_9  and  C_10
REMARK    7  A    between atoms: C_10  and  C_11
REMARK    8  A    between atoms: C_11  and  C_12
REMARK    9  A    between atoms: C_12  and  C_13
REMARK   10  A    between atoms: C_13  and  O_14
REMARK   11  A    between atoms: O_14  and  N_15
REMARK   12  A    between atoms: C_16  and  C_17
REMARK   13  A    between atoms: C_16  and  C_22
REMARK   14  A    between atoms: C_17  and  C_18
REMARK   15  A    between atoms: C_18  and  C_19
REMARK   16  A    between atoms: C_19  and  O_21
REMARK   17  A    between atoms: C_30  and  C_31
REMARK                            x       y       z     vdW  Elec       q    Type
REMARK                         _______ _______ _______ _____ _____    ______ ____
ROOT
ATOM      1  C   UNL     1       0.966   9.334  18.180  0.00  0.00    +0.000 C 
ENDROOT
BRANCH   1   2
ATOM      2  C   UNL     1       0.779   9.581  19.679  0.00  0.00    +0.000 C 
BRANCH   2   3
ATOM      3  C   UNL     1       0.996  11.035  20.082  0.00  0.00    +0.000 C 
BRANCH   3   4
ATOM      4  O   UNL     1       0.932  11.112  21.504  0.00  0.00    +0.000 OA
BRANCH   4   7
ATOM      5  C   UNL     1      -0.841  11.809  22.670  0.00  0.00    +0.000 C 
ATOM      6  C   UNL     1      -0.933  10.389  23.186  0.00  0.00    +0.000 C 
ATOM      7  N   UNL     1       0.109  12.192  21.857  0.00  0.00    +0.000 NA
BRANCH   5  10
ATOM      8  C   UNL     1      -2.274  15.075  23.944  0.00  0.00    +0.000 A 
ATOM      9  C   UNL     1      -1.382  14.092  23.502  0.00  0.00    +0.000 A 
ATOM     10  C   UNL     1      -1.837  12.820  23.131  0.00  0.00    +0.000 A 
ATOM     11  C   UNL     1      -3.205  12.537  23.191  0.00  0.00    +0.000 A 
ATOM     12  C   UNL     1      -4.104  13.515  23.626  0.00  0.00    +0.000 A 
ATOM     13  C   UNL     1      -3.650  14.787  24.004  0.00  0.00    +0.000 A 
ATOM     14  C   UNL     1      -4.637  15.830  24.452  0.00  0.00    +0.000 C 
BRANCH   8  16
ATOM     15  C   UNL     1      -1.273  17.160  23.366  0.00  0.00    +0.000 C 
ATOM     16  O   UNL     1      -1.909  16.338  24.338  0.00  0.00    +0.000 OA
ENDBRANCH   8  16
ENDBRANCH   5  10
ENDBRANCH   4   7
ENDBRANCH   3   4
ENDBRANCH   2   3
ENDBRANCH   1   2
BRANCH   1  17
ATOM     17  C   UNL     1       2.345   8.779  17.826  0.00  0.00    +0.000 C 
BRANCH  17  18
ATOM     18  O   UNL     1       2.332   7.378  18.092  0.00  0.00    +0.000 OA
BRANCH  18  19
ATOM     19  N   UNL     1       3.469   6.771  17.562  0.00  0.00    +0.000 NA
ATOM     20  C   UNL     1       3.564   5.509  17.882  0.00  0.00    +0.000 C 
BRANCH  20  21
ATOM     21  C   UNL     1       2.577   4.703  18.689  0.00  0.00    +0.000 A 
ATOM     22  C   UNL     1       2.459   4.859  20.079  0.00  0.00    +0.000 A 
ATOM     23  C   UNL     1       1.580   4.062  20.819  0.00  0.00    +0.000 A 
ATOM     24  C   UNL     1       0.776   3.127  20.175  0.00  0.00    +0.000 A 
ATOM     25  C   UNL     1       0.860   2.983  18.792  0.00  0.00    +0.000 A 
ATOM     26  C   UNL     1       1.763   3.756  18.055  0.00  0.00    +0.000 A 
ENDBRANCH  20  21
BRANCH  20  27
ATOM     27  C   UNL     1       4.832   4.811  17.377  0.00  0.00    +0.000 C 
BRANCH  27  28
ATOM     28  C   UNL     1       6.112   5.417  17.946  0.00  0.00    +0.000 C 
BRANCH  28  29
ATOM     29  C   UNL     1       7.296   5.286  17.022  0.00  0.00    +0.000 C 
ATOM     30  O   UNL     1       7.607   6.134  16.197  0.00  0.00    +0.000 OA
BRANCH  29  31
ATOM     31  O   UNL     1       7.998   4.149  17.190  0.00  0.00    +0.000 OA
ATOM     32  H   UNL     1       8.584   3.918  16.434  0.00  0.00    +0.000 HD
ENDBRANCH  29  31
ENDBRANCH  28  29
ENDBRANCH  27  28
ENDBRANCH  20  27
ENDBRANCH  18  19
ENDBRANCH  17  18
ENDBRANCH   1  17
TORSDOF 14
ENDMDL
MODEL 5
REMARK VINA RESULT:      -7.3      4.942      8.120
REMARK  Name = 
REMARK  17 active torsions:
REMARK  status: ('A' for Active; 'I' for Inactive)
REMARK    1  A    between atoms: C_1  and  O_2
REMARK    2  A    between atoms: O_2  and  C_3
REMARK    3  A    between atoms: C_5  and  C_6
REMARK    4  A    between atoms: C_6  and  C_7
REMARK    5  A    between atoms: N_8  and  O_9
REMARK    6  A    between atoms: O_9  and  C_10
REMARK    7  A    between atoms: C_10  and  C_11
REMARK    8  A    between atoms: C_11  and  C_12
REMARK    9  A    between atoms: C_12  and  C_13
REMARK   10  A    between atoms: C_13  and  O_14
REMARK   11  A    between atoms: O_14  and  N_15
REMARK   12  A    between atoms: C_16  and  C_17
REMARK   13  A    between atoms: C_16  and  C_22
REMARK   14  A    between atoms: C_17  and  C_18
REMARK   15  A    between atoms: C_18  and  C_19
REMARK   16  A    between atoms: C_19  and  O_21
REMARK   17  A    between atoms: C_30  and  C_31
REMARK                            x       y       z     vdW  Elec       q    Type
REMARK                         _______ _______ _______ _____ _____    ______ ____
ROOT
ATOM      1  C   UNL     1       1.920   3.237  18.079  0.00  0.00    +0.000 C 
ENDROOT
BRANCH   1   2
ATOM      2  C   UNL     1       1.455   2.625  19.403  0.00  0.00    +0.000 C 
BRANCH   2   3
ATOM      3  C   UNL     1       1.022   3.665  20.428  0.00  0.00    +0.000 C 
BRANCH   3   4
ATOM      4  O   UNL     1       2.003   4.699  20.449  0.00  0.00    +0.000 OA
BRANCH   4   7
ATOM      5  C   UNL     1       1.820   6.914  20.224  0.00  0.00    +0.000 C 
ATOM      6  C   UNL     1       2.770   6.772  19.054  0.00  0.00    +0.000 C 
ATOM      7  N   UNL     1       1.400   5.880  20.907  0.00  0.00    +0.000 NA
BRANCH   5  10
ATOM      8  C   UNL     1       0.928  10.583  19.937  0.00  0.00    +0.000 A 
ATOM      9  C   UNL     1       1.391   9.296  19.644  0.00  0.00    +0.000 A 
ATOM     10  C   UNL     1       1.309   8.267  20.590  0.00  0.00    +0.000 A 
ATOM     11  C   UNL     1       0.743   8.529  21.842  0.00  0.00    +0.000 A 
ATOM     12  C   UNL     1       0.272   9.812  22.142  0.00  0.00    +0.000 A 
ATOM     13  C   UNL     1       0.359  10.845  21.198  0.00  0.00    +0.000 A 
ATOM     14  C   UNL     1      -0.169  12.212  21.535  0.00  0.00    +0.000 C 
BRANCH   8  16
ATOM     15  C   UNL     1       2.160  11.776  18.281  0.00  0.00    +0.000 C 
ATOM     16  O   UNL     1       0.985  11.647  19.074  0.00  0.00    +0.000 OA
ENDBRANCH   8  16
ENDBRANCH   5  10
ENDBRANCH   4   7
ENDBRANCH   3   4
ENDBRANCH   2   3
ENDBRANCH   1   2
BRANCH   1  17
ATOM     17  C   UNL     1       3.360   2.872  17.717  0.00  0.00    +0.000 C 
BRANCH  17  18
ATOM     18  O   UNL     1       3.973   4.027  17.148  0.00  0.00    +0.000 OA
BRANCH  18  19
ATOM     19  N   UNL     1       4.585   3.708  15.940  0.00  0.00    +0.000 NA
ATOM     20  C   UNL     1       5.754   4.274  15.799  0.00  0.00    +0.000 C 
BRANCH  20  21
ATOM     21  C   UNL     1       6.460   5.151  16.804  0.00  0.00    +0.000 A 
ATOM     22  C   UNL     1       6.410   6.552  16.723  0.00  0.00    +0.000 A 
ATOM     23  C   UNL     1       7.120   7.348  17.628  0.00  0.00    +0.000 A 
ATOM     24  C   UNL     1       7.853   6.757  18.651  0.00  0.00    +0.000 A 
ATOM     25  C   UNL     1       7.887   5.369  18.762  0.00  0.00    +0.000 A 
ATOM     26  C   UNL     1       7.206   4.570  17.837  0.00  0.00    +0.000 A 
ENDBRANCH  20  21
BRANCH  20  27
ATOM     27  C   UNL     1       6.442   4.006  14.457  0.00  0.00    +0.000 C 
BRANCH  27  28
ATOM     28  C   UNL     1       5.464   3.945  13.287  0.00  0.00    +0.000 C 
BRANCH  28  29
ATOM     29  C   UNL     1       5.979   3.145  12.118  0.00  0.00    +0.000 C 
ATOM     30  O   UNL     1       7.105   3.269  11.658  0.00  0.00    +0.000 OA
BRANCH  29  31
ATOM     31  O   UNL     1       5.089   2.264  11.622  0.00  0.00    +0.000 OA
ATOM     32  H   UNL     1       4.213   2.652  11.398  0.00  0.00    +0.000 HD
ENDBRANCH  29  31
ENDBRANCH  28  29
ENDBRANCH  27  28
ENDBRANCH  20  27
ENDBRANCH  18  19
ENDBRANCH  17  18
ENDBRANCH   1  17
TORSDOF 14
ENDMDL
MODEL 6
REMARK VINA RESULT:      -7.2      6.479     10.716
REMARK  Name = 
REMARK  17 active torsions:
REMARK  status: ('A' for Active; 'I' for Inactive)
REMARK    1  A    between atoms: C_1  and  O_2
REMARK    2  A    between atoms: O_2  and  C_3
REMARK    3  A    between atoms: C_5  and  C_6
REMARK    4  A    between atoms: C_6  and  C_7
REMARK    5  A    between atoms: N_8  and  O_9
REMARK    6  A    between atoms: O_9  and  C_10
REMARK    7  A    between atoms: C_10  and  C_11
REMARK    8  A    between atoms: C_11  and  C_12
REMARK    9  A    between atoms: C_12  and  C_13
REMARK   10  A    between atoms: C_13  and  O_14
REMARK   11  A    between atoms: O_14  and  N_15
REMARK   12  A    between atoms: C_16  and  C_17
REMARK   13  A    between atoms: C_16  and  C_22
REMARK   14  A    between atoms: C_17  and  C_18
REMARK   15  A    between atoms: C_18  and  C_19
REMARK   16  A    between atoms: C_19  and  O_21
REMARK   17  A    between atoms: C_30  and  C_31
REMARK                            x       y       z     vdW  Elec       q    Type
REMARK                         _______ _______ _______ _____ _____    ______ ____
ROOT
ATOM      1  C   UNL     1      -0.979  10.365  19.110  0.00  0.00    +0.000 C 
ENDROOT
BRANCH   1   2
ATOM      2  C   UNL     1      -0.810  10.437  20.630  0.00  0.00    +0.000 C 
BRANCH   2   3
ATOM      3  C   UNL     1       0.434   9.716  21.132  0.00  0.00    +0.000 C 
BRANCH   3   4
ATOM      4  O   UNL     1       1.166   9.257  19.998  0.00  0.00    +0.000 OA
BRANCH   4   7
ATOM      5  C   UNL     1       2.210   7.440  19.225  0.00  0.00    +0.000 C 
ATOM      6  C   UNL     1       2.218   8.139  17.883  0.00  0.00    +0.000 C 
ATOM      7  N   UNL     1       1.720   8.004  20.299  0.00  0.00    +0.000 NA
BRANCH   5  10
ATOM      8  C   UNL     1       2.529   3.729  19.909  0.00  0.00    +0.000 A 
ATOM      9  C   UNL     1       2.010   5.021  19.778  0.00  0.00    +0.000 A 
ATOM     10  C   UNL     1       2.816   6.082  19.345  0.00  0.00    +0.000 A 
ATOM     11  C   UNL     1       4.156   5.839  19.027  0.00  0.00    +0.000 A 
ATOM     12  C   UNL     1       4.682   4.550  19.150  0.00  0.00    +0.000 A 
ATOM     13  C   UNL     1       3.878   3.487  19.589  0.00  0.00    +0.000 A 
ATOM     14  C   UNL     1       4.460   2.105  19.697  0.00  0.00    +0.000 C 
BRANCH   8  16
ATOM     15  C   UNL     1       1.473   2.594  21.720  0.00  0.00    +0.000 C 
ATOM     16  O   UNL     1       1.812   2.641  20.339  0.00  0.00    +0.000 OA
ENDBRANCH   8  16
ENDBRANCH   5  10
ENDBRANCH   4   7
ENDBRANCH   3   4
ENDBRANCH   2   3
ENDBRANCH   1   2
BRANCH   1  17
ATOM     17  C   UNL     1      -1.107  11.737  18.449  0.00  0.00    +0.000 C 
BRANCH  17  18
ATOM     18  O   UNL     1      -2.447  11.871  17.978  0.00  0.00    +0.000 OA
BRANCH  18  19
ATOM     19  N   UNL     1      -2.609  11.195  16.773  0.00  0.00    +0.000 NA
ATOM     20  C   UNL     1      -3.861  10.950  16.494  0.00  0.00    +0.000 C 
BRANCH  20  21
ATOM     21  C   UNL     1      -5.065  11.360  17.306  0.00  0.00    +0.000 A 
ATOM     22  C   UNL     1      -5.766  12.547  17.040  0.00  0.00    +0.000 A 
ATOM     23  C   UNL     1      -6.843  12.939  17.841  0.00  0.00    +0.000 A 
ATOM     24  C   UNL     1      -7.263  12.130  18.892  0.00  0.00    +0.000 A 
ATOM     25  C   UNL     1      -6.597  10.934  19.148  0.00  0.00    +0.000 A 
ATOM     26  C   UNL     1      -5.497  10.556  18.370  0.00  0.00    +0.000 A 
ENDBRANCH  20  21
BRANCH  20  27
ATOM     27  C   UNL     1      -4.090  10.149  15.208  0.00  0.00    +0.000 C 
BRANCH  27  28
ATOM     28  C   UNL     1      -2.821   9.983  14.375  0.00  0.00    +0.000 C 
BRANCH  28  29
ATOM     29  C   UNL     1      -3.094   9.753  12.911  0.00  0.00    +0.000 C 
ATOM     30  O   UNL     1      -4.206   9.836  12.409  0.00  0.00    +0.000 OA
BRANCH  29  31
ATOM     31  O   UNL     1      -1.996   9.454  12.189  0.00  0.00    +0.000 OA
ATOM     32  H   UNL     1      -1.706  10.167  11.576  0.00  0.00    +0.000 HD
ENDBRANCH  29  31
ENDBRANCH  28  29
ENDBRANCH  27  28
ENDBRANCH  20  27
ENDBRANCH  18  19
ENDBRANCH  17  18
ENDBRANCH   1  17
TORSDOF 14
ENDMDL
MODEL 7
REMARK VINA RESULT:      -7.1      5.974      9.319
REMARK  Name = 
REMARK  17 active torsions:
REMARK  status: ('A' for Active; 'I' for Inactive)
REMARK    1  A    between atoms: C_1  and  O_2
REMARK    2  A    between atoms: O_2  and  C_3
REMARK    3  A    between atoms: C_5  and  C_6
REMARK    4  A    between atoms: C_6  and  C_7
REMARK    5  A    between atoms: N_8  and  O_9
REMARK    6  A    between atoms: O_9  and  C_10
REMARK    7  A    between atoms: C_10  and  C_11
REMARK    8  A    between atoms: C_11  and  C_12
REMARK    9  A    between atoms: C_12  and  C_13
REMARK   10  A    between atoms: C_13  and  O_14
REMARK   11  A    between atoms: O_14  and  N_15
REMARK   12  A    between atoms: C_16  and  C_17
REMARK   13  A    between atoms: C_16  and  C_22
REMARK   14  A    between atoms: C_17  and  C_18
REMARK   15  A    between atoms: C_18  and  C_19
REMARK   16  A    between atoms: C_19  and  O_21
REMARK   17  A    between atoms: C_30  and  C_31
REMARK                            x       y       z     vdW  Elec       q    Type
REMARK                         _______ _______ _______ _____ _____    ______ ____
ROOT
ATOM      1  C   UNL     1       2.873   7.949  17.827  0.00  0.00    +0.000 C 
ENDROOT
BRANCH   1   2
ATOM      2  C   UNL     1       1.743   8.957  17.604  0.00  0.00    +0.000 C 
BRANCH   2   3
ATOM      3  C   UNL     1       1.348   9.709  18.869  0.00  0.00    +0.000 C 
BRANCH   3   4
ATOM      4  O   UNL     1       0.223  10.529  18.561  0.00  0.00    +0.000 OA
BRANCH   4   7
ATOM      5  C   UNL     1      -1.046  11.802  19.887  0.00  0.00    +0.000 C 
ATOM      6  C   UNL     1      -0.716  12.938  18.943  0.00  0.00    +0.000 C 
ATOM      7  N   UNL     1      -0.613  10.584  19.686  0.00  0.00    +0.000 NA
BRANCH   5  10
ATOM      8  C   UNL     1      -4.071  12.853  21.908  0.00  0.00    +0.000 A 
ATOM      9  C   UNL     1      -3.206  12.589  20.841  0.00  0.00    +0.000 A 
ATOM     10  C   UNL     1      -1.927  12.062  21.062  0.00  0.00    +0.000 A 
ATOM     11  C   UNL     1      -1.518  11.782  22.370  0.00  0.00    +0.000 A 
ATOM     12  C   UNL     1      -2.378  12.038  23.442  0.00  0.00    +0.000 A 
ATOM     13  C   UNL     1      -3.656  12.572  23.224  0.00  0.00    +0.000 A 
ATOM     14  C   UNL     1      -4.571  12.822  24.391  0.00  0.00    +0.000 C 
BRANCH   8  16
ATOM     15  C   UNL     1      -6.278  12.620  21.040  0.00  0.00    +0.000 C 
ATOM     16  O   UNL     1      -5.330  13.381  21.779  0.00  0.00    +0.000 OA
ENDBRANCH   8  16
ENDBRANCH   5  10
ENDBRANCH   4   7
ENDBRANCH   3   4
ENDBRANCH   2   3
ENDBRANCH   1   2
BRANCH   1  17
ATOM     17  C   UNL     1       2.499   6.823  18.791  0.00  0.00    +0.000 C 
BRANCH  17  18
ATOM     18  O   UNL     1       3.707   6.287  19.326  0.00  0.00    +0.000 OA
BRANCH  18  19
ATOM     19  N   UNL     1       3.480   5.029  19.877  0.00  0.00    +0.000 NA
ATOM     20  C   UNL     1       4.103   4.076  19.238  0.00  0.00    +0.000 C 
BRANCH  20  21
ATOM     21  C   UNL     1       5.026   4.234  18.054  0.00  0.00    +0.000 A 
ATOM     22  C   UNL     1       6.390   4.526  18.215  0.00  0.00    +0.000 A 
ATOM     23  C   UNL     1       7.217   4.728  17.105  0.00  0.00    +0.000 A 
ATOM     24  C   UNL     1       6.702   4.597  15.819  0.00  0.00    +0.000 A 
ATOM     25  C   UNL     1       5.358   4.278  15.644  0.00  0.00    +0.000 A 
ATOM     26  C   UNL     1       4.522   4.110  16.753  0.00  0.00    +0.000 A 
ENDBRANCH  20  21
BRANCH  20  27
ATOM     27  C   UNL     1       3.834   2.663  19.766  0.00  0.00    +0.000 C 
BRANCH  27  28
ATOM     28  C   UNL     1       2.359   2.412  20.070  0.00  0.00    +0.000 C 
BRANCH  28  29
ATOM     29  C   UNL     1       1.536   2.127  18.841  0.00  0.00    +0.000 C 
ATOM     30  O   UNL     1       0.337   2.354  18.762  0.00  0.00    +0.000 OA
BRANCH  29  31
ATOM     31  O   UNL     1       2.241   1.603  17.819  0.00  0.00    +0.000 OA
ATOM     32  H   UNL     1       3.215   1.708  17.901  0.00  0.00    +0.000 HD
ENDBRANCH  29  31
ENDBRANCH  28  29
ENDBRANCH  27  28
ENDBRANCH  20  27
ENDBRANCH  18  19
ENDBRANCH  17  18
ENDBRANCH   1  17
TORSDOF 14
ENDMDL
MODEL 8
REMARK VINA RESULT:      -7.1      2.212      3.725
REMARK  Name = 
REMARK  17 active torsions:
REMARK  status: ('A' for Active; 'I' for Inactive)
REMARK    1  A    between atoms: C_1  and  O_2
REMARK    2  A    between atoms: O_2  and  C_3
REMARK    3  A    between atoms: C_5  and  C_6
REMARK    4  A    between atoms: C_6  and  C_7
REMARK    5  A    between atoms: N_8  and  O_9
REMARK    6  A    between atoms: O_9  and  C_10
REMARK    7  A    between atoms: C_10  and  C_11
REMARK    8  A    between atoms: C_11  and  C_12
REMARK    9  A    between atoms: C_12  and  C_13
REMARK   10  A    between atoms: C_13  and  O_14
REMARK   11  A    between atoms: O_14  and  N_15
REMARK   12  A    between atoms: C_16  and  C_17
REMARK   13  A    between atoms: C_16  and  C_22
REMARK   14  A    between atoms: C_17  and  C_18
REMARK   15  A    between atoms: C_18  and  C_19
REMARK   16  A    between atoms: C_19  and  O_21
REMARK   17  A    between atoms: C_30  and  C_31
REMARK                            x       y       z     vdW  Elec       q    Type
REMARK                         _______ _______ _______ _____ _____    ______ ____
ROOT
ATOM      1  C   UNL     1       7.782   6.437  18.350  0.00  0.00    +0.000 C 
ENDROOT
BRANCH   1   2
ATOM      2  C   UNL     1       8.345   7.796  18.776  0.00  0.00    +0.000 C 
BRANCH   2   3
ATOM      3  C   UNL     1       7.960   8.930  17.833  0.00  0.00    +0.000 C 
BRANCH   3   4
ATOM      4  O   UNL     1       9.054   9.842  17.771  0.00  0.00    +0.000 OA
BRANCH   4   7
ATOM      5  C   UNL     1       9.526  12.019  17.927  0.00  0.00    +0.000 C 
ATOM      6  C   UNL     1      10.981  11.606  17.859  0.00  0.00    +0.000 C 
ATOM      7  N   UNL     1       8.552  11.149  17.847  0.00  0.00    +0.000 NA
BRANCH   5  10
ATOM      8  C   UNL     1       7.457  15.180  18.185  0.00  0.00    +0.000 A 
ATOM      9  C   UNL     1       7.832  13.838  18.076  0.00  0.00    +0.000 A 
ATOM     10  C   UNL     1       9.183  13.466  18.047  0.00  0.00    +0.000 A 
ATOM     11  C   UNL     1      10.168  14.454  18.144  0.00  0.00    +0.000 A 
ATOM     12  C   UNL     1       9.801  15.799  18.259  0.00  0.00    +0.000 A 
ATOM     13  C   UNL     1       8.450  16.173  18.281  0.00  0.00    +0.000 A 
ATOM     14  C   UNL     1       8.078  17.623  18.423  0.00  0.00    +0.000 C 
BRANCH   8  16
ATOM     15  C   UNL     1       5.342  15.190  19.285  0.00  0.00    +0.000 C 
ATOM     16  O   UNL     1       6.160  15.628  18.206  0.00  0.00    +0.000 OA
ENDBRANCH   8  16
ENDBRANCH   5  10
ENDBRANCH   4   7
ENDBRANCH   3   4
ENDBRANCH   2   3
ENDBRANCH   1   2
BRANCH   1  17
ATOM     17  C   UNL     1       7.388   5.549  19.529  0.00  0.00    +0.000 C 
BRANCH  17  18
ATOM     18  O   UNL     1       6.231   4.807  19.149  0.00  0.00    +0.000 OA
BRANCH  18  19
ATOM     19  N   UNL     1       6.101   4.786  17.763  0.00  0.00    +0.000 NA
ATOM     20  C   UNL     1       4.929   4.364  17.371  0.00  0.00    +0.000 C 
BRANCH  20  21
ATOM     21  C   UNL     1       3.769   3.968  18.252  0.00  0.00    +0.000 A 
ATOM     22  C   UNL     1       3.517   2.627  18.580  0.00  0.00    +0.000 A 
ATOM     23  C   UNL     1       2.403   2.273  19.349  0.00  0.00    +0.000 A 
ATOM     24  C   UNL     1       1.551   3.259  19.836  0.00  0.00    +0.000 A 
ATOM     25  C   UNL     1       1.806   4.597  19.545  0.00  0.00    +0.000 A 
ATOM     26  C   UNL     1       2.901   4.949  18.747  0.00  0.00    +0.000 A 
ENDBRANCH  20  21
BRANCH  20  27
ATOM     27  C   UNL     1       4.756   4.260  15.852  0.00  0.00    +0.000 C 
BRANCH  27  28
ATOM     28  C   UNL     1       5.556   5.313  15.088  0.00  0.00    +0.000 C 
BRANCH  28  29
ATOM     29  C   UNL     1       6.703   4.736  14.300  0.00  0.00    +0.000 C 
ATOM     30  O   UNL     1       7.761   5.322  14.118  0.00  0.00    +0.000 OA
BRANCH  29  31
ATOM     31  O   UNL     1       6.468   3.502  13.813  0.00  0.00    +0.000 OA
ATOM     32  H   UNL     1       6.955   2.783  14.275  0.00  0.00    +0.000 HD
ENDBRANCH  29  31
ENDBRANCH  28  29
ENDBRANCH  27  28
ENDBRANCH  20  27
ENDBRANCH  18  19
ENDBRANCH  17  18
ENDBRANCH   1  17
TORSDOF 14
ENDMDL
MODEL 9
REMARK VINA RESULT:      -7.1      2.579      4.124
REMARK  Name = 
REMARK  17 active torsions:
REMARK  status: ('A' for Active; 'I' for Inactive)
REMARK    1  A    between atoms: C_1  and  O_2
REMARK    2  A    between atoms: O_2  and  C_3
REMARK    3  A    between atoms: C_5  and  C_6
REMARK    4  A    between atoms: C_6  and  C_7
REMARK    5  A    between atoms: N_8  and  O_9
REMARK    6  A    between atoms: O_9  and  C_10
REMARK    7  A    between atoms: C_10  and  C_11
REMARK    8  A    between atoms: C_11  and  C_12
REMARK    9  A    between atoms: C_12  and  C_13
REMARK   10  A    between atoms: C_13  and  O_14
REMARK   11  A    between atoms: O_14  and  N_15
REMARK   12  A    between atoms: C_16  and  C_17
REMARK   13  A    between atoms: C_16  and  C_22
REMARK   14  A    between atoms: C_17  and  C_18
REMARK   15  A    between atoms: C_18  and  C_19
REMARK   16  A    between atoms: C_19  and  O_21
REMARK   17  A    between atoms: C_30  and  C_31
REMARK                            x       y       z     vdW  Elec       q    Type
REMARK                         _______ _______ _______ _____ _____    ______ ____
ROOT
ATOM      1  C   UNL     1       8.032   6.396  18.312  0.00  0.00    +0.000 C 
ENDROOT
BRANCH   1   2
ATOM      2  C   UNL     1       7.722   7.833  17.885  0.00  0.00    +0.000 C 
BRANCH   2   3
ATOM      3  C   UNL     1       8.537   8.875  18.641  0.00  0.00    +0.000 C 
BRANCH   3   4
ATOM      4  O   UNL     1       9.112   9.762  17.685  0.00  0.00    +0.000 OA
BRANCH   4   7
ATOM      5  C   UNL     1       9.403  11.965  17.911  0.00  0.00    +0.000 C 
ATOM      6  C   UNL     1      10.885  11.679  17.800  0.00  0.00    +0.000 C 
ATOM      7  N   UNL     1       8.504  11.019  17.817  0.00  0.00    +0.000 NA
BRANCH   5  10
ATOM      8  C   UNL     1       7.119  14.985  17.974  0.00  0.00    +0.000 A 
ATOM      9  C   UNL     1       7.601  13.681  17.824  0.00  0.00    +0.000 A 
ATOM     10  C   UNL     1       8.942  13.373  18.089  0.00  0.00    +0.000 A 
ATOM     11  C   UNL     1       9.805  14.384  18.524  0.00  0.00    +0.000 A 
ATOM     12  C   UNL     1       9.330  15.690  18.682  0.00  0.00    +0.000 A 
ATOM     13  C   UNL     1       7.990  16.001  18.411  0.00  0.00    +0.000 A 
ATOM     14  C   UNL     1       7.496  17.409  18.604  0.00  0.00    +0.000 C 
BRANCH   8  16
ATOM     15  C   UNL     1       4.807  14.780  18.517  0.00  0.00    +0.000 C 
ATOM     16  O   UNL     1       5.828  15.372  17.721  0.00  0.00    +0.000 OA
ENDBRANCH   8  16
ENDBRANCH   5  10
ENDBRANCH   4   7
ENDBRANCH   3   4
ENDBRANCH   2   3
ENDBRANCH   1   2
BRANCH   1  17
ATOM     17  C   UNL     1       6.866   5.710  19.022  0.00  0.00    +0.000 C 
BRANCH  17  18
ATOM     18  O   UNL     1       6.577   4.502  18.322  0.00  0.00    +0.000 OA
BRANCH  18  19
ATOM     19  N   UNL     1       6.552   4.730  16.948  0.00  0.00    +0.000 NA
ATOM     20  C   UNL     1       5.350   4.651  16.444  0.00  0.00    +0.000 C 
BRANCH  20  21
ATOM     21  C   UNL     1       4.068   4.393  17.197  0.00  0.00    +0.000 A 
ATOM     22  C   UNL     1       3.562   3.095  17.369  0.00  0.00    +0.000 A 
ATOM     23  C   UNL     1       2.342   2.881  18.019  0.00  0.00    +0.000 A 
ATOM     24  C   UNL     1       1.633   3.956  18.544  0.00  0.00    +0.000 A 
ATOM     25  C   UNL     1       2.139   5.247  18.408  0.00  0.00    +0.000 A 
ATOM     26  C   UNL     1       3.342   5.466  17.729  0.00  0.00    +0.000 A 
ENDBRANCH  20  21
BRANCH  20  27
ATOM     27  C   UNL     1       5.277   4.830  14.924  0.00  0.00    +0.000 C 
BRANCH  27  28
ATOM     28  C   UNL     1       6.269   3.948  14.171  0.00  0.00    +0.000 C 
BRANCH  28  29
ATOM     29  C   UNL     1       7.305   4.731  13.407  0.00  0.00    +0.000 C 
ATOM     30  O   UNL     1       7.521   4.583  12.212  0.00  0.00    +0.000 OA
BRANCH  29  31
ATOM     31  O   UNL     1       7.976   5.628  14.156  0.00  0.00    +0.000 OA
ATOM     32  H   UNL     1       8.457   5.239  14.922  0.00  0.00    +0.000 HD
ENDBRANCH  29  31
ENDBRANCH  28  29
ENDBRANCH  27  28
ENDBRANCH  20  27
ENDBRANCH  18  19
ENDBRANCH  17  18
ENDBRANCH   1  17
TORSDOF 14
ENDMDL
