MODEL 1
REMARK VINA RESULT:      -7.4      0.000      0.000
REMARK  Name = 
REMARK  5 active torsions:
REMARK  status: ('A' for Active; 'I' for Inactive)
REMARK    1  A    between atoms: C_1  and  C_2
REMARK    2  A    between atoms: C_9  and  C_10
REMARK    3  A    between atoms: C_11  and  C_12
REMARK    4  A    between atoms: C_11  and  C_13
REMARK    5  A    between atoms: C_17  and  O_18
REMARK                            x       y       z     vdW  Elec       q    Type
REMARK                         _______ _______ _______ _____ _____    ______ ____
ROOT
ATOM      1  C   UNL     1       2.208   1.661  20.181  0.00  0.00    +0.000 C 
ATOM      2  C   UNL     1       1.810   3.105  20.375  0.00  0.00    +0.000 C 
ATOM      3  O   UNL     1       1.189   3.445  21.378  0.00  0.00    +0.000 OA
ATOM      4  N   UNL     1       2.226   4.008  19.413  0.00  0.00    +0.000 N 
ATOM      5  C   UNL     1       1.943   5.430  19.579  0.00  0.00    +0.000 C 
ATOM      6  C   UNL     1       3.087   6.342  19.066  0.00  0.00    +0.000 C 
ATOM      7  N   UNL     1       3.787   5.903  17.846  0.00  0.00    +0.000 NA
ATOM      8  C   UNL     1       5.057   6.624  17.670  0.00  0.00    +0.000 C 
ATOM      9  C   UNL     1       5.655   6.351  16.273  0.00  0.00    +0.000 C 
ATOM     10  C   UNL     1       4.743   7.020  15.222  0.00  0.00    +0.000 C 
ATOM     11  C   UNL     1       5.876   4.812  16.022  0.00  0.00    +0.000 C 
ATOM     12  C   UNL     1       7.011   4.268  16.939  0.00  0.00    +0.000 C 
ATOM     13  C   UNL     1       4.564   4.064  16.412  0.00  0.00    +0.000 C 
ATOM     14  C   UNL     1       4.024   4.445  17.805  0.00  0.00    +0.000 C 
ATOM     15  C   UNL     1       2.738   3.653  18.090  0.00  0.00    +0.000 C 
ENDROOT
BRANCH  11  16
ATOM     16  C   UNL     1       6.331   4.554  14.566  0.00  0.00    +0.000 A 
ATOM     17  C   UNL     1       7.436   5.253  14.035  0.00  0.00    +0.000 A 
ATOM     18  C   UNL     1       7.859   5.062  12.717  0.00  0.00    +0.000 A 
ATOM     19  C   UNL     1       7.183   4.175  11.886  0.00  0.00    +0.000 A 
ATOM     20  C   UNL     1       6.093   3.479  12.390  0.00  0.00    +0.000 A 
ATOM     21  C   UNL     1       5.670   3.654  13.710  0.00  0.00    +0.000 A 
BRANCH  20  22
ATOM     22  O   UNL     1       5.389   2.605  11.614  0.00  0.00    +0.000 OA
ATOM     23  H   UNL     1       5.534   2.836  10.682  0.00  0.00    +0.000 HD
ENDBRANCH  20  22
ENDBRANCH  11  16
TORSDOF 2
ENDMDL
MODEL 2
REMARK VINA RESULT:      -6.9      1.097      1.499
REMARK  Name = 
REMARK  5 active torsions:
REMARK  status: ('A' for Active; 'I' for Inactive)
REMARK    1  A    between atoms: C_1  and  C_2
REMARK    2  A    between atoms: C_9  and  C_10
REMARK    3  A    between atoms: C_11  and  C_12
REMARK    4  A    between atoms: C_11  and  C_13
REMARK    5  A    between atoms: C_17  and  O_18
REMARK                            x       y       z     vdW  Elec       q    Type
REMARK                         _______ _______ _______ _____ _____    ______ ____
ROOT
ATOM      1  C   UNL     1       2.163   1.353  19.956  0.00  0.00    +0.000 C 
ATOM      2  C   UNL     1       1.728   2.771  20.240  0.00  0.00    +0.000 C 
ATOM      3  O   UNL     1       1.072   3.026  21.246  0.00  0.00    +0.000 OA
ATOM      4  N   UNL     1       2.150   3.749  19.357  0.00  0.00    +0.000 N 
ATOM      5  C   UNL     1       1.831   5.149  19.615  0.00  0.00    +0.000 C 
ATOM      6  C   UNL     1       2.969   6.119  19.201  0.00  0.00    +0.000 C 
ATOM      7  N   UNL     1       3.711   5.782  17.975  0.00  0.00    +0.000 NA
ATOM      8  C   UNL     1       4.969   6.540  17.887  0.00  0.00    +0.000 C 
ATOM      9  C   UNL     1       5.611   6.379  16.491  0.00  0.00    +0.000 C 
ATOM     10  C   UNL     1       4.713   7.103  15.465  0.00  0.00    +0.000 C 
ATOM     11  C   UNL     1       5.873   4.867  16.139  0.00  0.00    +0.000 C 
ATOM     12  C   UNL     1       6.994   4.282  17.047  0.00  0.00    +0.000 C 
ATOM     13  C   UNL     1       4.567   4.068  16.437  0.00  0.00    +0.000 C 
ATOM     14  C   UNL     1       3.981   4.337  17.837  0.00  0.00    +0.000 C 
ATOM     15  C   UNL     1       2.706   3.500  18.027  0.00  0.00    +0.000 C 
ENDROOT
BRANCH  11  16
ATOM     16  C   UNL     1       6.373   4.723  14.681  0.00  0.00    +0.000 A 
ATOM     17  C   UNL     1       5.802   3.754  13.829  0.00  0.00    +0.000 A 
ATOM     18  C   UNL     1       6.245   3.581  12.516  0.00  0.00    +0.000 A 
ATOM     19  C   UNL     1       7.281   4.364  12.018  0.00  0.00    +0.000 A 
ATOM     20  C   UNL     1       7.856   5.322  12.841  0.00  0.00    +0.000 A 
ATOM     21  C   UNL     1       7.412   5.511  14.152  0.00  0.00    +0.000 A 
BRANCH  20  22
ATOM     22  O   UNL     1       8.882   6.108  12.405  0.00  0.00    +0.000 OA
ATOM     23  H   UNL     1       9.591   6.084  13.067  0.00  0.00    +0.000 HD
ENDBRANCH  20  22
ENDBRANCH  11  16
TORSDOF 2
ENDMDL
MODEL 3
REMARK VINA RESULT:      -6.7      1.903      7.038
REMARK  Name = 
REMARK  5 active torsions:
REMARK  status: ('A' for Active; 'I' for Inactive)
REMARK    1  A    between atoms: C_1  and  C_2
REMARK    2  A    between atoms: C_9  and  C_10
REMARK    3  A    between atoms: C_11  and  C_12
REMARK    4  A    between atoms: C_11  and  C_13
REMARK    5  A    between atoms: C_17  and  O_18
REMARK                            x       y       z     vdW  Elec       q    Type
REMARK                         _______ _______ _______ _____ _____    ______ ____
ROOT
ATOM      1  C   UNL     1       5.082   2.928  12.141  0.00  0.00    +0.000 C 
ATOM      2  C   UNL     1       6.267   3.766  12.561  0.00  0.00    +0.000 C 
ATOM      3  O   UNL     1       7.052   4.191  11.718  0.00  0.00    +0.000 OA
ATOM      4  N   UNL     1       6.380   4.069  13.905  0.00  0.00    +0.000 N 
ATOM      5  C   UNL     1       7.456   4.939  14.368  0.00  0.00    +0.000 C 
ATOM      6  C   UNL     1       7.027   5.877  15.526  0.00  0.00    +0.000 C 
ATOM      7  N   UNL     1       6.102   5.313  16.524  0.00  0.00    +0.000 NA
ATOM      8  C   UNL     1       5.488   6.372  17.340  0.00  0.00    +0.000 C 
ATOM      9  C   UNL     1       4.727   5.769  18.541  0.00  0.00    +0.000 C 
ATOM     10  C   UNL     1       5.765   5.161  19.509  0.00  0.00    +0.000 C 
ATOM     11  C   UNL     1       3.624   4.744  18.079  0.00  0.00    +0.000 C 
ATOM     12  C   UNL     1       2.470   5.482  17.340  0.00  0.00    +0.000 C 
ATOM     13  C   UNL     1       4.275   3.760  17.059  0.00  0.00    +0.000 C 
ATOM     14  C   UNL     1       5.052   4.462  15.929  0.00  0.00    +0.000 C 
ATOM     15  C   UNL     1       5.646   3.406  14.983  0.00  0.00    +0.000 C 
ENDROOT
BRANCH  11  16
ATOM     16  C   UNL     1       2.982   4.043  19.300  0.00  0.00    +0.000 A 
ATOM     17  C   UNL     1       1.666   4.369  19.693  0.00  0.00    +0.000 A 
ATOM     18  C   UNL     1       1.065   3.773  20.804  0.00  0.00    +0.000 A 
ATOM     19  C   UNL     1       1.765   2.841  21.563  0.00  0.00    +0.000 A 
ATOM     20  C   UNL     1       3.061   2.509  21.193  0.00  0.00    +0.000 A 
ATOM     21  C   UNL     1       3.666   3.090  20.076  0.00  0.00    +0.000 A 
BRANCH  20  22
ATOM     22  O   UNL     1       3.794   1.608  21.910  0.00  0.00    +0.000 OA
ATOM     23  H   UNL     1       4.020   0.864  21.328  0.00  0.00    +0.000 HD
ENDBRANCH  20  22
ENDBRANCH  11  16
TORSDOF 2
ENDMDL
MODEL 4
REMARK VINA RESULT:      -6.1      1.899      6.958
REMARK  Name = 
REMARK  5 active torsions:
REMARK  status: ('A' for Active; 'I' for Inactive)
REMARK    1  A    between atoms: C_1  and  C_2
REMARK    2  A    between atoms: C_9  and  C_10
REMARK    3  A    between atoms: C_11  and  C_12
REMARK    4  A    between atoms: C_11  and  C_13
REMARK    5  A    between atoms: C_17  and  O_18
REMARK                            x       y       z     vdW  Elec       q    Type
REMARK                         _______ _______ _______ _____ _____    ______ ____
ROOT
ATOM      1  C   UNL     1       4.843   3.620  11.841  0.00  0.00    +0.000 C 
ATOM      2  C   UNL     1       6.195   4.017  12.387  0.00  0.00    +0.000 C 
ATOM      3  O   UNL     1       7.119   4.276  11.621  0.00  0.00    +0.000 OA
ATOM      4  N   UNL     1       6.311   4.129  13.761  0.00  0.00    +0.000 N 
ATOM      5  C   UNL     1       7.566   4.585  14.350  0.00  0.00    +0.000 C 
ATOM      6  C   UNL     1       7.362   5.480  15.600  0.00  0.00    +0.000 C 
ATOM      7  N   UNL     1       6.255   5.116  16.500  0.00  0.00    +0.000 NA
ATOM      8  C   UNL     1       5.930   6.218  17.420  0.00  0.00    +0.000 C 
ATOM      9  C   UNL     1       4.955   5.745  18.521  0.00  0.00    +0.000 C 
ATOM     10  C   UNL     1       5.710   4.757  19.436  0.00  0.00    +0.000 C 
ATOM     11  C   UNL     1       3.630   5.150  17.913  0.00  0.00    +0.000 C 
ATOM     12  C   UNL     1       2.789   6.272  17.237  0.00  0.00    +0.000 C 
ATOM     13  C   UNL     1       4.024   4.130  16.801  0.00  0.00    +0.000 C 
ATOM     14  C   UNL     1       5.039   4.684  15.782  0.00  0.00    +0.000 C 
ATOM     15  C   UNL     1       5.352   3.605  14.733  0.00  0.00    +0.000 C 
ENDROOT
BRANCH  11  16
ATOM     16  C   UNL     1       2.739   4.547  19.026  0.00  0.00    +0.000 A 
ATOM     17  C   UNL     1       2.955   4.901  20.375  0.00  0.00    +0.000 A 
ATOM     18  C   UNL     1       2.186   4.358  21.406  0.00  0.00    +0.000 A 
ATOM     19  C   UNL     1       1.185   3.435  21.122  0.00  0.00    +0.000 A 
ATOM     20  C   UNL     1       0.959   3.074  19.801  0.00  0.00    +0.000 A 
ATOM     21  C   UNL     1       1.714   3.621  18.762  0.00  0.00    +0.000 A 
BRANCH  20  22
ATOM     22  O   UNL     1      -0.004   2.166  19.469  0.00  0.00    +0.000 OA
ATOM     23  H   UNL     1       0.289   1.682  18.680  0.00  0.00    +0.000 HD
ENDBRANCH  20  22
ENDBRANCH  11  16
TORSDOF 2
ENDMDL
MODEL 5
REMARK VINA RESULT:      -6.0      3.335      4.975
REMARK  Name = 
REMARK  5 active torsions:
REMARK  status: ('A' for Active; 'I' for Inactive)
REMARK    1  A    between atoms: C_1  and  C_2
REMARK    2  A    between atoms: C_9  and  C_10
REMARK    3  A    between atoms: C_11  and  C_12
REMARK    4  A    between atoms: C_11  and  C_13
REMARK    5  A    between atoms: C_17  and  O_18
REMARK                            x       y       z     vdW  Elec       q    Type
REMARK                         _______ _______ _______ _____ _____    ______ ____
ROOT
ATOM      1  C   UNL     1      -0.714  10.474  17.839  0.00  0.00    +0.000 C 
ATOM      2  C   UNL     1      -0.405  10.254  19.301  0.00  0.00    +0.000 C 
ATOM      3  O   UNL     1      -1.108  10.771  20.165  0.00  0.00    +0.000 OA
ATOM      4  N   UNL     1       0.649   9.411  19.602  0.00  0.00    +0.000 N 
ATOM      5  C   UNL     1       0.952   9.093  20.994  0.00  0.00    +0.000 C 
ATOM      6  C   UNL     1       1.425   7.630  21.195  0.00  0.00    +0.000 C 
ATOM      7  N   UNL     1       2.284   7.063  20.143  0.00  0.00    +0.000 NA
ATOM      8  C   UNL     1       2.362   5.597  20.249  0.00  0.00    +0.000 C 
ATOM      9  C   UNL     1       3.457   5.035  19.315  0.00  0.00    +0.000 C 
ATOM     10  C   UNL     1       4.829   5.483  19.863  0.00  0.00    +0.000 C 
ATOM     11  C   UNL     1       3.215   5.450  17.815  0.00  0.00    +0.000 C 
ATOM     12  C   UNL     1       1.952   4.737  17.250  0.00  0.00    +0.000 C 
ATOM     13  C   UNL     1       2.940   6.985  17.775  0.00  0.00    +0.000 C 
ATOM     14  C   UNL     1       1.866   7.449  18.780  0.00  0.00    +0.000 C 
ATOM     15  C   UNL     1       1.671   8.968  18.654  0.00  0.00    +0.000 C 
ENDROOT
BRANCH  11  16
ATOM     16  C   UNL     1       4.402   5.006  16.926  0.00  0.00    +0.000 A 
ATOM     17  C   UNL     1       4.396   3.730  16.324  0.00  0.00    +0.000 A 
ATOM     18  C   UNL     1       5.461   3.287  15.535  0.00  0.00    +0.000 A 
ATOM     19  C   UNL     1       6.569   4.103  15.334  0.00  0.00    +0.000 A 
ATOM     20  C   UNL     1       6.593   5.362  15.920  0.00  0.00    +0.000 A 
ATOM     21  C   UNL     1       5.528   5.817  16.699  0.00  0.00    +0.000 A 
BRANCH  20  22
ATOM     22  O   UNL     1       7.661   6.196  15.763  0.00  0.00    +0.000 OA
ATOM     23  H   UNL     1       7.597   6.905  16.423  0.00  0.00    +0.000 HD
ENDBRANCH  20  22
ENDBRANCH  11  16
TORSDOF 2
ENDMDL
MODEL 6
REMARK VINA RESULT:      -5.9      9.200     12.700
REMARK  Name = 
REMARK  5 active torsions:
REMARK  status: ('A' for Active; 'I' for Inactive)
REMARK    1  A    between atoms: C_1  and  C_2
REMARK    2  A    between atoms: C_9  and  C_10
REMARK    3  A    between atoms: C_11  and  C_12
REMARK    4  A    between atoms: C_11  and  C_13
REMARK    5  A    between atoms: C_17  and  O_18
REMARK                            x       y       z     vdW  Elec       q    Type
REMARK                         _______ _______ _______ _____ _____    ______ ____
ROOT
ATOM      1  C   UNL     1       8.891  10.036  18.584  0.00  0.00    +0.000 C 
ATOM      2  C   UNL     1       9.961  11.055  18.898  0.00  0.00    +0.000 C 
ATOM      3  O   UNL     1      10.803  11.347  18.054  0.00  0.00    +0.000 OA
ATOM      4  N   UNL     1       9.902  11.668  20.137  0.00  0.00    +0.000 N 
ATOM      5  C   UNL     1      10.857  12.719  20.475  0.00  0.00    +0.000 C 
ATOM      6  C   UNL     1      10.237  13.853  21.332  0.00  0.00    +0.000 C 
ATOM      7  N   UNL     1       9.248  13.449  22.346  0.00  0.00    +0.000 NA
ATOM      8  C   UNL     1       8.475  14.605  22.827  0.00  0.00    +0.000 C 
ATOM      9  C   UNL     1       7.628  14.225  24.062  0.00  0.00    +0.000 C 
ATOM     10  C   UNL     1       8.592  13.956  25.238  0.00  0.00    +0.000 C 
ATOM     11  C   UNL     1       6.658  13.022  23.758  0.00  0.00    +0.000 C 
ATOM     12  C   UNL     1       5.545  13.458  22.762  0.00  0.00    +0.000 C 
ATOM     13  C   UNL     1       7.486  11.895  23.067  0.00  0.00    +0.000 C 
ATOM     14  C   UNL     1       8.333  12.389  21.877  0.00  0.00    +0.000 C 
ATOM     15  C   UNL     1       9.101  11.204  21.269  0.00  0.00    +0.000 C 
ENDROOT
BRANCH  11  16
ATOM     16  C   UNL     1       5.935  12.563  25.048  0.00  0.00    +0.000 A 
ATOM     17  C   UNL     1       5.581  13.507  26.035  0.00  0.00    +0.000 A 
ATOM     18  C   UNL     1       4.949  13.124  27.221  0.00  0.00    +0.000 A 
ATOM     19  C   UNL     1       4.662  11.785  27.460  0.00  0.00    +0.000 A 
ATOM     20  C   UNL     1       5.004  10.841  26.501  0.00  0.00    +0.000 A 
ATOM     21  C   UNL     1       5.625  11.216  25.307  0.00  0.00    +0.000 A 
BRANCH  20  22
ATOM     22  O   UNL     1       4.755   9.514  26.692  0.00  0.00    +0.000 OA
ATOM     23  H   UNL     1       4.807   9.065  25.832  0.00  0.00    +0.000 HD
ENDBRANCH  20  22
ENDBRANCH  11  16
TORSDOF 2
ENDMDL
MODEL 7
REMARK VINA RESULT:      -5.8      9.503     12.994
REMARK  Name = 
REMARK  5 active torsions:
REMARK  status: ('A' for Active; 'I' for Inactive)
REMARK    1  A    between atoms: C_1  and  C_2
REMARK    2  A    between atoms: C_9  and  C_10
REMARK    3  A    between atoms: C_11  and  C_12
REMARK    4  A    between atoms: C_11  and  C_13
REMARK    5  A    between atoms: C_17  and  O_18
REMARK                            x       y       z     vdW  Elec       q    Type
REMARK                         _______ _______ _______ _____ _____    ______ ____
ROOT
ATOM      1  C   UNL     1       8.959  10.050  18.581  0.00  0.00    +0.000 C 
ATOM      2  C   UNL     1       9.975  11.150  18.782  0.00  0.00    +0.000 C 
ATOM      3  O   UNL     1      10.733  11.465  17.869  0.00  0.00    +0.000 OA
ATOM      4  N   UNL     1       9.961  11.806  19.999  0.00  0.00    +0.000 N 
ATOM      5  C   UNL     1      10.862  12.931  20.231  0.00  0.00    +0.000 C 
ATOM      6  C   UNL     1      10.226  14.053  21.091  0.00  0.00    +0.000 C 
ATOM      7  N   UNL     1       9.343  13.624  22.189  0.00  0.00    +0.000 NA
ATOM      8  C   UNL     1       8.526  14.743  22.685  0.00  0.00    +0.000 C 
ATOM      9  C   UNL     1       7.798  14.356  23.991  0.00  0.00    +0.000 C 
ATOM     10  C   UNL     1       8.859  14.199  25.101  0.00  0.00    +0.000 C 
ATOM     11  C   UNL     1       6.895  13.080  23.801  0.00  0.00    +0.000 C 
ATOM     12  C   UNL     1       5.686  13.401  22.874  0.00  0.00    +0.000 C 
ATOM     13  C   UNL     1       7.749  11.985  23.089  0.00  0.00    +0.000 C 
ATOM     14  C   UNL     1       8.473  12.487  21.825  0.00  0.00    +0.000 C 
ATOM     15  C   UNL     1       9.277  11.334  21.203  0.00  0.00    +0.000 C 
ENDROOT
BRANCH  11  16
ATOM     16  C   UNL     1       6.299  12.624  25.154  0.00  0.00    +0.000 A 
ATOM     17  C   UNL     1       6.608  11.347  25.669  0.00  0.00    +0.000 A 
ATOM     18  C   UNL     1       6.069  10.894  26.876  0.00  0.00    +0.000 A 
ATOM     19  C   UNL     1       5.196  11.700  27.599  0.00  0.00    +0.000 A 
ATOM     20  C   UNL     1       4.879  12.959  27.107  0.00  0.00    +0.000 A 
ATOM     21  C   UNL     1       5.423  13.425  25.909  0.00  0.00    +0.000 A 
BRANCH  20  22
ATOM     22  O   UNL     1       4.020  13.784  27.772  0.00  0.00    +0.000 OA
ATOM     23  H   UNL     1       4.535  14.497  28.184  0.00  0.00    +0.000 HD
ENDBRANCH  20  22
ENDBRANCH  11  16
TORSDOF 2
ENDMDL
MODEL 8
REMARK VINA RESULT:      -5.8      7.682     10.186
REMARK  Name = 
REMARK  5 active torsions:
REMARK  status: ('A' for Active; 'I' for Inactive)
REMARK    1  A    between atoms: C_1  and  C_2
REMARK    2  A    between atoms: C_9  and  C_10
REMARK    3  A    between atoms: C_11  and  C_12
REMARK    4  A    between atoms: C_11  and  C_13
REMARK    5  A    between atoms: C_17  and  O_18
REMARK                            x       y       z     vdW  Elec       q    Type
REMARK                         _______ _______ _______ _____ _____    ______ ____
ROOT
ATOM      1  C   UNL     1      -6.067  12.348  20.982  0.00  0.00    +0.000 C 
ATOM      2  C   UNL     1      -5.321  13.657  21.095  0.00  0.00    +0.000 C 
ATOM      3  O   UNL     1      -5.896  14.662  21.502  0.00  0.00    +0.000 OA
ATOM      4  N   UNL     1      -3.975  13.644  20.779  0.00  0.00    +0.000 N 
ATOM      5  C   UNL     1      -3.177  14.855  20.942  0.00  0.00    +0.000 C 
ATOM      6  C   UNL     1      -1.734  14.573  21.432  0.00  0.00    +0.000 C 
ATOM      7  N   UNL     1      -1.078  13.367  20.897  0.00  0.00    +0.000 NA
ATOM      8  C   UNL     1       0.107  13.007  21.692  0.00  0.00    +0.000 C 
ATOM      9  C   UNL     1       0.930  11.908  20.984  0.00  0.00    +0.000 C 
ATOM     10  C   UNL     1       1.555  12.523  19.712  0.00  0.00    +0.000 C 
ATOM     11  C   UNL     1       0.067  10.622  20.700  0.00  0.00    +0.000 C 
ATOM     12  C   UNL     1      -0.297   9.904  22.032  0.00  0.00    +0.000 C 
ATOM     13  C   UNL     1      -1.270  11.074  20.035  0.00  0.00    +0.000 C 
ATOM     14  C   UNL     1      -1.987  12.208  20.793  0.00  0.00    +0.000 C 
ATOM     15  C   UNL     1      -3.288  12.572  20.059  0.00  0.00    +0.000 C 
ENDROOT
BRANCH  11  16
ATOM     16  C   UNL     1       0.868   9.600  19.858  0.00  0.00    +0.000 A 
ATOM     17  C   UNL     1       0.962   9.756  18.458  0.00  0.00    +0.000 A 
ATOM     18  C   UNL     1       1.657   8.839  17.665  0.00  0.00    +0.000 A 
ATOM     19  C   UNL     1       2.268   7.733  18.245  0.00  0.00    +0.000 A 
ATOM     20  C   UNL     1       2.185   7.563  19.620  0.00  0.00    +0.000 A 
ATOM     21  C   UNL     1       1.504   8.480  20.423  0.00  0.00    +0.000 A 
BRANCH  20  22
ATOM     22  O   UNL     1       2.758   6.489  20.237  0.00  0.00    +0.000 OA
ATOM     23  H   UNL     1       3.716   6.640  20.289  0.00  0.00    +0.000 HD
ENDBRANCH  20  22
ENDBRANCH  11  16
TORSDOF 2
ENDMDL
MODEL 9
REMARK VINA RESULT:      -5.7      1.845      7.009
REMARK  Name = 
REMARK  5 active torsions:
REMARK  status: ('A' for Active; 'I' for Inactive)
REMARK    1  A    between atoms: C_1  and  C_2
REMARK    2  A    between atoms: C_9  and  C_10
REMARK    3  A    between atoms: C_11  and  C_12
REMARK    4  A    between atoms: C_11  and  C_13
REMARK    5  A    between atoms: C_17  and  O_18
REMARK                            x       y       z     vdW  Elec       q    Type
REMARK                         _______ _______ _______ _____ _____    ______ ____
ROOT
ATOM      1  C   UNL     1       5.395   2.795  12.004  0.00  0.00    +0.000 C 
ATOM      2  C   UNL     1       6.438   3.827  12.363  0.00  0.00    +0.000 C 
ATOM      3  O   UNL     1       7.099   4.369  11.482  0.00  0.00    +0.000 OA
ATOM      4  N   UNL     1       6.560   4.162  13.699  0.00  0.00    +0.000 N 
ATOM      5  C   UNL     1       7.492   5.208  14.105  0.00  0.00    +0.000 C 
ATOM      6  C   UNL     1       6.964   6.073  15.278  0.00  0.00    +0.000 C 
ATOM      7  N   UNL     1       6.196   5.373  16.322  0.00  0.00    +0.000 NA
ATOM      8  C   UNL     1       5.449   6.323  17.162  0.00  0.00    +0.000 C 
ATOM      9  C   UNL     1       4.858   5.614  18.401  0.00  0.00    +0.000 C 
ATOM     10  C   UNL     1       6.028   5.203  19.321  0.00  0.00    +0.000 C 
ATOM     11  C   UNL     1       3.926   4.410  17.997  0.00  0.00    +0.000 C 
ATOM     12  C   UNL     1       2.630   4.932  17.311  0.00  0.00    +0.000 C 
ATOM     13  C   UNL     1       4.688   3.538  16.952  0.00  0.00    +0.000 C 
ATOM     14  C   UNL     1       5.280   4.348  15.782  0.00  0.00    +0.000 C 
ATOM     15  C   UNL     1       6.001   3.397  14.814  0.00  0.00    +0.000 C 
ENDROOT
BRANCH  11  16
ATOM     16  C   UNL     1       3.471   3.625  19.251  0.00  0.00    +0.000 A 
ATOM     17  C   UNL     1       4.378   2.781  19.925  0.00  0.00    +0.000 A 
ATOM     18  C   UNL     1       3.995   2.039  21.045  0.00  0.00    +0.000 A 
ATOM     19  C   UNL     1       2.689   2.111  21.519  0.00  0.00    +0.000 A 
ATOM     20  C   UNL     1       1.782   2.936  20.868  0.00  0.00    +0.000 A 
ATOM     21  C   UNL     1       2.159   3.690  19.755  0.00  0.00    +0.000 A 
BRANCH  20  22
ATOM     22  O   UNL     1       0.487   3.034  21.286  0.00  0.00    +0.000 OA
ATOM     23  H   UNL     1       0.195   3.953  21.167  0.00  0.00    +0.000 HD
ENDBRANCH  20  22
ENDBRANCH  11  16
TORSDOF 2
ENDMDL
