MODEL 1
REMARK VINA RESULT:      -7.2      0.000      0.000
REMARK  Name = 
REMARK  5 active torsions:
REMARK  status: ('A' for Active; 'I' for Inactive)
REMARK    1  A    between atoms: O_1  and  C_2
REMARK    2  A    between atoms: C_8  and  C_9
REMARK    3  A    between atoms: C_9  and  C_10
REMARK    4  A    between atoms: C_10  and  N_11
REMARK    5  A    between atoms: N_14  and  C_15
REMARK                            x       y       z     vdW  Elec       q    Type
REMARK                         _______ _______ _______ _____ _____    ______ ____
ROOT
ATOM      1  C   UNL     1       1.922   8.152  17.709  0.00  0.00    +0.000 C 
ENDROOT
BRANCH   1   8
ATOM      2  C   UNL     1       5.874   5.873  16.681  0.00  0.00    +0.000 A 
ATOM      3  C   UNL     1       6.321   5.050  17.709  0.00  0.00    +0.000 A 
ATOM      4  C   UNL     1       5.568   4.911  18.883  0.00  0.00    +0.000 A 
ATOM      5  C   UNL     1       4.372   5.632  18.978  0.00  0.00    +0.000 A 
ATOM      6  N   UNL     1       3.444   5.686  19.991  0.00  0.00    +0.000 N 
ATOM      7  C   UNL     1       2.442   6.563  19.671  0.00  0.00    +0.000 A 
ATOM      8  C   UNL     1       2.711   7.096  18.426  0.00  0.00    +0.000 A 
ATOM      9  C   UNL     1       3.919   6.481  17.966  0.00  0.00    +0.000 A 
ATOM     10  C   UNL     1       4.685   6.592  16.787  0.00  0.00    +0.000 A 
ATOM     11  H   UNL     1       3.508   5.168  20.857  0.00  0.00    +0.000 HD
BRANCH   2  12
ATOM     12  O   UNL     1       6.592   6.015  15.528  0.00  0.00    +0.000 OA
ATOM     13  H   UNL     1       6.696   6.962  15.343  0.00  0.00    +0.000 HD
ENDBRANCH   2  12
ENDBRANCH   1   8
BRANCH   1  14
ATOM     14  C   UNL     1       1.991   9.524  18.398  0.00  0.00    +0.000 C 
BRANCH  14  15
ATOM     15  N   UNL     1       0.697   9.962  18.959  0.00  0.00    +0.000 NA
ATOM     16  C   UNL     1       0.367   9.361  20.273  0.00  0.00    +0.000 C 
ATOM     17  C   UNL     1       0.884  10.073  21.559  0.00  0.00    +0.000 C 
ATOM     18  N   UNL     1       0.816  11.552  21.555  0.00  0.00    +0.000 NA
ATOM     19  C   UNL     1       1.394  12.002  20.271  0.00  0.00    +0.000 C 
ATOM     20  C   UNL     1       0.650  11.436  19.046  0.00  0.00    +0.000 C 
BRANCH  18  21
ATOM     21  C   UNL     1      -0.544  12.072  21.787  0.00  0.00    +0.000 C 
ATOM     22  C   UNL     1      -1.331  11.289  22.848  0.00  0.00    +0.000 C 
ATOM     23  C   UNL     1      -2.400  12.270  23.307  0.00  0.00    +0.000 C 
ATOM     24  C   UNL     1      -1.673  13.600  23.371  0.00  0.00    +0.000 C 
ATOM     25  C   UNL     1      -0.579  13.526  22.312  0.00  0.00    +0.000 C 
ENDBRANCH  18  21
ENDBRANCH  14  15
ENDBRANCH   1  14
TORSDOF 5
ENDMDL
MODEL 2
REMARK VINA RESULT:      -7.0      2.458      2.792
REMARK  Name = 
REMARK  5 active torsions:
REMARK  status: ('A' for Active; 'I' for Inactive)
REMARK    1  A    between atoms: O_1  and  C_2
REMARK    2  A    between atoms: C_8  and  C_9
REMARK    3  A    between atoms: C_9  and  C_10
REMARK    4  A    between atoms: C_10  and  N_11
REMARK    5  A    between atoms: N_14  and  C_15
REMARK                            x       y       z     vdW  Elec       q    Type
REMARK                         _______ _______ _______ _____ _____    ______ ____
ROOT
ATOM      1  C   UNL     1       2.163   7.619  18.129  0.00  0.00    +0.000 C 
ENDROOT
BRANCH   1   8
ATOM      2  C   UNL     1       1.504   2.993  18.282  0.00  0.00    +0.000 A 
ATOM      3  C   UNL     1       2.633   2.261  17.929  0.00  0.00    +0.000 A 
ATOM      4  C   UNL     1       3.838   2.915  17.639  0.00  0.00    +0.000 A 
ATOM      5  C   UNL     1       3.853   4.313  17.709  0.00  0.00    +0.000 A 
ATOM      6  N   UNL     1       4.876   5.204  17.485  0.00  0.00    +0.000 N 
ATOM      7  C   UNL     1       4.426   6.489  17.627  0.00  0.00    +0.000 A 
ATOM      8  C   UNL     1       3.084   6.448  17.951  0.00  0.00    +0.000 A 
ATOM      9  C   UNL     1       2.723   5.065  18.039  0.00  0.00    +0.000 A 
ATOM     10  C   UNL     1       1.527   4.384  18.343  0.00  0.00    +0.000 A 
ATOM     11  H   UNL     1       5.819   4.944  17.230  0.00  0.00    +0.000 HD
BRANCH   2  12
ATOM     12  O   UNL     1       0.323   2.371  18.574  0.00  0.00    +0.000 OA
ATOM     13  H   UNL     1       0.328   1.492  18.164  0.00  0.00    +0.000 HD
ENDBRANCH   2  12
ENDBRANCH   1   8
BRANCH   1  14
ATOM     14  C   UNL     1       2.101   8.117  19.582  0.00  0.00    +0.000 C 
BRANCH  14  15
ATOM     15  N   UNL     1       0.760   8.587  19.983  0.00  0.00    +0.000 NA
ATOM     16  C   UNL     1       0.478   8.460  21.432  0.00  0.00    +0.000 C 
ATOM     17  C   UNL     1       0.897   9.633  22.369  0.00  0.00    +0.000 C 
ATOM     18  N   UNL     1       0.670  10.998  21.842  0.00  0.00    +0.000 NA
ATOM     19  C   UNL     1       1.214  11.021  20.468  0.00  0.00    +0.000 C 
ATOM     20  C   UNL     1       0.553   9.982  19.542  0.00  0.00    +0.000 C 
BRANCH  18  21
ATOM     21  C   UNL     1      -0.742  11.421  21.909  0.00  0.00    +0.000 C 
ATOM     22  C   UNL     1      -1.432  11.055  23.230  0.00  0.00    +0.000 C 
ATOM     23  C   UNL     1      -2.608  12.019  23.305  0.00  0.00    +0.000 C 
ATOM     24  C   UNL     1      -2.040  13.330  22.795  0.00  0.00    +0.000 C 
ATOM     25  C   UNL     1      -0.944  12.949  21.805  0.00  0.00    +0.000 C 
ENDBRANCH  18  21
ENDBRANCH  14  15
ENDBRANCH   1  14
TORSDOF 5
ENDMDL
MODEL 3
REMARK VINA RESULT:      -6.9      4.633      9.115
REMARK  Name = 
REMARK  5 active torsions:
REMARK  status: ('A' for Active; 'I' for Inactive)
REMARK    1  A    between atoms: O_1  and  C_2
REMARK    2  A    between atoms: C_8  and  C_9
REMARK    3  A    between atoms: C_9  and  C_10
REMARK    4  A    between atoms: C_10  and  N_11
REMARK    5  A    between atoms: N_14  and  C_15
REMARK                            x       y       z     vdW  Elec       q    Type
REMARK                         _______ _______ _______ _____ _____    ______ ____
ROOT
ATOM      1  C   UNL     1       4.311   6.406  18.446  0.00  0.00    +0.000 C 
ENDROOT
BRANCH   1   8
ATOM      2  C   UNL     1       2.205   2.306  19.230  0.00  0.00    +0.000 A 
ATOM      3  C   UNL     1       1.249   2.359  20.240  0.00  0.00    +0.000 A 
ATOM      4  C   UNL     1       0.949   3.576  20.866  0.00  0.00    +0.000 A 
ATOM      5  C   UNL     1       1.647   4.714  20.446  0.00  0.00    +0.000 A 
ATOM      6  N   UNL     1       1.559   6.019  20.871  0.00  0.00    +0.000 N 
ATOM      7  C   UNL     1       2.469   6.797  20.207  0.00  0.00    +0.000 A 
ATOM      8  C   UNL     1       3.169   5.994  19.328  0.00  0.00    +0.000 A 
ATOM      9  C   UNL     1       2.625   4.675  19.451  0.00  0.00    +0.000 A 
ATOM     10  C   UNL     1       2.898   3.443  18.823  0.00  0.00    +0.000 A 
ATOM     11  H   UNL     1       0.928   6.348  21.589  0.00  0.00    +0.000 HD
BRANCH   2  12
ATOM     12  O   UNL     1       2.505   1.130  18.604  0.00  0.00    +0.000 OA
ATOM     13  H   UNL     1       3.446   0.938  18.741  0.00  0.00    +0.000 HD
ENDBRANCH   2  12
ENDBRANCH   1   8
BRANCH   1  14
ATOM     14  C   UNL     1       5.559   5.529  18.634  0.00  0.00    +0.000 C 
BRANCH  14  15
ATOM     15  N   UNL     1       5.767   4.563  17.537  0.00  0.00    +0.000 NA
ATOM     16  C   UNL     1       4.811   4.701  16.414  0.00  0.00    +0.000 C 
ATOM     17  C   UNL     1       5.159   5.698  15.268  0.00  0.00    +0.000 C 
ATOM     18  N   UNL     1       6.576   5.728  14.841  0.00  0.00    +0.000 NA
ATOM     19  C   UNL     1       7.390   5.821  16.072  0.00  0.00    +0.000 C 
ATOM     20  C   UNL     1       7.156   4.645  17.038  0.00  0.00    +0.000 C 
BRANCH  18  21
ATOM     21  C   UNL     1       6.951   4.584  13.989  0.00  0.00    +0.000 C 
ATOM     22  C   UNL     1       5.749   3.837  13.395  0.00  0.00    +0.000 C 
ATOM     23  C   UNL     1       6.327   3.117  12.186  0.00  0.00    +0.000 C 
ATOM     24  C   UNL     1       7.284   4.128  11.581  0.00  0.00    +0.000 C 
ATOM     25  C   UNL     1       7.784   4.974  12.746  0.00  0.00    +0.000 C 
ENDBRANCH  18  21
ENDBRANCH  14  15
ENDBRANCH   1  14
TORSDOF 5
ENDMDL
MODEL 4
REMARK VINA RESULT:      -6.9      2.441      3.034
REMARK  Name = 
REMARK  5 active torsions:
REMARK  status: ('A' for Active; 'I' for Inactive)
REMARK    1  A    between atoms: O_1  and  C_2
REMARK    2  A    between atoms: C_8  and  C_9
REMARK    3  A    between atoms: C_9  and  C_10
REMARK    4  A    between atoms: C_10  and  N_11
REMARK    5  A    between atoms: N_14  and  C_15
REMARK                            x       y       z     vdW  Elec       q    Type
REMARK                         _______ _______ _______ _____ _____    ______ ____
ROOT
ATOM      1  C   UNL     1       2.012   7.963  19.906  0.00  0.00    +0.000 C 
ENDROOT
BRANCH   1   8
ATOM      2  C   UNL     1       1.524   3.344  20.443  0.00  0.00    +0.000 A 
ATOM      3  C   UNL     1       2.077   2.604  19.402  0.00  0.00    +0.000 A 
ATOM      4  C   UNL     1       2.764   3.248  18.364  0.00  0.00    +0.000 A 
ATOM      5  C   UNL     1       2.859   4.644  18.413  0.00  0.00    +0.000 A 
ATOM      6  N   UNL     1       3.465   5.525  17.550  0.00  0.00    +0.000 N 
ATOM      7  C   UNL     1       3.270   6.813  17.971  0.00  0.00    +0.000 A 
ATOM      8  C   UNL     1       2.524   6.783  19.133  0.00  0.00    +0.000 A 
ATOM      9  C   UNL     1       2.290   5.403  19.437  0.00  0.00    +0.000 A 
ATOM     10  C   UNL     1       1.618   4.733  20.480  0.00  0.00    +0.000 A 
ATOM     11  H   UNL     1       3.963   5.257  16.711  0.00  0.00    +0.000 HD
BRANCH   2  12
ATOM     12  O   UNL     1       0.857   2.732  21.466  0.00  0.00    +0.000 OA
ATOM     13  H   UNL     1       0.989   1.774  21.391  0.00  0.00    +0.000 HD
ENDBRANCH   2  12
ENDBRANCH   1   8
BRANCH   1  14
ATOM     14  C   UNL     1       1.511   9.100  19.002  0.00  0.00    +0.000 C 
BRANCH  14  15
ATOM     15  N   UNL     1       0.250   9.709  19.471  0.00  0.00    +0.000 NA
ATOM     16  C   UNL     1      -0.182   9.257  20.815  0.00  0.00    +0.000 C 
ATOM     17  C   UNL     1       0.360  10.024  22.059  0.00  0.00    +0.000 C 
ATOM     18  N   UNL     1       0.441  11.497  21.931  0.00  0.00    +0.000 NA
ATOM     19  C   UNL     1       1.104  11.776  20.638  0.00  0.00    +0.000 C 
ATOM     20  C   UNL     1       0.348  11.183  19.434  0.00  0.00    +0.000 C 
BRANCH  18  21
ATOM     21  C   UNL     1      -0.867  12.165  22.062  0.00  0.00    +0.000 C 
ATOM     22  C   UNL     1      -1.799  11.498  23.083  0.00  0.00    +0.000 C 
ATOM     23  C   UNL     1      -2.783  12.599  23.452  0.00  0.00    +0.000 C 
ATOM     24  C   UNL     1      -1.922  13.846  23.538  0.00  0.00    +0.000 C 
ATOM     25  C   UNL     1      -0.778  13.627  22.555  0.00  0.00    +0.000 C 
ENDBRANCH  18  21
ENDBRANCH  14  15
ENDBRANCH   1  14
TORSDOF 5
ENDMDL
MODEL 5
REMARK VINA RESULT:      -6.8      0.947      1.098
REMARK  Name = 
REMARK  5 active torsions:
REMARK  status: ('A' for Active; 'I' for Inactive)
REMARK    1  A    between atoms: O_1  and  C_2
REMARK    2  A    between atoms: C_8  and  C_9
REMARK    3  A    between atoms: C_9  and  C_10
REMARK    4  A    between atoms: C_10  and  N_11
REMARK    5  A    between atoms: N_14  and  C_15
REMARK                            x       y       z     vdW  Elec       q    Type
REMARK                         _______ _______ _______ _____ _____    ______ ____
ROOT
ATOM      1  C   UNL     1       1.951   8.301  17.655  0.00  0.00    +0.000 C 
ENDROOT
BRANCH   1   8
ATOM      2  C   UNL     1       5.846   5.873  16.762  0.00  0.00    +0.000 A 
ATOM      3  C   UNL     1       6.238   5.050  17.813  0.00  0.00    +0.000 A 
ATOM      4  C   UNL     1       5.451   4.953  18.967  0.00  0.00    +0.000 A 
ATOM      5  C   UNL     1       4.278   5.716  19.022  0.00  0.00    +0.000 A 
ATOM      6  N   UNL     1       3.327   5.817  20.009  0.00  0.00    +0.000 N 
ATOM      7  C   UNL     1       2.365   6.722  19.652  0.00  0.00    +0.000 A 
ATOM      8  C   UNL     1       2.684   7.229  18.407  0.00  0.00    +0.000 A 
ATOM      9  C   UNL     1       3.881   6.565  17.987  0.00  0.00    +0.000 A 
ATOM     10  C   UNL     1       4.681   6.633  16.827  0.00  0.00    +0.000 A 
ATOM     11  H   UNL     1       3.351   5.309  20.884  0.00  0.00    +0.000 HD
BRANCH   2  12
ATOM     12  O   UNL     1       6.598   5.974  15.626  0.00  0.00    +0.000 OA
ATOM     13  H   UNL     1       7.186   5.204  15.576  0.00  0.00    +0.000 HD
ENDBRANCH   2  12
ENDBRANCH   1   8
BRANCH   1  14
ATOM     14  C   UNL     1       1.769   9.589  18.473  0.00  0.00    +0.000 C 
BRANCH  14  15
ATOM     15  N   UNL     1       0.633   9.529  19.415  0.00  0.00    +0.000 NA
ATOM     16  C   UNL     1       0.955   9.986  20.787  0.00  0.00    +0.000 C 
ATOM     17  C   UNL     1       0.819  11.505  21.108  0.00  0.00    +0.000 C 
ATOM     18  N   UNL     1      -0.353  12.192  20.518  0.00  0.00    +0.000 NA
ATOM     19  C   UNL     1      -0.398  11.808  19.091  0.00  0.00    +0.000 C 
ATOM     20  C   UNL     1      -0.517  10.287  18.880  0.00  0.00    +0.000 C 
BRANCH  18  21
ATOM     21  C   UNL     1      -1.613  11.906  21.230  0.00  0.00    +0.000 C 
ATOM     22  C   UNL     1      -1.476  11.929  22.759  0.00  0.00    +0.000 C 
ATOM     23  C   UNL     1      -2.897  12.167  23.249  0.00  0.00    +0.000 C 
ATOM     24  C   UNL     1      -3.456  13.185  22.272  0.00  0.00    +0.000 C 
ATOM     25  C   UNL     1      -2.737  12.930  20.952  0.00  0.00    +0.000 C 
ENDBRANCH  18  21
ENDBRANCH  14  15
ENDBRANCH   1  14
TORSDOF 5
ENDMDL
MODEL 6
REMARK VINA RESULT:      -6.8      3.187      9.115
REMARK  Name = 
REMARK  5 active torsions:
REMARK  status: ('A' for Active; 'I' for Inactive)
REMARK    1  A    between atoms: O_1  and  C_2
REMARK    2  A    between atoms: C_8  and  C_9
REMARK    3  A    between atoms: C_9  and  C_10
REMARK    4  A    between atoms: C_10  and  N_11
REMARK    5  A    between atoms: N_14  and  C_15
REMARK                            x       y       z     vdW  Elec       q    Type
REMARK                         _______ _______ _______ _____ _____    ______ ____
ROOT
ATOM      1  C   UNL     1       3.730   5.182  18.844  0.00  0.00    +0.000 C 
ENDROOT
BRANCH   1   8
ATOM      2  C   UNL     1       1.828   9.419  18.303  0.00  0.00    +0.000 A 
ATOM      3  C   UNL     1       0.947   9.765  19.324  0.00  0.00    +0.000 A 
ATOM      4  C   UNL     1       0.755   8.905  20.413  0.00  0.00    +0.000 A 
ATOM      5  C   UNL     1       1.468   7.701  20.426  0.00  0.00    +0.000 A 
ATOM      6  N   UNL     1       1.482   6.684  21.353  0.00  0.00    +0.000 N 
ATOM      7  C   UNL     1       2.299   5.670  20.933  0.00  0.00    +0.000 A 
ATOM      8  C   UNL     1       2.836   6.021  19.710  0.00  0.00    +0.000 A 
ATOM      9  C   UNL     1       2.338   7.327  19.400  0.00  0.00    +0.000 A 
ATOM     10  C   UNL     1       2.528   8.215  18.322  0.00  0.00    +0.000 A 
ATOM     11  H   UNL     1       0.944   6.681  22.209  0.00  0.00    +0.000 HD
BRANCH   2  12
ATOM     12  O   UNL     1       2.032  10.248  17.237  0.00  0.00    +0.000 OA
ATOM     13  H   UNL     1       1.407  10.988  17.297  0.00  0.00    +0.000 HD
ENDBRANCH   2  12
ENDBRANCH   1   8
BRANCH   1  14
ATOM     14  C   UNL     1       5.144   5.765  18.701  0.00  0.00    +0.000 C 
BRANCH  14  15
ATOM     15  N   UNL     1       5.475   6.169  17.319  0.00  0.00    +0.000 NA
ATOM     16  C   UNL     1       6.889   5.941  16.939  0.00  0.00    +0.000 C 
ATOM     17  C   UNL     1       7.280   4.548  16.361  0.00  0.00    +0.000 C 
ATOM     18  N   UNL     1       6.312   3.939  15.420  0.00  0.00    +0.000 NA
ATOM     19  C   UNL     1       4.980   4.044  16.052  0.00  0.00    +0.000 C 
ATOM     20  C   UNL     1       4.574   5.498  16.360  0.00  0.00    +0.000 C 
BRANCH  18  21
ATOM     21  C   UNL     1       6.358   4.536  14.072  0.00  0.00    +0.000 C 
ATOM     22  C   UNL     1       7.739   5.084  13.688  0.00  0.00    +0.000 C 
ATOM     23  C   UNL     1       7.707   5.122  12.167  0.00  0.00    +0.000 C 
ATOM     24  C   UNL     1       6.990   3.840  11.784  0.00  0.00    +0.000 C 
ATOM     25  C   UNL     1       6.035   3.541  12.935  0.00  0.00    +0.000 C 
ENDBRANCH  18  21
ENDBRANCH  14  15
ENDBRANCH   1  14
TORSDOF 5
ENDMDL
MODEL 7
REMARK VINA RESULT:      -6.8      1.858      2.400
REMARK  Name = 
REMARK  5 active torsions:
REMARK  status: ('A' for Active; 'I' for Inactive)
REMARK    1  A    between atoms: O_1  and  C_2
REMARK    2  A    between atoms: C_8  and  C_9
REMARK    3  A    between atoms: C_9  and  C_10
REMARK    4  A    between atoms: C_10  and  N_11
REMARK    5  A    between atoms: N_14  and  C_15
REMARK                            x       y       z     vdW  Elec       q    Type
REMARK                         _______ _______ _______ _____ _____    ______ ____
ROOT
ATOM      1  C   UNL     1       1.635   6.917  20.541  0.00  0.00    +0.000 C 
ENDROOT
BRANCH   1   8
ATOM      2  C   UNL     1       4.814   3.961  18.805  0.00  0.00    +0.000 A 
ATOM      3  C   UNL     1       5.289   4.333  17.551  0.00  0.00    +0.000 A 
ATOM      4  C   UNL     1       4.863   5.530  16.960  0.00  0.00    +0.000 A 
ATOM      5  C   UNL     1       3.948   6.317  17.669  0.00  0.00    +0.000 A 
ATOM      6  N   UNL     1       3.370   7.521  17.343  0.00  0.00    +0.000 N 
ATOM      7  C   UNL     1       2.495   7.908  18.322  0.00  0.00    +0.000 A 
ATOM      8  C   UNL     1       2.495   6.946  19.312  0.00  0.00    +0.000 A 
ATOM      9  C   UNL     1       3.444   5.949  18.918  0.00  0.00    +0.000 A 
ATOM     10  C   UNL     1       3.900   4.748  19.501  0.00  0.00    +0.000 A 
ATOM     11  H   UNL     1       3.551   8.033  16.489  0.00  0.00    +0.000 HD
BRANCH   2  12
ATOM     12  O   UNL     1       5.224   2.802  19.399  0.00  0.00    +0.000 OA
ATOM     13  H   UNL     1       5.628   2.234  18.723  0.00  0.00    +0.000 HD
ENDBRANCH   2  12
ENDBRANCH   1   8
BRANCH   1  14
ATOM     14  C   UNL     1       1.460   8.303  21.183  0.00  0.00    +0.000 C 
BRANCH  14  15
ATOM     15  N   UNL     1       0.081   8.821  21.091  0.00  0.00    +0.000 NA
ATOM     16  C   UNL     1      -0.626   8.906  22.391  0.00  0.00    +0.000 C 
ATOM     17  C   UNL     1      -0.459  10.205  23.235  0.00  0.00    +0.000 C 
ATOM     18  N   UNL     1      -0.464  11.478  22.479  0.00  0.00    +0.000 NA
ATOM     19  C   UNL     1       0.466  11.301  21.343  0.00  0.00    +0.000 C 
ATOM     20  C   UNL     1       0.070  10.135  20.417  0.00  0.00    +0.000 C 
BRANCH  18  21
ATOM     21  C   UNL     1      -1.813  11.899  22.057  0.00  0.00    +0.000 C 
ATOM     22  C   UNL     1      -2.778  12.138  23.227  0.00  0.00    +0.000 C 
ATOM     23  C   UNL     1      -3.844  13.050  22.639  0.00  0.00    +0.000 C 
ATOM     24  C   UNL     1      -3.062  14.014  21.766  0.00  0.00    +0.000 C 
ATOM     25  C   UNL     1      -1.839  13.239  21.287  0.00  0.00    +0.000 C 
ENDBRANCH  18  21
ENDBRANCH  14  15
ENDBRANCH   1  14
TORSDOF 5
ENDMDL
MODEL 8
REMARK VINA RESULT:      -6.7      2.573      3.066
REMARK  Name = 
REMARK  5 active torsions:
REMARK  status: ('A' for Active; 'I' for Inactive)
REMARK    1  A    between atoms: O_1  and  C_2
REMARK    2  A    between atoms: C_8  and  C_9
REMARK    3  A    between atoms: C_9  and  C_10
REMARK    4  A    between atoms: C_10  and  N_11
REMARK    5  A    between atoms: N_14  and  C_15
REMARK                            x       y       z     vdW  Elec       q    Type
REMARK                         _______ _______ _______ _____ _____    ______ ____
ROOT
ATOM      1  C   UNL     1       1.470   6.676  20.677  0.00  0.00    +0.000 C 
ENDROOT
BRANCH   1   8
ATOM      2  C   UNL     1       1.797   2.532  18.536  0.00  0.00    +0.000 A 
ATOM      3  C   UNL     1       2.621   2.551  17.415  0.00  0.00    +0.000 A 
ATOM      4  C   UNL     1       3.311   3.719  17.065  0.00  0.00    +0.000 A 
ATOM      5  C   UNL     1       3.132   4.848  17.873  0.00  0.00    +0.000 A 
ATOM      6  N   UNL     1       3.675   6.108  17.775  0.00  0.00    +0.000 N 
ATOM      7  C   UNL     1       3.182   6.916  18.764  0.00  0.00    +0.000 A 
ATOM      8  C   UNL     1       2.300   6.179  19.529  0.00  0.00    +0.000 A 
ATOM      9  C   UNL     1       2.291   4.853  18.988  0.00  0.00    +0.000 A 
ATOM     10  C   UNL     1       1.620   3.662  19.330  0.00  0.00    +0.000 A 
ATOM     11  H   UNL     1       4.327   6.398  17.058  0.00  0.00    +0.000 HD
BRANCH   2  12
ATOM     12  O   UNL     1       1.122   1.400  18.896  0.00  0.00    +0.000 OA
ATOM     13  H   UNL     1       1.755   0.667  18.952  0.00  0.00    +0.000 HD
ENDBRANCH   2  12
ENDBRANCH   1   8
BRANCH   1  14
ATOM     14  C   UNL     1       1.456   8.208  20.787  0.00  0.00    +0.000 C 
BRANCH  14  15
ATOM     15  N   UNL     1       0.095   8.780  20.828  0.00  0.00    +0.000 NA
ATOM     16  C   UNL     1      -0.517   8.801  22.177  0.00  0.00    +0.000 C 
ATOM     17  C   UNL     1      -0.241  10.032  23.092  0.00  0.00    +0.000 C 
ATOM     18  N   UNL     1      -0.246  11.353  22.424  0.00  0.00    +0.000 NA
ATOM     19  C   UNL     1       0.597  11.222  21.216  0.00  0.00    +0.000 C 
ATOM     20  C   UNL     1       0.092  10.137  20.245  0.00  0.00    +0.000 C 
BRANCH  18  21
ATOM     21  C   UNL     1      -1.602  11.850  22.127  0.00  0.00    +0.000 C 
ATOM     22  C   UNL     1      -2.536  11.857  23.345  0.00  0.00    +0.000 C 
ATOM     23  C   UNL     1      -3.611  12.868  22.975  0.00  0.00    +0.000 C 
ATOM     24  C   UNL     1      -2.845  13.982  22.287  0.00  0.00    +0.000 C 
ATOM     25  C   UNL     1      -1.640  13.314  21.634  0.00  0.00    +0.000 C 
ENDBRANCH  18  21
ENDBRANCH  14  15
ENDBRANCH   1  14
TORSDOF 5
ENDMDL
MODEL 9
REMARK VINA RESULT:      -6.7      2.582      3.208
REMARK  Name = 
REMARK  5 active torsions:
REMARK  status: ('A' for Active; 'I' for Inactive)
REMARK    1  A    between atoms: O_1  and  C_2
REMARK    2  A    between atoms: C_8  and  C_9
REMARK    3  A    between atoms: C_9  and  C_10
REMARK    4  A    between atoms: C_10  and  N_11
REMARK    5  A    between atoms: N_14  and  C_15
REMARK                            x       y       z     vdW  Elec       q    Type
REMARK                         _______ _______ _______ _____ _____    ______ ____
ROOT
ATOM      1  C   UNL     1       2.362   7.477  18.178  0.00  0.00    +0.000 C 
ENDROOT
BRANCH   1   8
ATOM      2  C   UNL     1       1.518   2.878  18.231  0.00  0.00    +0.000 A 
ATOM      3  C   UNL     1       2.603   2.111  17.819  0.00  0.00    +0.000 A 
ATOM      4  C   UNL     1       3.823   2.724  17.505  0.00  0.00    +0.000 A 
ATOM      5  C   UNL     1       3.898   4.118  17.611  0.00  0.00    +0.000 A 
ATOM      6  N   UNL     1       4.949   4.973  17.375  0.00  0.00    +0.000 N 
ATOM      7  C   UNL     1       4.557   6.271  17.566  0.00  0.00    +0.000 A 
ATOM      8  C   UNL     1       3.227   6.275  17.936  0.00  0.00    +0.000 A 
ATOM      9  C   UNL     1       2.813   4.905  18.001  0.00  0.00    +0.000 A 
ATOM     10  C   UNL     1       1.600   4.265  18.329  0.00  0.00    +0.000 A 
ATOM     11  H   UNL     1       5.871   4.682  17.079  0.00  0.00    +0.000 HD
BRANCH   2  12
ATOM     12  O   UNL     1       0.323   2.297  18.548  0.00  0.00    +0.000 OA
ATOM     13  H   UNL     1      -0.210   2.937  19.046  0.00  0.00    +0.000 HD
ENDBRANCH   2  12
ENDBRANCH   1   8
BRANCH   1  14
ATOM     14  C   UNL     1       1.853   7.567  19.625  0.00  0.00    +0.000 C 
BRANCH  14  15
ATOM     15  N   UNL     1       1.833   8.946  20.154  0.00  0.00    +0.000 NA
ATOM     16  C   UNL     1       1.125   9.920  19.290  0.00  0.00    +0.000 C 
ATOM     17  C   UNL     1      -0.412  10.090  19.480  0.00  0.00    +0.000 C 
ATOM     18  N   UNL     1      -0.901  10.080  20.877  0.00  0.00    +0.000 NA
ATOM     19  C   UNL     1      -0.276   8.913  21.538  0.00  0.00    +0.000 C 
ATOM     20  C   UNL     1       1.263   8.963  21.517  0.00  0.00    +0.000 C 
BRANCH  18  21
ATOM     21  C   UNL     1      -0.650  11.346  21.591  0.00  0.00    +0.000 C 
ATOM     22  C   UNL     1      -1.252  12.575  20.894  0.00  0.00    +0.000 C 
ATOM     23  C   UNL     1      -1.366  13.606  22.007  0.00  0.00    +0.000 C 
ATOM     24  C   UNL     1      -1.830  12.800  23.207  0.00  0.00    +0.000 C 
ATOM     25  C   UNL     1      -1.262  11.399  23.009  0.00  0.00    +0.000 C 
ENDBRANCH  18  21
ENDBRANCH  14  15
ENDBRANCH   1  14
TORSDOF 5
ENDMDL
