MODEL 1
REMARK VINA RESULT:      -6.0      0.000      0.000
REMARK  Name = 
REMARK  4 active torsions:
REMARK  status: ('A' for Active; 'I' for Inactive)
REMARK    1  A    between atoms: C_5  and  S_6
REMARK    2  A    between atoms: S_6  and  C_7
REMARK    3  A    between atoms: C_7  and  C_8
REMARK    4  A    between atoms: C_8  and  C_9
REMARK                            x       y       z     vdW  Elec       q    Type
REMARK                         _______ _______ _______ _____ _____    ______ ____
ROOT
ATOM      1  S   UNL     1       2.209   6.417  18.497  0.00  0.00    +0.000 S 
ENDROOT
BRANCH   1   6
ATOM      2  F   UNL     1       3.894   0.686  18.427  0.00  0.00    +0.000 F 
ATOM      3  C   UNL     1       3.505   1.984  18.472  0.00  0.00    +0.000 A 
ATOM      4  C   UNL     1       2.536   2.452  17.580  0.00  0.00    +0.000 A 
ATOM      5  C   UNL     1       2.141   3.792  17.611  0.00  0.00    +0.000 A 
ATOM      6  C   UNL     1       2.710   4.677  18.532  0.00  0.00    +0.000 A 
ATOM      7  C   UNL     1       3.683   4.201  19.438  0.00  0.00    +0.000 A 
ATOM      8  C   UNL     1       4.074   2.856  19.403  0.00  0.00    +0.000 A 
ENDBRANCH   1   6
BRANCH   1   9
ATOM      9  C   UNL     1       3.837   7.182  18.131  0.00  0.00    +0.000 C 
BRANCH   9  10
ATOM     10  C   UNL     1       4.283   6.826  16.719  0.00  0.00    +0.000 C 
BRANCH  10  11
ATOM     11  C   UNL     1       5.523   5.972  16.647  0.00  0.00    +0.000 A 
ATOM     12  C   UNL     1       6.381   5.926  17.757  0.00  0.00    +0.000 A 
ATOM     13  C   UNL     1       7.509   5.110  17.729  0.00  0.00    +0.000 A 
ATOM     14  N   UNL     1       7.786   4.365  16.631  0.00  0.00    +0.000 NA
ATOM     15  C   UNL     1       6.980   4.387  15.531  0.00  0.00    +0.000 A 
ATOM     16  C   UNL     1       5.841   5.196  15.517  0.00  0.00    +0.000 A 
ENDBRANCH  10  11
ENDBRANCH   9  10
ENDBRANCH   1   9
TORSDOF 4
ENDMDL
MODEL 2
REMARK VINA RESULT:      -5.9      3.553      6.047
REMARK  Name = 
REMARK  4 active torsions:
REMARK  status: ('A' for Active; 'I' for Inactive)
REMARK    1  A    between atoms: C_5  and  S_6
REMARK    2  A    between atoms: S_6  and  C_7
REMARK    3  A    between atoms: C_7  and  C_8
REMARK    4  A    between atoms: C_8  and  C_9
REMARK                            x       y       z     vdW  Elec       q    Type
REMARK                         _______ _______ _______ _____ _____    ______ ____
ROOT
ATOM      1  S   UNL     1       5.373   3.959  16.062  0.00  0.00    +0.000 S 
ENDROOT
BRANCH   1   6
ATOM      2  F   UNL     1       8.758   7.874  19.046  0.00  0.00    +0.000 F 
ATOM      3  C   UNL     1       7.966   7.004  18.372  0.00  0.00    +0.000 A 
ATOM      4  C   UNL     1       7.877   5.673  18.793  0.00  0.00    +0.000 A 
ATOM      5  C   UNL     1       7.074   4.768  18.094  0.00  0.00    +0.000 A 
ATOM      6  C   UNL     1       6.354   5.181  16.970  0.00  0.00    +0.000 A 
ATOM      7  C   UNL     1       6.438   6.527  16.551  0.00  0.00    +0.000 A 
ATOM      8  C   UNL     1       7.243   7.431  17.256  0.00  0.00    +0.000 A 
ENDBRANCH   1   6
BRANCH   1   9
ATOM      9  C   UNL     1       3.857   3.975  17.096  0.00  0.00    +0.000 C 
BRANCH   9  10
ATOM     10  C   UNL     1       3.810   2.739  17.984  0.00  0.00    +0.000 C 
BRANCH  10  11
ATOM     11  C   UNL     1       2.927   2.871  19.198  0.00  0.00    +0.000 A 
ATOM     12  C   UNL     1       1.598   3.291  19.030  0.00  0.00    +0.000 A 
ATOM     13  C   UNL     1       0.752   3.379  20.132  0.00  0.00    +0.000 A 
ATOM     14  N   UNL     1       1.207   3.065  21.369  0.00  0.00    +0.000 NA
ATOM     15  C   UNL     1       2.493   2.658  21.575  0.00  0.00    +0.000 A 
ATOM     16  C   UNL     1       3.376   2.562  20.496  0.00  0.00    +0.000 A 
ENDBRANCH  10  11
ENDBRANCH   9  10
ENDBRANCH   1   9
TORSDOF 4
ENDMDL
MODEL 3
REMARK VINA RESULT:      -5.9      3.320      5.524
REMARK  Name = 
REMARK  4 active torsions:
REMARK  status: ('A' for Active; 'I' for Inactive)
REMARK    1  A    between atoms: C_5  and  S_6
REMARK    2  A    between atoms: S_6  and  C_7
REMARK    3  A    between atoms: C_7  and  C_8
REMARK    4  A    between atoms: C_8  and  C_9
REMARK                            x       y       z     vdW  Elec       q    Type
REMARK                         _______ _______ _______ _____ _____    ______ ____
ROOT
ATOM      1  S   UNL     1       5.072   4.004  16.060  0.00  0.00    +0.000 S 
ENDROOT
BRANCH   1   6
ATOM      2  F   UNL     1       8.631   7.856  18.920  0.00  0.00    +0.000 F 
ATOM      3  C   UNL     1       7.847   6.965  18.265  0.00  0.00    +0.000 A 
ATOM      4  C   UNL     1       7.017   7.398  17.226  0.00  0.00    +0.000 A 
ATOM      5  C   UNL     1       6.196   6.487  16.556  0.00  0.00    +0.000 A 
ATOM      6  C   UNL     1       6.195   5.137  16.917  0.00  0.00    +0.000 A 
ATOM      7  C   UNL     1       7.040   4.699  17.960  0.00  0.00    +0.000 A 
ATOM      8  C   UNL     1       7.863   5.616  18.627  0.00  0.00    +0.000 A 
ENDBRANCH   1   6
BRANCH   1   9
ATOM      9  C   UNL     1       4.094   3.419  17.499  0.00  0.00    +0.000 C 
BRANCH   9  10
ATOM     10  C   UNL     1       2.694   4.018  17.465  0.00  0.00    +0.000 C 
BRANCH  10  11
ATOM     11  C   UNL     1       2.458   5.119  18.467  0.00  0.00    +0.000 A 
ATOM     12  C   UNL     1       2.697   6.448  18.085  0.00  0.00    +0.000 A 
ATOM     13  C   UNL     1       2.444   7.485  18.980  0.00  0.00    +0.000 A 
ATOM     14  N   UNL     1       1.973   7.215  20.222  0.00  0.00    +0.000 NA
ATOM     15  C   UNL     1       1.733   5.936  20.633  0.00  0.00    +0.000 A 
ATOM     16  C   UNL     1       1.979   4.867  19.766  0.00  0.00    +0.000 A 
ENDBRANCH  10  11
ENDBRANCH   9  10
ENDBRANCH   1   9
TORSDOF 4
ENDMDL
MODEL 4
REMARK VINA RESULT:      -5.8      0.134      1.705
REMARK  Name = 
REMARK  4 active torsions:
REMARK  status: ('A' for Active; 'I' for Inactive)
REMARK    1  A    between atoms: C_5  and  S_6
REMARK    2  A    between atoms: S_6  and  C_7
REMARK    3  A    between atoms: C_7  and  C_8
REMARK    4  A    between atoms: C_8  and  C_9
REMARK                            x       y       z     vdW  Elec       q    Type
REMARK                         _______ _______ _______ _____ _____    ______ ____
ROOT
ATOM      1  S   UNL     1       2.255   6.422  18.497  0.00  0.00    +0.000 S 
ENDROOT
BRANCH   1   6
ATOM      2  F   UNL     1       3.894   0.677  18.507  0.00  0.00    +0.000 F 
ATOM      3  C   UNL     1       3.531   1.983  18.476  0.00  0.00    +0.000 A 
ATOM      4  C   UNL     1       4.041   2.871  19.429  0.00  0.00    +0.000 A 
ATOM      5  C   UNL     1       3.660   4.215  19.411  0.00  0.00    +0.000 A 
ATOM      6  C   UNL     1       2.766   4.685  18.445  0.00  0.00    +0.000 A 
ATOM      7  C   UNL     1       2.258   3.789  17.478  0.00  0.00    +0.000 A 
ATOM      8  C   UNL     1       2.645   2.443  17.499  0.00  0.00    +0.000 A 
ENDBRANCH   1   6
BRANCH   1   9
ATOM      9  C   UNL     1       3.894   7.215  18.266  0.00  0.00    +0.000 C 
BRANCH   9  10
ATOM     10  C   UNL     1       4.413   6.956  16.858  0.00  0.00    +0.000 C 
BRANCH  10  11
ATOM     11  C   UNL     1       5.593   6.021  16.785  0.00  0.00    +0.000 A 
ATOM     12  C   UNL     1       5.857   5.352  15.580  0.00  0.00    +0.000 A 
ATOM     13  C   UNL     1       6.966   4.517  15.477  0.00  0.00    +0.000 A 
ATOM     14  N   UNL     1       7.790   4.342  16.539  0.00  0.00    +0.000 NA
ATOM     15  C   UNL     1       7.564   4.969  17.730  0.00  0.00    +0.000 A 
ATOM     16  C   UNL     1       6.459   5.812  17.875  0.00  0.00    +0.000 A 
ENDBRANCH  10  11
ENDBRANCH   9  10
ENDBRANCH   1   9
TORSDOF 4
ENDMDL
MODEL 5
REMARK VINA RESULT:      -5.8      3.283      5.466
REMARK  Name = 
REMARK  4 active torsions:
REMARK  status: ('A' for Active; 'I' for Inactive)
REMARK    1  A    between atoms: C_5  and  S_6
REMARK    2  A    between atoms: S_6  and  C_7
REMARK    3  A    between atoms: C_7  and  C_8
REMARK    4  A    between atoms: C_8  and  C_9
REMARK                            x       y       z     vdW  Elec       q    Type
REMARK                         _______ _______ _______ _____ _____    ______ ____
ROOT
ATOM      1  S   UNL     1       5.039   4.353  18.453  0.00  0.00    +0.000 S 
ENDROOT
BRANCH   1   6
ATOM      2  F   UNL     1       7.241   4.740  12.912  0.00  0.00    +0.000 F 
ATOM      3  C   UNL     1       6.764   4.634  14.177  0.00  0.00    +0.000 A 
ATOM      4  C   UNL     1       5.446   4.220  14.393  0.00  0.00    +0.000 A 
ATOM      5  C   UNL     1       4.944   4.122  15.693  0.00  0.00    +0.000 A 
ATOM      6  C   UNL     1       5.751   4.438  16.789  0.00  0.00    +0.000 A 
ATOM      7  C   UNL     1       7.085   4.848  16.571  0.00  0.00    +0.000 A 
ATOM      8  C   UNL     1       7.584   4.942  15.266  0.00  0.00    +0.000 A 
ENDBRANCH   1   6
BRANCH   1   9
ATOM      9  C   UNL     1       4.180   5.975  18.485  0.00  0.00    +0.000 C 
BRANCH   9  10
ATOM     10  C   UNL     1       2.715   5.805  18.108  0.00  0.00    +0.000 C 
BRANCH  10  11
ATOM     11  C   UNL     1       2.004   4.690  18.831  0.00  0.00    +0.000 A 
ATOM     12  C   UNL     1       1.508   3.606  18.090  0.00  0.00    +0.000 A 
ATOM     13  C   UNL     1       0.886   2.544  18.742  0.00  0.00    +0.000 A 
ATOM     14  N   UNL     1       0.753   2.556  20.091  0.00  0.00    +0.000 NA
ATOM     15  C   UNL     1       1.216   3.593  20.846  0.00  0.00    +0.000 A 
ATOM     16  C   UNL     1       1.842   4.680  20.229  0.00  0.00    +0.000 A 
ENDBRANCH  10  11
ENDBRANCH   9  10
ENDBRANCH   1   9
TORSDOF 4
ENDMDL
MODEL 6
REMARK VINA RESULT:      -5.8      3.239      5.254
REMARK  Name = 
REMARK  4 active torsions:
REMARK  status: ('A' for Active; 'I' for Inactive)
REMARK    1  A    between atoms: C_5  and  S_6
REMARK    2  A    between atoms: S_6  and  C_7
REMARK    3  A    between atoms: C_7  and  C_8
REMARK    4  A    between atoms: C_8  and  C_9
REMARK                            x       y       z     vdW  Elec       q    Type
REMARK                         _______ _______ _______ _____ _____    ______ ____
ROOT
ATOM      1  S   UNL     1       5.233   4.480  18.573  0.00  0.00    +0.000 S 
ENDROOT
BRANCH   1   6
ATOM      2  F   UNL     1       7.093   4.634  12.898  0.00  0.00    +0.000 F 
ATOM      3  C   UNL     1       6.695   4.582  14.193  0.00  0.00    +0.000 A 
ATOM      4  C   UNL     1       5.412   4.125  14.510  0.00  0.00    +0.000 A 
ATOM      5  C   UNL     1       4.991   4.083  15.842  0.00  0.00    +0.000 A 
ATOM      6  C   UNL     1       5.843   4.497  16.868  0.00  0.00    +0.000 A 
ATOM      7  C   UNL     1       7.142   4.951  16.547  0.00  0.00    +0.000 A 
ATOM      8  C   UNL     1       7.561   4.990  15.211  0.00  0.00    +0.000 A 
ENDBRANCH   1   6
BRANCH   1   9
ATOM      9  C   UNL     1       4.354   6.091  18.585  0.00  0.00    +0.000 C 
BRANCH   9  10
ATOM     10  C   UNL     1       2.915   5.912  18.118  0.00  0.00    +0.000 C 
BRANCH  10  11
ATOM     11  C   UNL     1       2.187   4.758  18.757  0.00  0.00    +0.000 A 
ATOM     12  C   UNL     1       1.967   4.776  20.143  0.00  0.00    +0.000 A 
ATOM     13  C   UNL     1       1.258   3.741  20.748  0.00  0.00    +0.000 A 
ATOM     14  N   UNL     1       0.784   2.712  20.004  0.00  0.00    +0.000 NA
ATOM     15  C   UNL     1       0.981   2.655  18.655  0.00  0.00    +0.000 A 
ATOM     16  C   UNL     1       1.692   3.672  18.011  0.00  0.00    +0.000 A 
ENDBRANCH  10  11
ENDBRANCH   9  10
ENDBRANCH   1   9
TORSDOF 4
ENDMDL
MODEL 7
REMARK VINA RESULT:      -5.8      2.108      2.487
REMARK  Name = 
REMARK  4 active torsions:
REMARK  status: ('A' for Active; 'I' for Inactive)
REMARK    1  A    between atoms: C_5  and  S_6
REMARK    2  A    between atoms: S_6  and  C_7
REMARK    3  A    between atoms: C_7  and  C_8
REMARK    4  A    between atoms: C_8  and  C_9
REMARK                            x       y       z     vdW  Elec       q    Type
REMARK                         _______ _______ _______ _____ _____    ______ ____
ROOT
ATOM      1  S   UNL     1       3.374   4.225  17.511  0.00  0.00    +0.000 S 
ENDROOT
BRANCH   1   6
ATOM      2  F   UNL     1       0.897   2.265  22.581  0.00  0.00    +0.000 F 
ATOM      3  C   UNL     1       1.479   2.726  21.447  0.00  0.00    +0.000 A 
ATOM      4  C   UNL     1       0.699   3.349  20.467  0.00  0.00    +0.000 A 
ATOM      5  C   UNL     1       1.290   3.813  19.289  0.00  0.00    +0.000 A 
ATOM      6  C   UNL     1       2.663   3.661  19.077  0.00  0.00    +0.000 A 
ATOM      7  C   UNL     1       3.451   3.039  20.071  0.00  0.00    +0.000 A 
ATOM      8  C   UNL     1       2.854   2.577  21.251  0.00  0.00    +0.000 A 
ENDBRANCH   1   6
BRANCH   1   9
ATOM      9  C   UNL     1       3.081   6.028  17.690  0.00  0.00    +0.000 C 
BRANCH   9  10
ATOM     10  C   UNL     1       4.389   6.794  17.538  0.00  0.00    +0.000 C 
BRANCH  10  11
ATOM     11  C   UNL     1       5.573   5.946  17.155  0.00  0.00    +0.000 A 
ATOM     12  C   UNL     1       5.797   5.663  15.798  0.00  0.00    +0.000 A 
ATOM     13  C   UNL     1       6.909   4.917  15.418  0.00  0.00    +0.000 A 
ATOM     14  N   UNL     1       7.775   4.457  16.353  0.00  0.00    +0.000 NA
ATOM     15  C   UNL     1       7.590   4.705  17.682  0.00  0.00    +0.000 A 
ATOM     16  C   UNL     1       6.483   5.446  18.105  0.00  0.00    +0.000 A 
ENDBRANCH  10  11
ENDBRANCH   9  10
ENDBRANCH   1   9
TORSDOF 4
ENDMDL
MODEL 8
REMARK VINA RESULT:      -5.8      3.189      5.311
REMARK  Name = 
REMARK  4 active torsions:
REMARK  status: ('A' for Active; 'I' for Inactive)
REMARK    1  A    between atoms: C_5  and  S_6
REMARK    2  A    between atoms: S_6  and  C_7
REMARK    3  A    between atoms: C_7  and  C_8
REMARK    4  A    between atoms: C_8  and  C_9
REMARK                            x       y       z     vdW  Elec       q    Type
REMARK                         _______ _______ _______ _____ _____    ______ ____
ROOT
ATOM      1  S   UNL     1       5.225   4.792  18.704  0.00  0.00    +0.000 S 
ENDROOT
BRANCH   1   6
ATOM      2  F   UNL     1       7.077   4.468  13.033  0.00  0.00    +0.000 F 
ATOM      3  C   UNL     1       6.632   4.556  14.311  0.00  0.00    +0.000 A 
ATOM      4  C   UNL     1       7.452   5.113  15.298  0.00  0.00    +0.000 A 
ATOM      5  C   UNL     1       7.006   5.194  16.619  0.00  0.00    +0.000 A 
ATOM      6  C   UNL     1       5.739   4.720  16.969  0.00  0.00    +0.000 A 
ATOM      7  C   UNL     1       4.908   4.165  15.970  0.00  0.00    +0.000 A 
ATOM      8  C   UNL     1       5.360   4.088  14.646  0.00  0.00    +0.000 A 
ENDBRANCH   1   6
BRANCH   1   9
ATOM      9  C   UNL     1       4.171   6.293  18.635  0.00  0.00    +0.000 C 
BRANCH   9  10
ATOM     10  C   UNL     1       2.803   5.952  18.059  0.00  0.00    +0.000 C 
BRANCH  10  11
ATOM     11  C   UNL     1       2.116   4.786  18.719  0.00  0.00    +0.000 A 
ATOM     12  C   UNL     1       1.872   4.833  20.101  0.00  0.00    +0.000 A 
ATOM     13  C   UNL     1       1.200   3.786  20.725  0.00  0.00    +0.000 A 
ATOM     14  N   UNL     1       0.785   2.716  20.004  0.00  0.00    +0.000 NA
ATOM     15  C   UNL     1       1.008   2.628  18.661  0.00  0.00    +0.000 A 
ATOM     16  C   UNL     1       1.683   3.657  17.998  0.00  0.00    +0.000 A 
ENDBRANCH  10  11
ENDBRANCH   9  10
ENDBRANCH   1   9
TORSDOF 4
ENDMDL
MODEL 9
REMARK VINA RESULT:      -5.8      2.144      2.243
REMARK  Name = 
REMARK  4 active torsions:
REMARK  status: ('A' for Active; 'I' for Inactive)
REMARK    1  A    between atoms: C_5  and  S_6
REMARK    2  A    between atoms: S_6  and  C_7
REMARK    3  A    between atoms: C_7  and  C_8
REMARK    4  A    between atoms: C_8  and  C_9
REMARK                            x       y       z     vdW  Elec       q    Type
REMARK                         _______ _______ _______ _____ _____    ______ ____
ROOT
ATOM      1  S   UNL     1       3.394   4.102  17.516  0.00  0.00    +0.000 S 
ENDROOT
BRANCH   1   6
ATOM      2  F   UNL     1       0.897   2.289  22.632  0.00  0.00    +0.000 F 
ATOM      3  C   UNL     1       1.483   2.717  21.486  0.00  0.00    +0.000 A 
ATOM      4  C   UNL     1       0.707   3.314  20.487  0.00  0.00    +0.000 A 
ATOM      5  C   UNL     1       1.303   3.744  19.299  0.00  0.00    +0.000 A 
ATOM      6  C   UNL     1       2.676   3.583  19.096  0.00  0.00    +0.000 A 
ATOM      7  C   UNL     1       3.460   2.988  20.109  0.00  0.00    +0.000 A 
ATOM      8  C   UNL     1       2.858   2.560  21.300  0.00  0.00    +0.000 A 
ENDBRANCH   1   6
BRANCH   1   9
ATOM      9  C   UNL     1       3.063   5.904  17.623  0.00  0.00    +0.000 C 
BRANCH   9  10
ATOM     10  C   UNL     1       4.371   6.679  17.690  0.00  0.00    +0.000 C 
BRANCH  10  11
ATOM     11  C   UNL     1       5.574   5.928  17.181  0.00  0.00    +0.000 A 
ATOM     12  C   UNL     1       6.498   5.417  18.107  0.00  0.00    +0.000 A 
ATOM     13  C   UNL     1       7.593   4.682  17.662  0.00  0.00    +0.000 A 
ATOM     14  N   UNL     1       7.776   4.462  16.337  0.00  0.00    +0.000 NA
ATOM     15  C   UNL     1       6.904   4.946  15.406  0.00  0.00    +0.000 A 
ATOM     16  C   UNL     1       5.794   5.693  15.811  0.00  0.00    +0.000 A 
ENDBRANCH  10  11
ENDBRANCH   9  10
ENDBRANCH   1   9
TORSDOF 4
ENDMDL
