MODEL 1
REMARK VINA RESULT:      -8.9      0.000      0.000
REMARK  Name = 
REMARK  6 active torsions:
REMARK  status: ('A' for Active; 'I' for Inactive)
REMARK    1  A    between atoms: C_1  and  C_2
REMARK    2  A    between atoms: C_17  and  C_18
REMARK    3  A    between atoms: C_19  and  C_20
REMARK    4  A    between atoms: C_20  and  C_21
REMARK    5  A    between atoms: C_21  and  C_22
REMARK    6  A    between atoms: N_24  and  C_25
REMARK                            x       y       z     vdW  Elec       q    Type
REMARK                         _______ _______ _______ _____ _____    ______ ____
ROOT
ATOM      1  C   UNL     1       2.556   4.064  20.839  0.00  0.00    +0.000 C 
ATOM      2  C   UNL     1       2.391   5.429  20.272  0.00  0.00    +0.000 A 
ATOM      3  N   UNL     1       1.735   6.371  20.959  0.00  0.00    +0.000 NA
ATOM      4  N   UNL     1       1.742   7.483  20.161  0.00  0.00    +0.000 N 
ATOM      5  C   UNL     1       1.017   8.654  20.551  0.00  0.00    +0.000 A 
ATOM      6  C   UNL     1       0.443   8.731  21.808  0.00  0.00    +0.000 A 
ATOM      7  C   UNL     1      -0.347   9.843  22.129  0.00  0.00    +0.000 A 
ATOM      8  C   UNL     1      -0.573  10.863  21.212  0.00  0.00    +0.000 A 
ATOM      9  N   UNL     1      -1.430  11.906  21.471  0.00  0.00    +0.000 N 
ATOM     10  C   UNL     1      -1.740  12.415  22.808  0.00  0.00    +0.000 C 
ATOM     11  C   UNL     1      -3.263  12.569  22.936  0.00  0.00    +0.000 C 
ATOM     12  O   UNL     1      -3.790  13.427  21.908  0.00  0.00    +0.000 OA
ATOM     13  C   UNL     1      -3.484  12.902  20.601  0.00  0.00    +0.000 C 
ATOM     14  C   UNL     1      -1.964  12.742  20.387  0.00  0.00    +0.000 C 
ATOM     15  N   UNL     1       0.027  10.755  20.009  0.00  0.00    +0.000 NA
ATOM     16  N   UNL     1       0.829   9.660  19.679  0.00  0.00    +0.000 NA
ATOM     17  C   UNL     1       2.477   7.250  19.003  0.00  0.00    +0.000 A 
ATOM     18  C   UNL     1       2.805   8.259  17.958  0.00  0.00    +0.000 C 
ATOM     19  C   UNL     1       2.881   5.922  19.042  0.00  0.00    +0.000 A 
ENDROOT
BRANCH  19  20
ATOM     20  C   UNL     1       3.758   5.240  18.045  0.00  0.00    +0.000 C 
BRANCH  20  21
ATOM     21  C   UNL     1       5.210   4.995  18.465  0.00  0.00    +0.000 C 
BRANCH  21  22
ATOM     22  C   UNL     1       6.012   4.712  17.210  0.00  0.00    +0.000 C 
ATOM     23  O   UNL     1       7.213   4.445  17.278  0.00  0.00    +0.000 OA
ATOM     24  N   UNL     1       5.287   4.803  16.032  0.00  0.00    +0.000 N 
ATOM     25  H   UNL     1       4.369   5.217  16.081  0.00  0.00    +0.000 HD
BRANCH  24  26
ATOM     26  C   UNL     1       5.824   4.571  14.740  0.00  0.00    +0.000 A 
ATOM     27  C   UNL     1       5.222   3.713  13.810  0.00  0.00    +0.000 A 
ATOM     28  C   UNL     1       5.831   3.444  12.585  0.00  0.00    +0.000 A 
ATOM     29  C   UNL     1       7.038   4.052  12.277  0.00  0.00    +0.000 A 
ATOM     30  F   UNL     1       7.640   3.771  11.116  0.00  0.00    +0.000 F 
ATOM     31  C   UNL     1       7.629   4.946  13.163  0.00  0.00    +0.000 A 
ATOM     32  C   UNL     1       7.015   5.217  14.392  0.00  0.00    +0.000 A 
ENDBRANCH  24  26
ENDBRANCH  21  22
ENDBRANCH  20  21
ENDBRANCH  19  20
TORSDOF 4
ENDMDL
MODEL 2
REMARK VINA RESULT:      -8.9      0.828      1.210
REMARK  Name = 
REMARK  6 active torsions:
REMARK  status: ('A' for Active; 'I' for Inactive)
REMARK    1  A    between atoms: C_1  and  C_2
REMARK    2  A    between atoms: C_17  and  C_18
REMARK    3  A    between atoms: C_19  and  C_20
REMARK    4  A    between atoms: C_20  and  C_21
REMARK    5  A    between atoms: C_21  and  C_22
REMARK    6  A    between atoms: N_24  and  C_25
REMARK                            x       y       z     vdW  Elec       q    Type
REMARK                         _______ _______ _______ _____ _____    ______ ____
ROOT
ATOM      1  C   UNL     1       2.660   3.478  20.921  0.00  0.00    +0.000 C 
ATOM      2  C   UNL     1       2.654   4.811  20.262  0.00  0.00    +0.000 A 
ATOM      3  N   UNL     1       1.983   5.831  20.807  0.00  0.00    +0.000 NA
ATOM      4  N   UNL     1       2.160   6.888  19.955  0.00  0.00    +0.000 N 
ATOM      5  C   UNL     1       1.471   8.122  20.186  0.00  0.00    +0.000 A 
ATOM      6  C   UNL     1       0.755   8.311  21.354  0.00  0.00    +0.000 A 
ATOM      7  C   UNL     1       0.007   9.486  21.511  0.00  0.00    +0.000 A 
ATOM      8  C   UNL     1      -0.039  10.456  20.517  0.00  0.00    +0.000 A 
ATOM      9  N   UNL     1      -0.851  11.562  20.608  0.00  0.00    +0.000 N 
ATOM     10  C   UNL     1      -1.288  12.173  21.865  0.00  0.00    +0.000 C 
ATOM     11  C   UNL     1      -2.802  12.422  21.792  0.00  0.00    +0.000 C 
ATOM     12  O   UNL     1      -3.142  13.242  20.660  0.00  0.00    +0.000 OA
ATOM     13  C   UNL     1      -2.715  12.618  19.433  0.00  0.00    +0.000 C 
ATOM     14  C   UNL     1      -1.194  12.356  19.421  0.00  0.00    +0.000 C 
ATOM     15  N   UNL     1       0.694  10.238  19.407  0.00  0.00    +0.000 NA
ATOM     16  N   UNL     1       1.457   9.079  19.242  0.00  0.00    +0.000 NA
ATOM     17  C   UNL     1       3.013   6.540  18.914  0.00  0.00    +0.000 A 
ATOM     18  C   UNL     1       3.531   7.459  17.862  0.00  0.00    +0.000 C 
ATOM     19  C   UNL     1       3.322   5.196  19.078  0.00  0.00    +0.000 A 
ENDROOT
BRANCH  19  20
ATOM     20  C   UNL     1       4.267   4.401  18.238  0.00  0.00    +0.000 C 
BRANCH  20  21
ATOM     21  C   UNL     1       5.757   4.545  18.561  0.00  0.00    +0.000 C 
BRANCH  21  22
ATOM     22  C   UNL     1       6.522   4.470  17.255  0.00  0.00    +0.000 C 
ATOM     23  O   UNL     1       7.753   4.420  17.249  0.00  0.00    +0.000 OA
ATOM     24  N   UNL     1       5.725   4.486  16.120  0.00  0.00    +0.000 N 
ATOM     25  H   UNL     1       4.753   4.725  16.237  0.00  0.00    +0.000 HD
BRANCH  24  26
ATOM     26  C   UNL     1       6.220   4.414  14.793  0.00  0.00    +0.000 A 
ATOM     27  C   UNL     1       7.281   5.205  14.334  0.00  0.00    +0.000 A 
ATOM     28  C   UNL     1       7.678   5.167  12.998  0.00  0.00    +0.000 A 
ATOM     29  C   UNL     1       7.024   4.318  12.119  0.00  0.00    +0.000 A 
ATOM     30  F   UNL     1       7.381   4.303  10.829  0.00  0.00    +0.000 F 
ATOM     31  C   UNL     1       6.002   3.486  12.562  0.00  0.00    +0.000 A 
ATOM     32  C   UNL     1       5.607   3.523  13.905  0.00  0.00    +0.000 A 
ENDBRANCH  24  26
ENDBRANCH  21  22
ENDBRANCH  20  21
ENDBRANCH  19  20
TORSDOF 4
ENDMDL
MODEL 3
REMARK VINA RESULT:      -8.9      0.778      1.163
REMARK  Name = 
REMARK  6 active torsions:
REMARK  status: ('A' for Active; 'I' for Inactive)
REMARK    1  A    between atoms: C_1  and  C_2
REMARK    2  A    between atoms: C_17  and  C_18
REMARK    3  A    between atoms: C_19  and  C_20
REMARK    4  A    between atoms: C_20  and  C_21
REMARK    5  A    between atoms: C_21  and  C_22
REMARK    6  A    between atoms: N_24  and  C_25
REMARK                            x       y       z     vdW  Elec       q    Type
REMARK                         _______ _______ _______ _____ _____    ______ ____
ROOT
ATOM      1  C   UNL     1       2.325   4.209  20.807  0.00  0.00    +0.000 C 
ATOM      2  C   UNL     1       2.178   5.590  20.275  0.00  0.00    +0.000 A 
ATOM      3  N   UNL     1       1.586   6.538  21.010  0.00  0.00    +0.000 NA
ATOM      4  N   UNL     1       1.593   7.666  20.234  0.00  0.00    +0.000 N 
ATOM      5  C   UNL     1       0.924   8.851  20.680  0.00  0.00    +0.000 A 
ATOM      6  C   UNL     1       0.413   8.920  21.964  0.00  0.00    +0.000 A 
ATOM      7  C   UNL     1      -0.324  10.050  22.343  0.00  0.00    +0.000 A 
ATOM      8  C   UNL     1      -0.560  11.095  21.457  0.00  0.00    +0.000 A 
ATOM      9  N   UNL     1      -1.369  12.159  21.776  0.00  0.00    +0.000 N 
ATOM     10  C   UNL     1      -1.600  12.651  23.136  0.00  0.00    +0.000 C 
ATOM     11  C   UNL     1      -3.109  12.849  23.338  0.00  0.00    +0.000 C 
ATOM     12  O   UNL     1      -3.655  13.745  22.353  0.00  0.00    +0.000 OA
ATOM     13  C   UNL     1      -3.428  13.238  21.023  0.00  0.00    +0.000 C 
ATOM     14  C   UNL     1      -1.925  13.033  20.735  0.00  0.00    +0.000 C 
ATOM     15  N   UNL     1      -0.020  10.993  20.226  0.00  0.00    +0.000 NA
ATOM     16  N   UNL     1       0.729   9.879  19.837  0.00  0.00    +0.000 NA
ATOM     17  C   UNL     1       2.264   7.433  19.039  0.00  0.00    +0.000 A 
ATOM     18  C   UNL     1       2.575   8.453  17.998  0.00  0.00    +0.000 C 
ATOM     19  C   UNL     1       2.626   6.093  19.033  0.00  0.00    +0.000 A 
ENDROOT
BRANCH  19  20
ATOM     20  C   UNL     1       3.433   5.403  17.983  0.00  0.00    +0.000 C 
BRANCH  20  21
ATOM     21  C   UNL     1       4.939   5.679  17.986  0.00  0.00    +0.000 C 
BRANCH  21  22
ATOM     22  C   UNL     1       5.389   5.797  16.543  0.00  0.00    +0.000 C 
ATOM     23  O   UNL     1       5.290   6.866  15.937  0.00  0.00    +0.000 OA
ATOM     24  N   UNL     1       5.882   4.621  15.997  0.00  0.00    +0.000 N 
ATOM     25  H   UNL     1       5.735   3.769  16.516  0.00  0.00    +0.000 HD
BRANCH  24  26
ATOM     26  C   UNL     1       6.369   4.496  14.671  0.00  0.00    +0.000 A 
ATOM     27  C   UNL     1       7.449   5.245  14.185  0.00  0.00    +0.000 A 
ATOM     28  C   UNL     1       7.839   5.155  12.849  0.00  0.00    +0.000 A 
ATOM     29  C   UNL     1       7.161   4.297  11.999  0.00  0.00    +0.000 A 
ATOM     30  F   UNL     1       7.512   4.232  10.709  0.00  0.00    +0.000 F 
ATOM     31  C   UNL     1       6.119   3.505  12.471  0.00  0.00    +0.000 A 
ATOM     32  C   UNL     1       5.731   3.594  13.813  0.00  0.00    +0.000 A 
ENDBRANCH  24  26
ENDBRANCH  21  22
ENDBRANCH  20  21
ENDBRANCH  19  20
TORSDOF 4
ENDMDL
MODEL 4
REMARK VINA RESULT:      -8.8      3.541      9.603
REMARK  Name = 
REMARK  6 active torsions:
REMARK  status: ('A' for Active; 'I' for Inactive)
REMARK    1  A    between atoms: C_1  and  C_2
REMARK    2  A    between atoms: C_17  and  C_18
REMARK    3  A    between atoms: C_19  and  C_20
REMARK    4  A    between atoms: C_20  and  C_21
REMARK    5  A    between atoms: C_21  and  C_22
REMARK    6  A    between atoms: N_24  and  C_25
REMARK                            x       y       z     vdW  Elec       q    Type
REMARK                         _______ _______ _______ _____ _____    ______ ____
ROOT
ATOM      1  C   UNL     1      -0.085   9.582  23.457  0.00  0.00    +0.000 C 
ATOM      2  C   UNL     1       0.435   9.675  22.067  0.00  0.00    +0.000 A 
ATOM      3  N   UNL     1       0.924   8.592  21.455  0.00  0.00    +0.000 NA
ATOM      4  N   UNL     1       1.332   9.017  20.219  0.00  0.00    +0.000 N 
ATOM      5  C   UNL     1       2.017   8.120  19.339  0.00  0.00    +0.000 A 
ATOM      6  C   UNL     1       2.124   6.777  19.658  0.00  0.00    +0.000 A 
ATOM      7  C   UNL     1       2.885   5.940  18.831  0.00  0.00    +0.000 A 
ATOM      8  C   UNL     1       3.541   6.429  17.707  0.00  0.00    +0.000 A 
ATOM      9  N   UNL     1       4.377   5.646  16.948  0.00  0.00    +0.000 N 
ATOM     10  C   UNL     1       4.265   4.192  16.816  0.00  0.00    +0.000 C 
ATOM     11  C   UNL     1       5.656   3.571  17.016  0.00  0.00    +0.000 C 
ATOM     12  O   UNL     1       6.609   4.114  16.085  0.00  0.00    +0.000 OA
ATOM     13  C   UNL     1       6.713   5.543  16.237  0.00  0.00    +0.000 C 
ATOM     14  C   UNL     1       5.354   6.244  16.027  0.00  0.00    +0.000 C 
ATOM     15  N   UNL     1       3.387   7.738  17.424  0.00  0.00    +0.000 NA
ATOM     16  N   UNL     1       2.619   8.583  18.230  0.00  0.00    +0.000 NA
ATOM     17  C   UNL     1       1.022  10.360  20.037  0.00  0.00    +0.000 A 
ATOM     18  C   UNL     1       1.206  11.138  18.780  0.00  0.00    +0.000 C 
ATOM     19  C   UNL     1       0.467  10.811  21.228  0.00  0.00    +0.000 A 
ENDROOT
BRANCH  19  20
ATOM     20  C   UNL     1      -0.087  12.175  21.479  0.00  0.00    +0.000 C 
BRANCH  20  21
ATOM     21  C   UNL     1      -1.590  12.356  21.248  0.00  0.00    +0.000 C 
BRANCH  21  22
ATOM     22  C   UNL     1      -1.839  12.284  19.755  0.00  0.00    +0.000 C 
ATOM     23  O   UNL     1      -1.435  13.175  19.005  0.00  0.00    +0.000 OA
ATOM     24  N   UNL     1      -2.556  11.170  19.344  0.00  0.00    +0.000 N 
ATOM     25  H   UNL     1      -3.001  10.614  20.058  0.00  0.00    +0.000 HD
BRANCH  24  26
ATOM     26  C   UNL     1      -2.897  10.888  17.997  0.00  0.00    +0.000 A 
ATOM     27  C   UNL     1      -2.107  10.082  17.167  0.00  0.00    +0.000 A 
ATOM     28  C   UNL     1      -2.433   9.903  15.823  0.00  0.00    +0.000 A 
ATOM     29  C   UNL     1      -3.566  10.514  15.310  0.00  0.00    +0.000 A 
ATOM     30  F   UNL     1      -3.863  10.371  14.013  0.00  0.00    +0.000 F 
ATOM     31  C   UNL     1      -4.393  11.277  16.128  0.00  0.00    +0.000 A 
ATOM     32  C   UNL     1      -4.066  11.454  17.478  0.00  0.00    +0.000 A 
ENDBRANCH  24  26
ENDBRANCH  21  22
ENDBRANCH  20  21
ENDBRANCH  19  20
TORSDOF 4
ENDMDL
MODEL 5
REMARK VINA RESULT:      -8.4      4.013     10.040
REMARK  Name = 
REMARK  6 active torsions:
REMARK  status: ('A' for Active; 'I' for Inactive)
REMARK    1  A    between atoms: C_1  and  C_2
REMARK    2  A    between atoms: C_17  and  C_18
REMARK    3  A    between atoms: C_19  and  C_20
REMARK    4  A    between atoms: C_20  and  C_21
REMARK    5  A    between atoms: C_21  and  C_22
REMARK    6  A    between atoms: N_24  and  C_25
REMARK                            x       y       z     vdW  Elec       q    Type
REMARK                         _______ _______ _______ _____ _____    ______ ____
ROOT
ATOM      1  C   UNL     1      -0.414   9.589  23.444  0.00  0.00    +0.000 C 
ATOM      2  C   UNL     1       0.063   9.607  22.035  0.00  0.00    +0.000 A 
ATOM      3  N   UNL     1       0.749   8.571  21.540  0.00  0.00    +0.000 NA
ATOM      4  N   UNL     1       1.051   8.911  20.249  0.00  0.00    +0.000 N 
ATOM      5  C   UNL     1       1.889   8.061  19.459  0.00  0.00    +0.000 A 
ATOM      6  C   UNL     1       2.262   6.815  19.932  0.00  0.00    +0.000 A 
ATOM      7  C   UNL     1       3.164   6.045  19.186  0.00  0.00    +0.000 A 
ATOM      8  C   UNL     1       3.698   6.508  17.989  0.00  0.00    +0.000 A 
ATOM      9  N   UNL     1       4.663   5.813  17.299  0.00  0.00    +0.000 N 
ATOM     10  C   UNL     1       4.838   4.361  17.347  0.00  0.00    +0.000 C 
ATOM     11  C   UNL     1       6.326   4.051  17.570  0.00  0.00    +0.000 C 
ATOM     12  O   UNL     1       7.143   4.647  16.548  0.00  0.00    +0.000 OA
ATOM     13  C   UNL     1       6.965   6.078  16.524  0.00  0.00    +0.000 C 
ATOM     14  C   UNL     1       5.493   6.471  16.280  0.00  0.00    +0.000 C 
ATOM     15  N   UNL     1       3.286   7.717  17.556  0.00  0.00    +0.000 NA
ATOM     16  N   UNL     1       2.377   8.490  18.282  0.00  0.00    +0.000 NA
ATOM     17  C   UNL     1       0.481  10.135  19.918  0.00  0.00    +0.000 A 
ATOM     18  C   UNL     1       0.494  10.771  18.571  0.00  0.00    +0.000 C 
ATOM     19  C   UNL     1      -0.139  10.615  21.065  0.00  0.00    +0.000 A 
ENDROOT
BRANCH  19  20
ATOM     20  C   UNL     1      -0.947  11.865  21.171  0.00  0.00    +0.000 C 
BRANCH  20  21
ATOM     21  C   UNL     1      -0.533  12.857  22.262  0.00  0.00    +0.000 C 
BRANCH  21  22
ATOM     22  C   UNL     1       0.409  13.866  21.636  0.00  0.00    +0.000 C 
ATOM     23  O   UNL     1       1.209  14.496  22.330  0.00  0.00    +0.000 OA
ATOM     24  N   UNL     1       0.263  14.014  20.265  0.00  0.00    +0.000 N 
ATOM     25  H   UNL     1      -0.548  13.597  19.835  0.00  0.00    +0.000 HD
BRANCH  24  26
ATOM     26  C   UNL     1       1.041  14.891  19.466  0.00  0.00    +0.000 A 
ATOM     27  C   UNL     1       0.686  16.227  19.241  0.00  0.00    +0.000 A 
ATOM     28  C   UNL     1       1.432  17.030  18.377  0.00  0.00    +0.000 A 
ATOM     29  C   UNL     1       2.549  16.501  17.752  0.00  0.00    +0.000 A 
ATOM     30  F   UNL     1       3.248  17.259  16.898  0.00  0.00    +0.000 F 
ATOM     31  C   UNL     1       2.949  15.193  18.000  0.00  0.00    +0.000 A 
ATOM     32  C   UNL     1       2.202  14.389  18.870  0.00  0.00    +0.000 A 
ENDBRANCH  24  26
ENDBRANCH  21  22
ENDBRANCH  20  21
ENDBRANCH  19  20
TORSDOF 4
ENDMDL
MODEL 6
REMARK VINA RESULT:      -8.3      1.680      2.097
REMARK  Name = 
REMARK  6 active torsions:
REMARK  status: ('A' for Active; 'I' for Inactive)
REMARK    1  A    between atoms: C_1  and  C_2
REMARK    2  A    between atoms: C_17  and  C_18
REMARK    3  A    between atoms: C_19  and  C_20
REMARK    4  A    between atoms: C_20  and  C_21
REMARK    5  A    between atoms: C_21  and  C_22
REMARK    6  A    between atoms: N_24  and  C_25
REMARK                            x       y       z     vdW  Elec       q    Type
REMARK                         _______ _______ _______ _____ _____    ______ ____
ROOT
ATOM      1  C   UNL     1       1.634   2.561  21.367  0.00  0.00    +0.000 C 
ATOM      2  C   UNL     1       2.072   3.851  20.770  0.00  0.00    +0.000 A 
ATOM      3  N   UNL     1       1.458   4.991  21.101  0.00  0.00    +0.000 NA
ATOM      4  N   UNL     1       2.078   5.971  20.372  0.00  0.00    +0.000 N 
ATOM      5  C   UNL     1       1.583   7.314  20.403  0.00  0.00    +0.000 A 
ATOM      6  C   UNL     1       0.585   7.668  21.293  0.00  0.00    +0.000 A 
ATOM      7  C   UNL     1       0.047   8.961  21.235  0.00  0.00    +0.000 A 
ATOM      8  C   UNL     1       0.488   9.889  20.299  0.00  0.00    +0.000 A 
ATOM      9  N   UNL     1      -0.100  11.123  20.157  0.00  0.00    +0.000 N 
ATOM     10  C   UNL     1      -0.790  11.844  21.227  0.00  0.00    +0.000 C 
ATOM     11  C   UNL     1      -2.136  12.355  20.689  0.00  0.00    +0.000 C 
ATOM     12  O   UNL     1      -1.954  13.183  19.527  0.00  0.00    +0.000 OA
ATOM     13  C   UNL     1      -1.283  12.451  18.481  0.00  0.00    +0.000 C 
ATOM     14  C   UNL     1       0.093  11.924  18.940  0.00  0.00    +0.000 C 
ATOM     15  N   UNL     1       1.480   9.506  19.470  0.00  0.00    +0.000 NA
ATOM     16  N   UNL     1       2.036   8.225  19.525  0.00  0.00    +0.000 NA
ATOM     17  C   UNL     1       3.137   5.441  19.643  0.00  0.00    +0.000 A 
ATOM     18  C   UNL     1       4.112   6.218  18.828  0.00  0.00    +0.000 C 
ATOM     19  C   UNL     1       3.133   4.070  19.864  0.00  0.00    +0.000 A 
ENDROOT
BRANCH  19  20
ATOM     20  C   UNL     1       4.135   3.093  19.344  0.00  0.00    +0.000 C 
BRANCH  20  21
ATOM     21  C   UNL     1       3.769   2.362  18.049  0.00  0.00    +0.000 C 
BRANCH  21  22
ATOM     22  C   UNL     1       4.180   3.247  16.888  0.00  0.00    +0.000 C 
ATOM     23  O   UNL     1       3.393   4.070  16.415  0.00  0.00    +0.000 OA
ATOM     24  N   UNL     1       5.467   3.026  16.424  0.00  0.00    +0.000 N 
ATOM     25  H   UNL     1       5.946   2.202  16.753  0.00  0.00    +0.000 HD
BRANCH  24  26
ATOM     26  C   UNL     1       6.068   3.741  15.357  0.00  0.00    +0.000 A 
ATOM     27  C   UNL     1       5.892   3.389  14.013  0.00  0.00    +0.000 A 
ATOM     28  C   UNL     1       6.572   4.065  13.000  0.00  0.00    +0.000 A 
ATOM     29  C   UNL     1       7.417   5.112  13.330  0.00  0.00    +0.000 A 
ATOM     30  F   UNL     1       8.096   5.742  12.364  0.00  0.00    +0.000 F 
ATOM     31  C   UNL     1       7.568   5.513  14.653  0.00  0.00    +0.000 A 
ATOM     32  C   UNL     1       6.882   4.836  15.668  0.00  0.00    +0.000 A 
ENDBRANCH  24  26
ENDBRANCH  21  22
ENDBRANCH  20  21
ENDBRANCH  19  20
TORSDOF 4
ENDMDL
MODEL 7
REMARK VINA RESULT:      -8.3      2.937      3.413
REMARK  Name = 
REMARK  6 active torsions:
REMARK  status: ('A' for Active; 'I' for Inactive)
REMARK    1  A    between atoms: C_1  and  C_2
REMARK    2  A    between atoms: C_17  and  C_18
REMARK    3  A    between atoms: C_19  and  C_20
REMARK    4  A    between atoms: C_20  and  C_21
REMARK    5  A    between atoms: C_21  and  C_22
REMARK    6  A    between atoms: N_24  and  C_25
REMARK                            x       y       z     vdW  Elec       q    Type
REMARK                         _______ _______ _______ _____ _____    ______ ____
ROOT
ATOM      1  C   UNL     1       1.408   2.997  21.267  0.00  0.00    +0.000 C 
ATOM      2  C   UNL     1       1.628   4.212  20.440  0.00  0.00    +0.000 A 
ATOM      3  N   UNL     1       1.416   5.428  20.955  0.00  0.00    +0.000 NA
ATOM      4  N   UNL     1       1.685   6.311  19.944  0.00  0.00    +0.000 N 
ATOM      5  C   UNL     1       1.444   7.710  20.127  0.00  0.00    +0.000 A 
ATOM      6  C   UNL     1       1.100   8.200  21.375  0.00  0.00    +0.000 A 
ATOM      7  C   UNL     1       0.771   9.556  21.507  0.00  0.00    +0.000 A 
ATOM      8  C   UNL     1       0.774  10.414  20.413  0.00  0.00    +0.000 A 
ATOM      9  N   UNL     1       0.351  11.719  20.504  0.00  0.00    +0.000 N 
ATOM     10  C   UNL     1       0.406  12.529  21.722  0.00  0.00    +0.000 C 
ATOM     11  C   UNL     1      -0.950  13.224  21.913  0.00  0.00    +0.000 C 
ATOM     12  O   UNL     1      -1.296  14.020  20.765  0.00  0.00    +0.000 OA
ATOM     13  C   UNL     1      -1.356  13.203  19.579  0.00  0.00    +0.000 C 
ATOM     14  C   UNL     1      -0.017  12.486  19.306  0.00  0.00    +0.000 C 
ATOM     15  N   UNL     1       1.140   9.896  19.224  0.00  0.00    +0.000 NA
ATOM     16  N   UNL     1       1.484   8.550  19.078  0.00  0.00    +0.000 NA
ATOM     17  C   UNL     1       2.141   5.639  18.816  0.00  0.00    +0.000 A 
ATOM     18  C   UNL     1       2.641   6.271  17.563  0.00  0.00    +0.000 C 
ATOM     19  C   UNL     1       2.087   4.281  19.105  0.00  0.00    +0.000 A 
ENDROOT
BRANCH  19  20
ATOM     20  C   UNL     1       2.549   3.173  18.218  0.00  0.00    +0.000 C 
BRANCH  20  21
ATOM     21  C   UNL     1       3.985   2.683  18.427  0.00  0.00    +0.000 C 
BRANCH  21  22
ATOM     22  C   UNL     1       4.918   3.734  17.858  0.00  0.00    +0.000 C 
ATOM     23  O   UNL     1       5.147   3.783  16.648  0.00  0.00    +0.000 OA
ATOM     24  N   UNL     1       5.477   4.580  18.804  0.00  0.00    +0.000 N 
ATOM     25  H   UNL     1       5.373   4.325  19.774  0.00  0.00    +0.000 HD
BRANCH  24  26
ATOM     26  C   UNL     1       6.368   5.641  18.503  0.00  0.00    +0.000 A 
ATOM     27  C   UNL     1       7.587   5.820  19.171  0.00  0.00    +0.000 A 
ATOM     28  C   UNL     1       8.392   6.928  18.905  0.00  0.00    +0.000 A 
ATOM     29  C   UNL     1       7.988   7.849  17.953  0.00  0.00    +0.000 A 
ATOM     30  F   UNL     1       8.742   8.930  17.719  0.00  0.00    +0.000 F 
ATOM     31  C   UNL     1       6.807   7.665  17.241  0.00  0.00    +0.000 A 
ATOM     32  C   UNL     1       6.002   6.551  17.507  0.00  0.00    +0.000 A 
ENDBRANCH  24  26
ENDBRANCH  21  22
ENDBRANCH  20  21
ENDBRANCH  19  20
TORSDOF 4
ENDMDL
MODEL 8
REMARK VINA RESULT:      -8.2      3.918      9.818
REMARK  Name = 
REMARK  6 active torsions:
REMARK  status: ('A' for Active; 'I' for Inactive)
REMARK    1  A    between atoms: C_1  and  C_2
REMARK    2  A    between atoms: C_17  and  C_18
REMARK    3  A    between atoms: C_19  and  C_20
REMARK    4  A    between atoms: C_20  and  C_21
REMARK    5  A    between atoms: C_21  and  C_22
REMARK    6  A    between atoms: N_24  and  C_25
REMARK                            x       y       z     vdW  Elec       q    Type
REMARK                         _______ _______ _______ _____ _____    ______ ____
ROOT
ATOM      1  C   UNL     1       0.590  13.024  18.996  0.00  0.00    +0.000 C 
ATOM      2  C   UNL     1       0.649  11.786  19.818  0.00  0.00    +0.000 A 
ATOM      3  N   UNL     1       1.264  10.694  19.350  0.00  0.00    +0.000 NA
ATOM      4  N   UNL     1       1.122   9.744  20.326  0.00  0.00    +0.000 N 
ATOM      5  C   UNL     1       1.571   8.404  20.096  0.00  0.00    +0.000 A 
ATOM      6  C   UNL     1       2.300   8.099  18.959  0.00  0.00    +0.000 A 
ATOM      7  C   UNL     1       2.641   6.764  18.707  0.00  0.00    +0.000 A 
ATOM      8  C   UNL     1       2.255   5.741  19.566  0.00  0.00    +0.000 A 
ATOM      9  N   UNL     1       2.488   4.416  19.280  0.00  0.00    +0.000 N 
ATOM     10  C   UNL     1       3.586   3.925  18.446  0.00  0.00    +0.000 C 
ATOM     11  C   UNL     1       3.023   2.914  17.436  0.00  0.00    +0.000 C 
ATOM     12  O   UNL     1       2.342   1.835  18.101  0.00  0.00    +0.000 OA
ATOM     13  C   UNL     1       1.258   2.338  18.907  0.00  0.00    +0.000 C 
ATOM     14  C   UNL     1       1.749   3.347  19.966  0.00  0.00    +0.000 C 
ATOM     15  N   UNL     1       1.568   6.090  20.672  0.00  0.00    +0.000 NA
ATOM     16  N   UNL     1       1.233   7.418  20.945  0.00  0.00    +0.000 NA
ATOM     17  C   UNL     1       0.480  10.276  21.438  0.00  0.00    +0.000 A 
ATOM     18  C   UNL     1       0.256   9.579  22.735  0.00  0.00    +0.000 C 
ATOM     19  C   UNL     1       0.143  11.586  21.122  0.00  0.00    +0.000 A 
ENDROOT
BRANCH  19  20
ATOM     20  C   UNL     1      -0.497  12.576  22.038  0.00  0.00    +0.000 C 
BRANCH  20  21
ATOM     21  C   UNL     1      -2.028  12.599  22.058  0.00  0.00    +0.000 C 
BRANCH  21  22
ATOM     22  C   UNL     1      -2.507  12.710  20.624  0.00  0.00    +0.000 C 
ATOM     23  O   UNL     1      -2.764  13.810  20.130  0.00  0.00    +0.000 OA
ATOM     24  N   UNL     1      -2.640  11.497  19.966  0.00  0.00    +0.000 N 
ATOM     25  H   UNL     1      -2.592  10.658  20.523  0.00  0.00    +0.000 HD
BRANCH  24  26
ATOM     26  C   UNL     1      -3.061  11.357  18.619  0.00  0.00    +0.000 A 
ATOM     27  C   UNL     1      -4.346  11.708  18.186  0.00  0.00    +0.000 A 
ATOM     28  C   UNL     1      -4.748  11.472  16.871  0.00  0.00    +0.000 A 
ATOM     29  C   UNL     1      -3.855  10.901  15.980  0.00  0.00    +0.000 A 
ATOM     30  F   UNL     1      -4.248  10.643  14.726  0.00  0.00    +0.000 F 
ATOM     31  C   UNL     1      -2.558  10.591  16.374  0.00  0.00    +0.000 A 
ATOM     32  C   UNL     1      -2.155  10.832  17.693  0.00  0.00    +0.000 A 
ENDBRANCH  24  26
ENDBRANCH  21  22
ENDBRANCH  20  21
ENDBRANCH  19  20
TORSDOF 4
ENDMDL
MODEL 9
REMARK VINA RESULT:      -8.2      4.145     10.162
REMARK  Name = 
REMARK  6 active torsions:
REMARK  status: ('A' for Active; 'I' for Inactive)
REMARK    1  A    between atoms: C_1  and  C_2
REMARK    2  A    between atoms: C_17  and  C_18
REMARK    3  A    between atoms: C_19  and  C_20
REMARK    4  A    between atoms: C_20  and  C_21
REMARK    5  A    between atoms: C_21  and  C_22
REMARK    6  A    between atoms: N_24  and  C_25
REMARK                            x       y       z     vdW  Elec       q    Type
REMARK                         _______ _______ _______ _____ _____    ______ ____
ROOT
ATOM      1  C   UNL     1      -0.803  12.437  18.142  0.00  0.00    +0.000 C 
ATOM      2  C   UNL     1      -0.314  11.402  19.092  0.00  0.00    +0.000 A 
ATOM      3  N   UNL     1       0.499  10.428  18.670  0.00  0.00    +0.000 NA
ATOM      4  N   UNL     1       0.740   9.645  19.767  0.00  0.00    +0.000 N 
ATOM      5  C   UNL     1       1.491   8.433  19.636  0.00  0.00    +0.000 A 
ATOM      6  C   UNL     1       2.119   8.129  18.442  0.00  0.00    +0.000 A 
ATOM      7  C   UNL     1       2.761   6.891  18.307  0.00  0.00    +0.000 A 
ATOM      8  C   UNL     1       2.773   5.962  19.341  0.00  0.00    +0.000 A 
ATOM      9  N   UNL     1       3.305   4.703  19.190  0.00  0.00    +0.000 N 
ATOM     10  C   UNL     1       4.375   4.359  18.252  0.00  0.00    +0.000 C 
ATOM     11  C   UNL     1       3.970   3.090  17.487  0.00  0.00    +0.000 C 
ATOM     12  O   UNL     1       3.689   2.004  18.388  0.00  0.00    +0.000 OA
ATOM     13  C   UNL     1       2.626   2.359  19.295  0.00  0.00    +0.000 C 
ATOM     14  C   UNL     1       2.969   3.617  20.120  0.00  0.00    +0.000 C 
ATOM     15  N   UNL     1       2.170   6.314  20.494  0.00  0.00    +0.000 NA
ATOM     16  N   UNL     1       1.537   7.550  20.648  0.00  0.00    +0.000 NA
ATOM     17  C   UNL     1       0.132  10.185  20.896  0.00  0.00    +0.000 A 
ATOM     18  C   UNL     1       0.270   9.678  22.290  0.00  0.00    +0.000 C 
ATOM     19  C   UNL     1      -0.575  11.305  20.477  0.00  0.00    +0.000 A 
ENDROOT
BRANCH  19  20
ATOM     20  C   UNL     1      -1.327  12.250  21.355  0.00  0.00    +0.000 C 
BRANCH  20  21
ATOM     21  C   UNL     1      -0.489  13.131  22.286  0.00  0.00    +0.000 C 
BRANCH  21  22
ATOM     22  C   UNL     1       0.574  13.810  21.446  0.00  0.00    +0.000 C 
ATOM     23  O   UNL     1       1.768  13.547  21.608  0.00  0.00    +0.000 OA
ATOM     24  N   UNL     1       0.084  14.732  20.534  0.00  0.00    +0.000 N 
ATOM     25  H   UNL     1      -0.881  15.007  20.623  0.00  0.00    +0.000 HD
BRANCH  24  26
ATOM     26  C   UNL     1       0.891  15.479  19.637  0.00  0.00    +0.000 A 
ATOM     27  C   UNL     1       0.687  16.842  19.389  0.00  0.00    +0.000 A 
ATOM     28  C   UNL     1       1.446  17.517  18.433  0.00  0.00    +0.000 A 
ATOM     29  C   UNL     1       2.429  16.832  17.738  0.00  0.00    +0.000 A 
ATOM     30  F   UNL     1       3.137  17.469  16.797  0.00  0.00    +0.000 F 
ATOM     31  C   UNL     1       2.684  15.491  18.004  0.00  0.00    +0.000 A 
ATOM     32  C   UNL     1       1.923  14.815  18.965  0.00  0.00    +0.000 A 
ENDBRANCH  24  26
ENDBRANCH  21  22
ENDBRANCH  20  21
ENDBRANCH  19  20
TORSDOF 4
ENDMDL
