MODEL 1
REMARK VINA RESULT:      -8.8      0.000      0.000
REMARK  Name = 
REMARK  6 active torsions:
REMARK  status: ('A' for Active; 'I' for Inactive)
REMARK    1  A    between atoms: C_2  and  C_3
REMARK    2  A    between atoms: C_3  and  C_4
REMARK    3  A    between atoms: C_4  and  N_5
REMARK    4  A    between atoms: N_5  and  C_6
REMARK    5  A    between atoms: N_11  and  C_12
REMARK    6  A    between atoms: C_16  and  C_17
REMARK                            x       y       z     vdW  Elec       q    Type
REMARK                         _______ _______ _______ _____ _____    ______ ____
ROOT
ATOM      1  C   UNL     1       4.977   5.309  18.579  0.00  0.00    +0.000 A 
ATOM      2  S   UNL     1       5.358   3.744  18.018  0.00  0.00    +0.000 S 
ATOM      3  C   UNL     1       3.755   3.225  18.220  0.00  0.00    +0.000 A 
ATOM      4  C   UNL     1       2.911   4.250  18.616  0.00  0.00    +0.000 A 
ATOM      5  C   UNL     1       3.618   5.502  18.758  0.00  0.00    +0.000 A 
ATOM      6  C   UNL     1       1.435   3.987  18.750  0.00  0.00    +0.000 C 
ATOM      7  C   UNL     1       1.138   2.471  18.778  0.00  0.00    +0.000 C 
ATOM      8  N   UNL     1       1.874   1.716  17.744  0.00  0.00    +0.000 NA
ATOM      9  C   UNL     1       3.329   1.808  17.979  0.00  0.00    +0.000 C 
ATOM     10  H   UNL     1       1.679   2.143  16.838  0.00  0.00    +0.000 HD
ENDROOT
BRANCH   5  11
ATOM     11  C   UNL     1       2.921   6.839  18.948  0.00  0.00    +0.000 A 
ATOM     12  N   UNL     1       2.257   7.107  20.054  0.00  0.00    +0.000 NA
ATOM     13  C   UNL     1       1.589   8.316  19.940  0.00  0.00    +0.000 A 
ATOM     14  C   UNL     1       0.777   8.913  20.926  0.00  0.00    +0.000 A 
ATOM     15  C   UNL     1       0.138  10.130  20.658  0.00  0.00    +0.000 A 
ATOM     16  C   UNL     1       0.298  10.754  19.424  0.00  0.00    +0.000 A 
ATOM     17  C   UNL     1       1.102  10.185  18.434  0.00  0.00    +0.000 A 
ATOM     18  C   UNL     1       1.741   8.965  18.719  0.00  0.00    +0.000 A 
ATOM     19  S   UNL     1       2.769   8.030  17.715  0.00  0.00    +0.000 S 
ENDBRANCH   5  11
BRANCH   1  22
ATOM     20  O   UNL     1       6.130   6.755  16.468  0.00  0.00    +0.000 OA
ATOM     21  C   UNL     1       6.602   6.785  17.599  0.00  0.00    +0.000 C 
ATOM     22  N   UNL     1       6.097   6.108  18.706  0.00  0.00    +0.000 N 
ATOM     23  H   UNL     1       6.173   6.601  19.587  0.00  0.00    +0.000 HD
BRANCH  21  24
ATOM     24  C   UNL     1       7.875   7.545  17.935  0.00  0.00    +0.000 C 
BRANCH  24  25
ATOM     25  C   UNL     1       7.753   9.053  17.699  0.00  0.00    +0.000 C 
BRANCH  25  26
ATOM     26  N   UNL     1       8.791   9.737  18.485  0.00  0.00    +0.000 NA
ATOM     27  H   UNL     1       9.660   9.205  18.426  0.00  0.00    +0.000 HD
BRANCH  26  28
ATOM     28  C   UNL     1       8.969  11.121  18.040  0.00  0.00    +0.000 C 
ATOM     29  C   UNL     1       9.343  12.168  19.153  0.00  0.00    +0.000 C 
ATOM     30  C   UNL     1       9.990  12.962  17.900  0.00  0.00    +0.000 C 
ATOM     31  C   UNL     1      10.504  11.439  17.825  0.00  0.00    +0.000 C 
ATOM     32  C   UNL     1      10.666  11.315  19.418  0.00  0.00    +0.000 C 
ENDBRANCH  26  28
ENDBRANCH  25  26
ENDBRANCH  24  25
ENDBRANCH  21  24
ENDBRANCH   1  22
TORSDOF 6
ENDMDL
MODEL 2
REMARK VINA RESULT:      -8.8      0.904      1.163
REMARK  Name = 
REMARK  6 active torsions:
REMARK  status: ('A' for Active; 'I' for Inactive)
REMARK    1  A    between atoms: C_2  and  C_3
REMARK    2  A    between atoms: C_3  and  C_4
REMARK    3  A    between atoms: C_4  and  N_5
REMARK    4  A    between atoms: N_5  and  C_6
REMARK    5  A    between atoms: N_11  and  C_12
REMARK    6  A    between atoms: C_16  and  C_17
REMARK                            x       y       z     vdW  Elec       q    Type
REMARK                         _______ _______ _______ _____ _____    ______ ____
ROOT
ATOM      1  C   UNL     1       4.446   5.641  17.649  0.00  0.00    +0.000 A 
ATOM      2  S   UNL     1       4.693   4.088  16.989  0.00  0.00    +0.000 S 
ATOM      3  C   UNL     1       3.406   3.444  17.889  0.00  0.00    +0.000 A 
ATOM      4  C   UNL     1       2.728   4.411  18.612  0.00  0.00    +0.000 A 
ATOM      5  C   UNL     1       3.295   5.725  18.415  0.00  0.00    +0.000 A 
ATOM      6  C   UNL     1       1.499   4.029  19.392  0.00  0.00    +0.000 C 
ATOM      7  C   UNL     1       1.398   2.496  19.561  0.00  0.00    +0.000 C 
ATOM      8  N   UNL     1       1.671   1.756  18.313  0.00  0.00    +0.000 NA
ATOM      9  C   UNL     1       3.062   1.985  17.873  0.00  0.00    +0.000 C 
ATOM     10  H   UNL     1       1.053   2.117  17.587  0.00  0.00    +0.000 HD
ENDROOT
BRANCH   5  11
ATOM     11  C   UNL     1       2.626   7.005  18.886  0.00  0.00    +0.000 A 
ATOM     12  N   UNL     1       2.165   7.116  20.116  0.00  0.00    +0.000 NA
ATOM     13  C   UNL     1       1.470   8.306  20.269  0.00  0.00    +0.000 A 
ATOM     14  C   UNL     1       0.839   8.754  21.447  0.00  0.00    +0.000 A 
ATOM     15  C   UNL     1       0.145   9.970  21.446  0.00  0.00    +0.000 A 
ATOM     16  C   UNL     1       0.076  10.741  20.290  0.00  0.00    +0.000 A 
ATOM     17  C   UNL     1       0.699  10.322  19.112  0.00  0.00    +0.000 A 
ATOM     18  C   UNL     1       1.395   9.100  19.129  0.00  0.00    +0.000 A 
ATOM     19  S   UNL     1       2.241   8.328  17.855  0.00  0.00    +0.000 S 
ENDBRANCH   5  11
BRANCH   1  22
ATOM     20  O   UNL     1       6.994   5.815  18.814  0.00  0.00    +0.000 OA
ATOM     21  C   UNL     1       6.656   6.556  17.898  0.00  0.00    +0.000 C 
ATOM     22  N   UNL     1       5.420   6.539  17.256  0.00  0.00    +0.000 N 
ATOM     23  H   UNL     1       5.445   6.736  16.263  0.00  0.00    +0.000 HD
BRANCH  21  24
ATOM     24  C   UNL     1       7.552   7.662  17.366  0.00  0.00    +0.000 C 
BRANCH  24  25
ATOM     25  C   UNL     1       8.375   8.345  18.462  0.00  0.00    +0.000 C 
BRANCH  25  26
ATOM     26  N   UNL     1       8.526   9.767  18.120  0.00  0.00    +0.000 NA
ATOM     27  H   UNL     1       7.677  10.268  18.385  0.00  0.00    +0.000 HD
BRANCH  26  28
ATOM     28  C   UNL     1       9.717  10.343  18.749  0.00  0.00    +0.000 C 
ATOM     29  C   UNL     1      10.420  11.514  17.970  0.00  0.00    +0.000 C 
ATOM     30  C   UNL     1      10.928  11.921  19.452  0.00  0.00    +0.000 C 
ATOM     31  C   UNL     1       9.342  11.662  19.538  0.00  0.00    +0.000 C 
ATOM     32  C   UNL     1       9.058  12.335  18.107  0.00  0.00    +0.000 C 
ENDBRANCH  26  28
ENDBRANCH  25  26
ENDBRANCH  24  25
ENDBRANCH  21  24
ENDBRANCH   1  22
TORSDOF 6
ENDMDL
MODEL 3
REMARK VINA RESULT:      -8.5      1.121      1.610
REMARK  Name = 
REMARK  6 active torsions:
REMARK  status: ('A' for Active; 'I' for Inactive)
REMARK    1  A    between atoms: C_2  and  C_3
REMARK    2  A    between atoms: C_3  and  C_4
REMARK    3  A    between atoms: C_4  and  N_5
REMARK    4  A    between atoms: N_5  and  C_6
REMARK    5  A    between atoms: N_11  and  C_12
REMARK    6  A    between atoms: C_16  and  C_17
REMARK                            x       y       z     vdW  Elec       q    Type
REMARK                         _______ _______ _______ _____ _____    ______ ____
ROOT
ATOM      1  C   UNL     1       4.479   5.617  17.639  0.00  0.00    +0.000 A 
ATOM      2  S   UNL     1       4.856   4.071  17.026  0.00  0.00    +0.000 S 
ATOM      3  C   UNL     1       3.588   3.358  17.901  0.00  0.00    +0.000 A 
ATOM      4  C   UNL     1       2.820   4.291  18.578  0.00  0.00    +0.000 A 
ATOM      5  C   UNL     1       3.300   5.637  18.366  0.00  0.00    +0.000 A 
ATOM      6  C   UNL     1       1.597   3.840  19.329  0.00  0.00    +0.000 C 
ATOM      7  C   UNL     1       1.598   2.309  19.533  0.00  0.00    +0.000 C 
ATOM      8  N   UNL     1       1.963   1.561  18.313  0.00  0.00    +0.000 NA
ATOM      9  C   UNL     1       3.348   1.878  17.911  0.00  0.00    +0.000 C 
ATOM     10  H   UNL     1       1.345   1.861  17.559  0.00  0.00    +0.000 HD
ENDROOT
BRANCH   5  11
ATOM     11  C   UNL     1       2.527   6.876  18.783  0.00  0.00    +0.000 A 
ATOM     12  N   UNL     1       2.396   7.901  17.965  0.00  0.00    +0.000 NA
ATOM     13  C   UNL     1       1.784   8.964  18.612  0.00  0.00    +0.000 A 
ATOM     14  C   UNL     1       1.489  10.222  18.047  0.00  0.00    +0.000 A 
ATOM     15  C   UNL     1       0.893  11.215  18.832  0.00  0.00    +0.000 A 
ATOM     16  C   UNL     1       0.588  10.970  20.168  0.00  0.00    +0.000 A 
ATOM     17  C   UNL     1       0.865   9.730  20.748  0.00  0.00    +0.000 A 
ATOM     18  C   UNL     1       1.461   8.740  19.946  0.00  0.00    +0.000 A 
ATOM     19  S   UNL     1       1.922   7.146  20.372  0.00  0.00    +0.000 S 
ENDBRANCH   5  11
BRANCH   1  22
ATOM     20  O   UNL     1       7.031   5.894  18.772  0.00  0.00    +0.000 OA
ATOM     21  C   UNL     1       6.643   6.638  17.878  0.00  0.00    +0.000 C 
ATOM     22  N   UNL     1       5.400   6.573  17.254  0.00  0.00    +0.000 N 
ATOM     23  H   UNL     1       5.400   6.794  16.265  0.00  0.00    +0.000 HD
BRANCH  21  24
ATOM     24  C   UNL     1       7.473   7.801  17.362  0.00  0.00    +0.000 C 
BRANCH  24  25
ATOM     25  C   UNL     1       8.399   8.395  18.426  0.00  0.00    +0.000 C 
BRANCH  25  26
ATOM     26  N   UNL     1       8.527   9.841  18.184  0.00  0.00    +0.000 NA
ATOM     27  H   UNL     1       7.642  10.297  18.407  0.00  0.00    +0.000 HD
BRANCH  26  28
ATOM     28  C   UNL     1       9.641  10.411  18.945  0.00  0.00    +0.000 C 
ATOM     29  C   UNL     1      10.558  11.433  18.178  0.00  0.00    +0.000 C 
ATOM     30  C   UNL     1      10.845  11.983  19.673  0.00  0.00    +0.000 C 
ATOM     31  C   UNL     1       9.251  11.838  19.509  0.00  0.00    +0.000 C 
ATOM     32  C   UNL     1       9.265  12.349  17.987  0.00  0.00    +0.000 C 
ENDBRANCH  26  28
ENDBRANCH  25  26
ENDBRANCH  24  25
ENDBRANCH  21  24
ENDBRANCH   1  22
TORSDOF 6
ENDMDL
MODEL 4
REMARK VINA RESULT:      -8.1      0.976      1.376
REMARK  Name = 
REMARK  6 active torsions:
REMARK  status: ('A' for Active; 'I' for Inactive)
REMARK    1  A    between atoms: C_2  and  C_3
REMARK    2  A    between atoms: C_3  and  C_4
REMARK    3  A    between atoms: C_4  and  N_5
REMARK    4  A    between atoms: N_5  and  C_6
REMARK    5  A    between atoms: N_11  and  C_12
REMARK    6  A    between atoms: C_16  and  C_17
REMARK                            x       y       z     vdW  Elec       q    Type
REMARK                         _______ _______ _______ _____ _____    ______ ____
ROOT
ATOM      1  C   UNL     1       4.783   5.511  18.311  0.00  0.00    +0.000 A 
ATOM      2  S   UNL     1       5.239   3.983  17.709  0.00  0.00    +0.000 S 
ATOM      3  C   UNL     1       3.715   3.329  18.069  0.00  0.00    +0.000 A 
ATOM      4  C   UNL     1       2.830   4.279  18.552  0.00  0.00    +0.000 A 
ATOM      5  C   UNL     1       3.437   5.588  18.627  0.00  0.00    +0.000 A 
ATOM      6  C   UNL     1       1.404   3.891  18.833  0.00  0.00    +0.000 C 
ATOM      7  C   UNL     1       1.242   2.355  18.885  0.00  0.00    +0.000 C 
ATOM      8  N   UNL     1       1.933   1.661  17.779  0.00  0.00    +0.000 NA
ATOM      9  C   UNL     1       3.391   1.879  17.866  0.00  0.00    +0.000 C 
ATOM     10  H   UNL     1       1.611   2.065  16.900  0.00  0.00    +0.000 HD
ENDROOT
BRANCH   5  11
ATOM     11  C   UNL     1       2.651   6.861  18.892  0.00  0.00    +0.000 A 
ATOM     12  N   UNL     1       2.684   7.867  18.042  0.00  0.00    +0.000 NA
ATOM     13  C   UNL     1       2.015   8.965  18.562  0.00  0.00    +0.000 A 
ATOM     14  C   UNL     1       1.855  10.215  17.930  0.00  0.00    +0.000 A 
ATOM     15  C   UNL     1       1.177  11.247  18.592  0.00  0.00    +0.000 A 
ATOM     16  C   UNL     1       0.660  11.046  19.868  0.00  0.00    +0.000 A 
ATOM     17  C   UNL     1       0.800   9.814  20.511  0.00  0.00    +0.000 A 
ATOM     18  C   UNL     1       1.480   8.786  19.833  0.00  0.00    +0.000 A 
ATOM     19  S   UNL     1       1.815   7.191  20.360  0.00  0.00    +0.000 S 
ENDBRANCH   5  11
BRANCH   1  22
ATOM     20  O   UNL     1       5.621   7.004  16.087  0.00  0.00    +0.000 OA
ATOM     21  C   UNL     1       6.185   7.098  17.171  0.00  0.00    +0.000 C 
ATOM     22  N   UNL     1       5.838   6.405  18.327  0.00  0.00    +0.000 N 
ATOM     23  H   UNL     1       5.947   6.922  19.192  0.00  0.00    +0.000 HD
BRANCH  21  24
ATOM     24  C   UNL     1       7.412   7.969  17.383  0.00  0.00    +0.000 C 
BRANCH  24  25
ATOM     25  C   UNL     1       8.277   7.510  18.560  0.00  0.00    +0.000 C 
BRANCH  25  26
ATOM     26  N   UNL     1       8.994   8.676  19.099  0.00  0.00    +0.000 NA
ATOM     27  H   UNL     1       9.999   8.501  19.054  0.00  0.00    +0.000 HD
BRANCH  26  28
ATOM     28  C   UNL     1       8.623   9.903  18.392  0.00  0.00    +0.000 C 
ATOM     29  C   UNL     1       8.602  11.222  19.248  0.00  0.00    +0.000 C 
ATOM     30  C   UNL     1       8.866  11.917  17.811  0.00  0.00    +0.000 C 
ATOM     31  C   UNL     1       9.916  10.708  17.964  0.00  0.00    +0.000 C 
ATOM     32  C   UNL     1      10.156  10.987  19.527  0.00  0.00    +0.000 C 
ENDBRANCH  26  28
ENDBRANCH  25  26
ENDBRANCH  24  25
ENDBRANCH  21  24
ENDBRANCH   1  22
TORSDOF 6
ENDMDL
MODEL 5
REMARK VINA RESULT:      -7.8      2.771      4.192
REMARK  Name = 
REMARK  6 active torsions:
REMARK  status: ('A' for Active; 'I' for Inactive)
REMARK    1  A    between atoms: C_2  and  C_3
REMARK    2  A    between atoms: C_3  and  C_4
REMARK    3  A    between atoms: C_4  and  N_5
REMARK    4  A    between atoms: N_5  and  C_6
REMARK    5  A    between atoms: N_11  and  C_12
REMARK    6  A    between atoms: C_16  and  C_17
REMARK                            x       y       z     vdW  Elec       q    Type
REMARK                         _______ _______ _______ _____ _____    ______ ____
ROOT
ATOM      1  C   UNL     1       4.336   5.289  18.662  0.00  0.00    +0.000 A 
ATOM      2  S   UNL     1       4.503   3.604  18.464  0.00  0.00    +0.000 S 
ATOM      3  C   UNL     1       3.116   3.305  19.395  0.00  0.00    +0.000 A 
ATOM      4  C   UNL     1       2.470   4.470  19.775  0.00  0.00    +0.000 A 
ATOM      5  C   UNL     1       3.149   5.645  19.280  0.00  0.00    +0.000 A 
ATOM      6  C   UNL     1       1.168   4.386  20.525  0.00  0.00    +0.000 C 
ATOM      7  C   UNL     1       0.938   2.966  21.089  0.00  0.00    +0.000 C 
ATOM      8  N   UNL     1       1.231   1.899  20.111  0.00  0.00    +0.000 NA
ATOM      9  C   UNL     1       2.661   1.919  19.741  0.00  0.00    +0.000 C 
ATOM     10  H   UNL     1       0.690   2.084  19.266  0.00  0.00    +0.000 HD
ENDROOT
BRANCH   5  11
ATOM     11  C   UNL     1       2.552   7.041  19.335  0.00  0.00    +0.000 A 
ATOM     12  N   UNL     1       1.977   7.491  20.432  0.00  0.00    +0.000 NA
ATOM     13  C   UNL     1       1.381   8.721  20.200  0.00  0.00    +0.000 A 
ATOM     14  C   UNL     1       0.672   9.492  21.144  0.00  0.00    +0.000 A 
ATOM     15  C   UNL     1       0.096  10.708  20.758  0.00  0.00    +0.000 A 
ATOM     16  C   UNL     1       0.218  11.161  19.448  0.00  0.00    +0.000 A 
ATOM     17  C   UNL     1       0.921  10.419  18.497  0.00  0.00    +0.000 A 
ATOM     18  C   UNL     1       1.498   9.201  18.900  0.00  0.00    +0.000 A 
ATOM     19  S   UNL     1       2.400   8.079  17.970  0.00  0.00    +0.000 S 
ENDBRANCH   5  11
BRANCH   1  22
ATOM     20  O   UNL     1       6.882   5.435  19.835  0.00  0.00    +0.000 OA
ATOM     21  C   UNL     1       6.627   6.009  18.782  0.00  0.00    +0.000 C 
ATOM     22  N   UNL     1       5.400   5.989  18.125  0.00  0.00    +0.000 N 
ATOM     23  H   UNL     1       5.451   5.980  17.113  0.00  0.00    +0.000 HD
BRANCH  21  24
ATOM     24  C   UNL     1       7.636   6.891  18.066  0.00  0.00    +0.000 C 
BRANCH  24  25
ATOM     25  C   UNL     1       7.411   6.953  16.553  0.00  0.00    +0.000 C 
BRANCH  25  26
ATOM     26  N   UNL     1       7.502   5.589  16.008  0.00  0.00    +0.000 NA
ATOM     27  H   UNL     1       7.173   4.926  16.711  0.00  0.00    +0.000 HD
BRANCH  26  28
ATOM     28  C   UNL     1       6.756   5.466  14.754  0.00  0.00    +0.000 C 
ATOM     29  C   UNL     1       6.827   4.069  14.035  0.00  0.00    +0.000 C 
ATOM     30  C   UNL     1       5.406   4.543  13.420  0.00  0.00    +0.000 C 
ATOM     31  C   UNL     1       5.351   4.786  15.010  0.00  0.00    +0.000 C 
ATOM     32  C   UNL     1       6.159   3.438  15.340  0.00  0.00    +0.000 C 
ENDBRANCH  26  28
ENDBRANCH  25  26
ENDBRANCH  24  25
ENDBRANCH  21  24
ENDBRANCH   1  22
TORSDOF 6
ENDMDL
MODEL 6
REMARK VINA RESULT:      -7.4      7.777     12.193
REMARK  Name = 
REMARK  6 active torsions:
REMARK  status: ('A' for Active; 'I' for Inactive)
REMARK    1  A    between atoms: C_2  and  C_3
REMARK    2  A    between atoms: C_3  and  C_4
REMARK    3  A    between atoms: C_4  and  N_5
REMARK    4  A    between atoms: N_5  and  C_6
REMARK    5  A    between atoms: N_11  and  C_12
REMARK    6  A    between atoms: C_16  and  C_17
REMARK                            x       y       z     vdW  Elec       q    Type
REMARK                         _______ _______ _______ _____ _____    ______ ____
ROOT
ATOM      1  C   UNL     1      -4.761  13.272  22.667  0.00  0.00    +0.000 A 
ATOM      2  S   UNL     1      -5.543  14.704  23.161  0.00  0.00    +0.000 S 
ATOM      3  C   UNL     1      -4.196  15.186  24.074  0.00  0.00    +0.000 A 
ATOM      4  C   UNL     1      -3.122  14.323  23.932  0.00  0.00    +0.000 A 
ATOM      5  C   UNL     1      -3.428  13.227  23.041  0.00  0.00    +0.000 A 
ATOM      6  C   UNL     1      -1.813  14.650  24.597  0.00  0.00    +0.000 C 
ATOM      7  C   UNL     1      -1.990  15.750  25.668  0.00  0.00    +0.000 C 
ATOM      8  N   UNL     1      -2.822  16.879  25.208  0.00  0.00    +0.000 NA
ATOM      9  C   UNL     1      -4.197  16.422  24.923  0.00  0.00    +0.000 C 
ATOM     10  H   UNL     1      -2.426  17.233  24.337  0.00  0.00    +0.000 HD
ENDROOT
BRANCH   5  11
ATOM     11  C   UNL     1      -2.382  12.262  22.512  0.00  0.00    +0.000 A 
ATOM     12  N   UNL     1      -1.876  11.319  23.282  0.00  0.00    +0.000 NA
ATOM     13  C   UNL     1      -0.843  10.662  22.633  0.00  0.00    +0.000 A 
ATOM     14  C   UNL     1      -0.072   9.604  23.156  0.00  0.00    +0.000 A 
ATOM     15  C   UNL     1       0.965   9.054  22.393  0.00  0.00    +0.000 A 
ATOM     16  C   UNL     1       1.240   9.545  21.120  0.00  0.00    +0.000 A 
ATOM     17  C   UNL     1       0.486  10.587  20.577  0.00  0.00    +0.000 A 
ATOM     18  C   UNL     1      -0.555  11.128  21.354  0.00  0.00    +0.000 A 
ATOM     19  S   UNL     1      -1.632  12.403  20.969  0.00  0.00    +0.000 S 
ENDBRANCH   5  11
BRANCH   1  22
ATOM     20  O   UNL     1      -5.156  13.462  19.894  0.00  0.00    +0.000 OA
ATOM     21  C   UNL     1      -5.732  12.615  20.567  0.00  0.00    +0.000 C 
ATOM     22  N   UNL     1      -5.595  12.442  21.942  0.00  0.00    +0.000 N 
ATOM     23  H   UNL     1      -5.626  11.481  22.262  0.00  0.00    +0.000 HD
BRANCH  21  24
ATOM     24  C   UNL     1      -6.748  11.652  19.976  0.00  0.00    +0.000 C 
BRANCH  24  25
ATOM     25  C   UNL     1      -6.359  11.152  18.582  0.00  0.00    +0.000 C 
BRANCH  25  26
ATOM     26  N   UNL     1      -4.893  11.043  18.514  0.00  0.00    +0.000 NA
ATOM     27  H   UNL     1      -4.557  10.530  19.331  0.00  0.00    +0.000 HD
BRANCH  26  28
ATOM     28  C   UNL     1      -4.463  10.416  17.263  0.00  0.00    +0.000 C 
ATOM     29  C   UNL     1      -3.542  11.284  16.329  0.00  0.00    +0.000 C 
ATOM     30  C   UNL     1      -3.049   9.833  15.809  0.00  0.00    +0.000 C 
ATOM     31  C   UNL     1      -3.010   9.810  17.418  0.00  0.00    +0.000 C 
ATOM     32  C   UNL     1      -2.482  11.323  17.522  0.00  0.00    +0.000 C 
ENDBRANCH  26  28
ENDBRANCH  25  26
ENDBRANCH  24  25
ENDBRANCH  21  24
ENDBRANCH   1  22
TORSDOF 6
ENDMDL
MODEL 7
REMARK VINA RESULT:      -7.2      2.816      4.274
REMARK  Name = 
REMARK  6 active torsions:
REMARK  status: ('A' for Active; 'I' for Inactive)
REMARK    1  A    between atoms: C_2  and  C_3
REMARK    2  A    between atoms: C_3  and  C_4
REMARK    3  A    between atoms: C_4  and  N_5
REMARK    4  A    between atoms: N_5  and  C_6
REMARK    5  A    between atoms: N_11  and  C_12
REMARK    6  A    between atoms: C_16  and  C_17
REMARK                            x       y       z     vdW  Elec       q    Type
REMARK                         _______ _______ _______ _____ _____    ______ ____
ROOT
ATOM      1  C   UNL     1       4.221   5.296  18.604  0.00  0.00    +0.000 A 
ATOM      2  S   UNL     1       4.466   3.641  18.277  0.00  0.00    +0.000 S 
ATOM      3  C   UNL     1       3.060   3.212  19.126  0.00  0.00    +0.000 A 
ATOM      4  C   UNL     1       2.352   4.315  19.573  0.00  0.00    +0.000 A 
ATOM      5  C   UNL     1       2.998   5.553  19.202  0.00  0.00    +0.000 A 
ATOM      6  C   UNL     1       1.029   4.119  20.262  0.00  0.00    +0.000 C 
ATOM      7  C   UNL     1       0.839   2.650  20.700  0.00  0.00    +0.000 C 
ATOM      8  N   UNL     1       1.213   1.679  19.651  0.00  0.00    +0.000 NA
ATOM      9  C   UNL     1       2.652   1.785  19.341  0.00  0.00    +0.000 C 
ATOM     10  H   UNL     1       0.695   1.911  18.804  0.00  0.00    +0.000 HD
ENDROOT
BRANCH   5  11
ATOM     11  C   UNL     1       2.341   6.916  19.346  0.00  0.00    +0.000 A 
ATOM     12  N   UNL     1       2.418   7.811  18.382  0.00  0.00    +0.000 NA
ATOM     13  C   UNL     1       1.876   9.019  18.795  0.00  0.00    +0.000 A 
ATOM     14  C   UNL     1       1.793  10.198  18.027  0.00  0.00    +0.000 A 
ATOM     15  C   UNL     1       1.243  11.357  18.588  0.00  0.00    +0.000 A 
ATOM     16  C   UNL     1       0.777  11.352  19.900  0.00  0.00    +0.000 A 
ATOM     17  C   UNL     1       0.842  10.194  20.678  0.00  0.00    +0.000 A 
ATOM     18  C   UNL     1       1.393   9.037  20.099  0.00  0.00    +0.000 A 
ATOM     19  S   UNL     1       1.614   7.487  20.797  0.00  0.00    +0.000 S 
ENDBRANCH   5  11
BRANCH   1  22
ATOM     20  O   UNL     1       6.792   5.255  19.729  0.00  0.00    +0.000 OA
ATOM     21  C   UNL     1       6.514   5.994  18.792  0.00  0.00    +0.000 C 
ATOM     22  N   UNL     1       5.273   6.079  18.168  0.00  0.00    +0.000 N 
ATOM     23  H   UNL     1       5.301   6.239  17.168  0.00  0.00    +0.000 HD
BRANCH  21  24
ATOM     24  C   UNL     1       7.507   6.987  18.211  0.00  0.00    +0.000 C 
BRANCH  24  25
ATOM     25  C   UNL     1       7.483   7.032  16.681  0.00  0.00    +0.000 C 
BRANCH  25  26
ATOM     26  N   UNL     1       7.459   5.653  16.170  0.00  0.00    +0.000 NA
ATOM     27  H   UNL     1       7.019   5.047  16.863  0.00  0.00    +0.000 HD
BRANCH  26  28
ATOM     28  C   UNL     1       6.783   5.577  14.873  0.00  0.00    +0.000 C 
ATOM     29  C   UNL     1       6.945   4.228  14.080  0.00  0.00    +0.000 C 
ATOM     30  C   UNL     1       5.540   4.686  13.420  0.00  0.00    +0.000 C 
ATOM     31  C   UNL     1       5.395   4.833  15.015  0.00  0.00    +0.000 C 
ATOM     32  C   UNL     1       6.238   3.498  15.310  0.00  0.00    +0.000 C 
ENDBRANCH  26  28
ENDBRANCH  25  26
ENDBRANCH  24  25
ENDBRANCH  21  24
ENDBRANCH   1  22
TORSDOF 6
ENDMDL
MODEL 8
REMARK VINA RESULT:      -7.2      4.389      8.536
REMARK  Name = 
REMARK  6 active torsions:
REMARK  status: ('A' for Active; 'I' for Inactive)
REMARK    1  A    between atoms: C_2  and  C_3
REMARK    2  A    between atoms: C_3  and  C_4
REMARK    3  A    between atoms: C_4  and  N_5
REMARK    4  A    between atoms: N_5  and  C_6
REMARK    5  A    between atoms: N_11  and  C_12
REMARK    6  A    between atoms: C_16  and  C_17
REMARK                            x       y       z     vdW  Elec       q    Type
REMARK                         _______ _______ _______ _____ _____    ______ ____
ROOT
ATOM      1  C   UNL     1      -0.292  10.556  18.138  0.00  0.00    +0.000 A 
ATOM      2  S   UNL     1      -1.798  10.036  17.531  0.00  0.00    +0.000 S 
ATOM      3  C   UNL     1      -2.627  11.198  18.448  0.00  0.00    +0.000 A 
ATOM      4  C   UNL     1      -1.771  12.042  19.136  0.00  0.00    +0.000 A 
ATOM      5  C   UNL     1      -0.386  11.711  18.897  0.00  0.00    +0.000 A 
ATOM      6  C   UNL     1      -2.337  13.191  19.925  0.00  0.00    +0.000 C 
ATOM      7  C   UNL     1      -3.857  13.025  20.145  0.00  0.00    +0.000 C 
ATOM      8  N   UNL     1      -4.578  12.615  18.923  0.00  0.00    +0.000 NA
ATOM      9  C   UNL     1      -4.124  11.282  18.480  0.00  0.00    +0.000 C 
ATOM     10  H   UNL     1      -4.355  13.281  18.184  0.00  0.00    +0.000 HD
ENDROOT
BRANCH   5  11
ATOM     11  C   UNL     1       0.772  12.598  19.322  0.00  0.00    +0.000 A 
ATOM     12  N   UNL     1       1.613  13.088  18.434  0.00  0.00    +0.000 NA
ATOM     13  C   UNL     1       2.662  13.739  19.065  0.00  0.00    +0.000 A 
ATOM     14  C   UNL     1       3.747  14.377  18.429  0.00  0.00    +0.000 A 
ATOM     15  C   UNL     1       4.754  14.971  19.200  0.00  0.00    +0.000 A 
ATOM     16  C   UNL     1       4.691  14.937  20.590  0.00  0.00    +0.000 A 
ATOM     17  C   UNL     1       3.623  14.317  21.242  0.00  0.00    +0.000 A 
ATOM     18  C   UNL     1       2.617  13.728  20.455  0.00  0.00    +0.000 A 
ATOM     19  S   UNL     1       1.207  12.896  20.961  0.00  0.00    +0.000 S 
ENDBRANCH   5  11
BRANCH   1  22
ATOM     20  O   UNL     1       1.312   9.026  19.859  0.00  0.00    +0.000 OA
ATOM     21  C   UNL     1       1.495   9.030  18.648  0.00  0.00    +0.000 C 
ATOM     22  N   UNL     1       0.750   9.750  17.718  0.00  0.00    +0.000 N 
ATOM     23  H   UNL     1       0.601   9.287  16.830  0.00  0.00    +0.000 HD
BRANCH  21  24
ATOM     24  C   UNL     1       2.635   8.270  17.989  0.00  0.00    +0.000 C 
BRANCH  24  25
ATOM     25  C   UNL     1       2.506   6.751  18.138  0.00  0.00    +0.000 C 
BRANCH  25  26
ATOM     26  N   UNL     1       2.322   6.432  19.562  0.00  0.00    +0.000 NA
ATOM     27  H   UNL     1       1.326   6.452  19.783  0.00  0.00    +0.000 HD
BRANCH  26  28
ATOM     28  C   UNL     1       2.929   5.143  19.901  0.00  0.00    +0.000 C 
ATOM     29  C   UNL     1       2.342   4.406  21.161  0.00  0.00    +0.000 C 
ATOM     30  C   UNL     1       2.899   3.092  20.397  0.00  0.00    +0.000 C 
ATOM     31  C   UNL     1       2.058   3.953  19.328  0.00  0.00    +0.000 C 
ATOM     32  C   UNL     1       0.938   4.369  20.403  0.00  0.00    +0.000 C 
ENDBRANCH  26  28
ENDBRANCH  25  26
ENDBRANCH  24  25
ENDBRANCH  21  24
ENDBRANCH   1  22
TORSDOF 6
ENDMDL
MODEL 9
REMARK VINA RESULT:      -7.2      7.517     11.985
REMARK  Name = 
REMARK  6 active torsions:
REMARK  status: ('A' for Active; 'I' for Inactive)
REMARK    1  A    between atoms: C_2  and  C_3
REMARK    2  A    between atoms: C_3  and  C_4
REMARK    3  A    between atoms: C_4  and  N_5
REMARK    4  A    between atoms: N_5  and  C_6
REMARK    5  A    between atoms: N_11  and  C_12
REMARK    6  A    between atoms: C_16  and  C_17
REMARK                            x       y       z     vdW  Elec       q    Type
REMARK                         _______ _______ _______ _____ _____    ______ ____
ROOT
ATOM      1  C   UNL     1      -4.345  13.191  22.483  0.00  0.00    +0.000 A 
ATOM      2  S   UNL     1      -5.195  14.547  23.071  0.00  0.00    +0.000 S 
ATOM      3  C   UNL     1      -3.859  15.052  23.987  0.00  0.00    +0.000 A 
ATOM      4  C   UNL     1      -2.742  14.260  23.779  0.00  0.00    +0.000 A 
ATOM      5  C   UNL     1      -3.005  13.201  22.832  0.00  0.00    +0.000 A 
ATOM      6  C   UNL     1      -1.440  14.623  24.440  0.00  0.00    +0.000 C 
ATOM      7  C   UNL     1      -1.656  15.649  25.574  0.00  0.00    +0.000 C 
ATOM      8  N   UNL     1      -2.559  16.754  25.193  0.00  0.00    +0.000 NA
ATOM      9  C   UNL     1      -3.912  16.236  24.905  0.00  0.00    +0.000 C 
ATOM     10  H   UNL     1      -2.200  17.177  24.338  0.00  0.00    +0.000 HD
ENDROOT
BRANCH   5  11
ATOM     11  C   UNL     1      -1.917  12.326  22.231  0.00  0.00    +0.000 A 
ATOM     12  N   UNL     1      -1.512  12.505  20.989  0.00  0.00    +0.000 NA
ATOM     13  C   UNL     1      -0.627  11.505  20.618  0.00  0.00    +0.000 A 
ATOM     14  C   UNL     1       0.001  11.375  19.362  0.00  0.00    +0.000 A 
ATOM     15  C   UNL     1       0.853  10.291  19.118  0.00  0.00    +0.000 A 
ATOM     16  C   UNL     1       1.084   9.341  20.108  0.00  0.00    +0.000 A 
ATOM     17  C   UNL     1       0.479   9.451  21.362  0.00  0.00    +0.000 A 
ATOM     18  C   UNL     1      -0.371  10.547  21.593  0.00  0.00    +0.000 A 
ATOM     19  S   UNL     1      -1.253  10.942  23.009  0.00  0.00    +0.000 S 
ENDBRANCH   5  11
BRANCH   1  22
ATOM     20  O   UNL     1      -5.186  13.759  19.866  0.00  0.00    +0.000 OA
ATOM     21  C   UNL     1      -5.518  12.726  20.436  0.00  0.00    +0.000 C 
ATOM     22  N   UNL     1      -5.146  12.357  21.725  0.00  0.00    +0.000 N 
ATOM     23  H   UNL     1      -4.983  11.367  21.863  0.00  0.00    +0.000 HD
BRANCH  21  24
ATOM     24  C   UNL     1      -6.456  11.709  19.806  0.00  0.00    +0.000 C 
BRANCH  24  25
ATOM     25  C   UNL     1      -5.840  10.989  18.604  0.00  0.00    +0.000 C 
BRANCH  25  26
ATOM     26  N   UNL     1      -4.423  11.371  18.503  0.00  0.00    +0.000 NA
ATOM     27  H   UNL     1      -3.858  10.705  19.034  0.00  0.00    +0.000 HD
BRANCH  26  28
ATOM     28  C   UNL     1      -3.993  11.457  17.106  0.00  0.00    +0.000 C 
ATOM     29  C   UNL     1      -2.452  11.283  16.839  0.00  0.00    +0.000 C 
ATOM     30  C   UNL     1      -2.967  10.800  15.383  0.00  0.00    +0.000 C 
ATOM     31  C   UNL     1      -3.829  10.009  16.488  0.00  0.00    +0.000 C 
ATOM     32  C   UNL     1      -2.574   9.823  17.472  0.00  0.00    +0.000 C 
ENDBRANCH  26  28
ENDBRANCH  25  26
ENDBRANCH  24  25
ENDBRANCH  21  24
ENDBRANCH   1  22
TORSDOF 6
ENDMDL
