MODEL 1
REMARK VINA RESULT:      -9.0      0.000      0.000
REMARK  Name = 
REMARK  8 active torsions:
REMARK  status: ('A' for Active; 'I' for Inactive)
REMARK    1  A    between atoms: C_1  and  O_2
REMARK    2  A    between atoms: O_2  and  C_3
REMARK    3  A    between atoms: C_8  and  C_9
REMARK    4  A    between atoms: C_9  and  N_10
REMARK    5  A    between atoms: C_11  and  C_13
REMARK    6  A    between atoms: C_13  and  N_14
REMARK    7  A    between atoms: N_14  and  C_15
REMARK    8  A    between atoms: C_22  and  C_23
REMARK                            x       y       z     vdW  Elec       q    Type
REMARK                         _______ _______ _______ _____ _____    ______ ____
ROOT
ATOM      1  C   UNL     1       8.039   6.491  18.358  0.00  0.00    +0.000 C 
ENDROOT
BRANCH   1   2
ATOM      2  N   UNL     1       6.894   5.640  18.012  0.00  0.00    +0.000 N 
ATOM      3  C   UNL     1       5.927   5.408  19.078  0.00  0.00    +0.000 C 
ATOM      4  C   UNL     1       6.689   5.255  16.704  0.00  0.00    +0.000 A 
ATOM      5  N   UNL     1       7.468   5.542  15.702  0.00  0.00    +0.000 NA
ATOM      6  N   UNL     1       7.001   4.929  14.562  0.00  0.00    +0.000 N 
ATOM      7  C   UNL     1       7.654   5.025  13.352  0.00  0.00    +0.000 A 
ATOM      8  O   UNL     1       8.658   5.688  13.109  0.00  0.00    +0.000 OA
ATOM      9  C   UNL     1       7.032   4.216  12.273  0.00  0.00    +0.000 A 
ATOM     10  C   UNL     1       5.925   3.503  12.535  0.00  0.00    +0.000 A 
ATOM     11  C   UNL     1       5.259   2.657  11.486  0.00  0.00    +0.000 C 
ATOM     12  N   UNL     1       5.310   3.472  13.764  0.00  0.00    +0.000 NA
ATOM     13  C   UNL     1       5.875   4.168  14.690  0.00  0.00    +0.000 A 
ATOM     14  S   UNL     1       5.293   4.254  16.308  0.00  0.00    +0.000 S 
ENDBRANCH   1   2
BRANCH   1  16
ATOM     15  N   UNL     1       8.661   8.852  18.531  0.00  0.00    +0.000 N 
ATOM     16  C   UNL     1       7.830   7.940  17.915  0.00  0.00    +0.000 C 
ATOM     17  O   UNL     1       6.969   8.246  17.094  0.00  0.00    +0.000 OA
ATOM     18  H   UNL     1       9.482   8.513  19.025  0.00  0.00    +0.000 HD
BRANCH  15  19
ATOM     19  C   UNL     1       8.572  10.276  18.290  0.00  0.00    +0.000 C 
BRANCH  19  25
ATOM     20  C   UNL     1      10.000  11.318  20.137  0.00  0.00    +0.000 A 
ATOM     21  C   UNL     1      11.103  12.097  20.512  0.00  0.00    +0.000 A 
ATOM     22  C   UNL     1      12.019  12.539  19.558  0.00  0.00    +0.000 A 
ATOM     23  C   UNL     1      11.841  12.211  18.219  0.00  0.00    +0.000 A 
ATOM     24  C   UNL     1      10.728  11.468  17.832  0.00  0.00    +0.000 A 
ATOM     25  C   UNL     1       9.783  11.032  18.778  0.00  0.00    +0.000 A 
BRANCH  20  27
ATOM     26  C   UNL     1       8.685  11.748  22.059  0.00  0.00    +0.000 C 
ATOM     27  O   UNL     1       9.078  10.838  21.032  0.00  0.00    +0.000 OA
ENDBRANCH  20  27
ENDBRANCH  19  25
ENDBRANCH  15  19
ENDBRANCH   1  16
TORSDOF 5
ENDMDL
MODEL 2
REMARK VINA RESULT:      -8.2      1.060      1.839
REMARK  Name = 
REMARK  8 active torsions:
REMARK  status: ('A' for Active; 'I' for Inactive)
REMARK    1  A    between atoms: C_1  and  O_2
REMARK    2  A    between atoms: O_2  and  C_3
REMARK    3  A    between atoms: C_8  and  C_9
REMARK    4  A    between atoms: C_9  and  N_10
REMARK    5  A    between atoms: C_11  and  C_13
REMARK    6  A    between atoms: C_13  and  N_14
REMARK    7  A    between atoms: N_14  and  C_15
REMARK    8  A    between atoms: C_22  and  C_23
REMARK                            x       y       z     vdW  Elec       q    Type
REMARK                         _______ _______ _______ _____ _____    ______ ____
ROOT
ATOM      1  C   UNL     1       7.959   6.559  18.453  0.00  0.00    +0.000 C 
ENDROOT
BRANCH   1   2
ATOM      2  N   UNL     1       6.859   5.662  18.077  0.00  0.00    +0.000 N 
ATOM      3  C   UNL     1       5.882   5.379  19.123  0.00  0.00    +0.000 C 
ATOM      4  C   UNL     1       6.695   5.281  16.762  0.00  0.00    +0.000 A 
ATOM      5  N   UNL     1       7.480   5.610  15.778  0.00  0.00    +0.000 NA
ATOM      6  N   UNL     1       7.061   4.988  14.624  0.00  0.00    +0.000 N 
ATOM      7  C   UNL     1       7.732   5.124  13.428  0.00  0.00    +0.000 A 
ATOM      8  O   UNL     1       8.711   5.832  13.210  0.00  0.00    +0.000 OA
ATOM      9  C   UNL     1       7.166   4.299  12.331  0.00  0.00    +0.000 A 
ATOM     10  C   UNL     1       6.086   3.536  12.565  0.00  0.00    +0.000 A 
ATOM     11  C   UNL     1       5.478   2.672  11.496  0.00  0.00    +0.000 C 
ATOM     12  N   UNL     1       5.450   3.468  13.781  0.00  0.00    +0.000 NA
ATOM     13  C   UNL     1       5.967   4.178  14.724  0.00  0.00    +0.000 A 
ATOM     14  S   UNL     1       5.351   4.224  16.332  0.00  0.00    +0.000 S 
ENDBRANCH   1   2
BRANCH   1  16
ATOM     15  N   UNL     1       8.684   8.894  18.337  0.00  0.00    +0.000 N 
ATOM     16  C   UNL     1       7.771   7.966  17.882  0.00  0.00    +0.000 C 
ATOM     17  O   UNL     1       6.858   8.230  17.103  0.00  0.00    +0.000 OA
ATOM     18  H   UNL     1       9.529   8.567  18.798  0.00  0.00    +0.000 HD
BRANCH  15  19
ATOM     19  C   UNL     1       8.632  10.289  17.960  0.00  0.00    +0.000 C 
BRANCH  19  25
ATOM     20  C   UNL     1      10.188  12.251  18.476  0.00  0.00    +0.000 A 
ATOM     21  C   UNL     1      10.924  12.991  19.411  0.00  0.00    +0.000 A 
ATOM     22  C   UNL     1      10.819  12.719  20.775  0.00  0.00    +0.000 A 
ATOM     23  C   UNL     1       9.981  11.704  21.219  0.00  0.00    +0.000 A 
ATOM     24  C   UNL     1       9.272  10.939  20.294  0.00  0.00    +0.000 A 
ATOM     25  C   UNL     1       9.383  11.185  18.913  0.00  0.00    +0.000 A 
BRANCH  20  27
ATOM     26  C   UNL     1      11.276  13.357  16.687  0.00  0.00    +0.000 C 
ATOM     27  O   UNL     1      10.235  12.486  17.125  0.00  0.00    +0.000 OA
ENDBRANCH  20  27
ENDBRANCH  19  25
ENDBRANCH  15  19
ENDBRANCH   1  16
TORSDOF 5
ENDMDL
MODEL 3
REMARK VINA RESULT:      -7.8      6.225      9.884
REMARK  Name = 
REMARK  8 active torsions:
REMARK  status: ('A' for Active; 'I' for Inactive)
REMARK    1  A    between atoms: C_1  and  O_2
REMARK    2  A    between atoms: O_2  and  C_3
REMARK    3  A    between atoms: C_8  and  C_9
REMARK    4  A    between atoms: C_9  and  N_10
REMARK    5  A    between atoms: C_11  and  C_13
REMARK    6  A    between atoms: C_13  and  N_14
REMARK    7  A    between atoms: N_14  and  C_15
REMARK    8  A    between atoms: C_22  and  C_23
REMARK                            x       y       z     vdW  Elec       q    Type
REMARK                         _______ _______ _______ _____ _____    ______ ____
ROOT
ATOM      1  C   UNL     1       2.271   6.523  20.389  0.00  0.00    +0.000 C 
ENDROOT
BRANCH   1   2
ATOM      2  N   UNL     1       2.050   7.690  19.526  0.00  0.00    +0.000 N 
ATOM      3  C   UNL     1       2.464   7.543  18.136  0.00  0.00    +0.000 C 
ATOM      4  C   UNL     1       1.329   8.769  19.994  0.00  0.00    +0.000 A 
ATOM      5  N   UNL     1       0.841   8.887  21.193  0.00  0.00    +0.000 NA
ATOM      6  N   UNL     1       0.253  10.123  21.334  0.00  0.00    +0.000 N 
ATOM      7  C   UNL     1      -0.314  10.540  22.520  0.00  0.00    +0.000 A 
ATOM      8  O   UNL     1      -0.430   9.883  23.550  0.00  0.00    +0.000 OA
ATOM      9  C   UNL     1      -0.811  11.938  22.483  0.00  0.00    +0.000 A 
ATOM     10  C   UNL     1      -0.699  12.652  21.351  0.00  0.00    +0.000 A 
ATOM     11  C   UNL     1      -1.174  14.075  21.258  0.00  0.00    +0.000 C 
ATOM     12  N   UNL     1      -0.143  12.163  20.192  0.00  0.00    +0.000 NA
ATOM     13  C   UNL     1       0.298  10.953  20.251  0.00  0.00    +0.000 A 
ATOM     14  S   UNL     1       1.055  10.148  18.930  0.00  0.00    +0.000 S 
ENDBRANCH   1   2
BRANCH   1  16
ATOM     15  N   UNL     1       3.841   4.873  19.493  0.00  0.00    +0.000 N 
ATOM     16  C   UNL     1       2.517   5.249  19.578  0.00  0.00    +0.000 C 
ATOM     17  O   UNL     1       1.597   4.642  19.035  0.00  0.00    +0.000 OA
ATOM     18  H   UNL     1       4.511   5.286  20.135  0.00  0.00    +0.000 HD
BRANCH  15  19
ATOM     19  C   UNL     1       4.279   3.732  18.718  0.00  0.00    +0.000 C 
BRANCH  19  25
ATOM     20  C   UNL     1       6.483   4.604  17.759  0.00  0.00    +0.000 A 
ATOM     21  C   UNL     1       7.234   5.015  16.651  0.00  0.00    +0.000 A 
ATOM     22  C   UNL     1       6.727   4.885  15.358  0.00  0.00    +0.000 A 
ATOM     23  C   UNL     1       5.462   4.346  15.160  0.00  0.00    +0.000 A 
ATOM     24  C   UNL     1       4.692   3.967  16.258  0.00  0.00    +0.000 A 
ATOM     25  C   UNL     1       5.180   4.112  17.570  0.00  0.00    +0.000 A 
BRANCH  20  27
ATOM     26  C   UNL     1       7.774   5.808  19.337  0.00  0.00    +0.000 C 
ATOM     27  O   UNL     1       6.937   4.689  19.051  0.00  0.00    +0.000 OA
ENDBRANCH  20  27
ENDBRANCH  19  25
ENDBRANCH  15  19
ENDBRANCH   1  16
TORSDOF 5
ENDMDL
MODEL 4
REMARK VINA RESULT:      -7.8      5.176      6.924
REMARK  Name = 
REMARK  8 active torsions:
REMARK  status: ('A' for Active; 'I' for Inactive)
REMARK    1  A    between atoms: C_1  and  O_2
REMARK    2  A    between atoms: O_2  and  C_3
REMARK    3  A    between atoms: C_8  and  C_9
REMARK    4  A    between atoms: C_9  and  N_10
REMARK    5  A    between atoms: C_11  and  C_13
REMARK    6  A    between atoms: C_13  and  N_14
REMARK    7  A    between atoms: N_14  and  C_15
REMARK    8  A    between atoms: C_22  and  C_23
REMARK                            x       y       z     vdW  Elec       q    Type
REMARK                         _______ _______ _______ _____ _____    ______ ____
ROOT
ATOM      1  C   UNL     1       3.200   2.509  20.556  0.00  0.00    +0.000 C 
ENDROOT
BRANCH   1   2
ATOM      2  N   UNL     1       2.938   2.551  19.112  0.00  0.00    +0.000 N 
ATOM      3  C   UNL     1       1.616   2.103  18.691  0.00  0.00    +0.000 C 
ATOM      4  C   UNL     1       3.841   3.153  18.262  0.00  0.00    +0.000 A 
ATOM      5  N   UNL     1       4.981   3.672  18.617  0.00  0.00    +0.000 NA
ATOM      6  N   UNL     1       5.657   4.110  17.501  0.00  0.00    +0.000 N 
ATOM      7  C   UNL     1       6.915   4.668  17.573  0.00  0.00    +0.000 A 
ATOM      8  O   UNL     1       7.557   4.905  18.592  0.00  0.00    +0.000 OA
ATOM      9  C   UNL     1       7.501   4.990  16.247  0.00  0.00    +0.000 A 
ATOM     10  C   UNL     1       6.792   4.746  15.133  0.00  0.00    +0.000 A 
ATOM     11  C   UNL     1       7.338   5.039  13.764  0.00  0.00    +0.000 C 
ATOM     12  N   UNL     1       5.527   4.207  15.136  0.00  0.00    +0.000 NA
ATOM     13  C   UNL     1       5.044   3.920  16.297  0.00  0.00    +0.000 A 
ATOM     14  S   UNL     1       3.491   3.215  16.535  0.00  0.00    +0.000 S 
ENDBRANCH   1   2
BRANCH   1  16
ATOM     15  N   UNL     1       2.580   4.876  20.603  0.00  0.00    +0.000 N 
ATOM     16  C   UNL     1       2.549   3.682  21.291  0.00  0.00    +0.000 C 
ATOM     17  O   UNL     1       2.067   3.552  22.414  0.00  0.00    +0.000 OA
ATOM     18  H   UNL     1       2.792   4.865  19.609  0.00  0.00    +0.000 HD
BRANCH  15  19
ATOM     19  C   UNL     1       2.072   6.111  21.160  0.00  0.00    +0.000 C 
BRANCH  19  25
ATOM     20  C   UNL     1       1.390   8.464  20.431  0.00  0.00    +0.000 A 
ATOM     21  C   UNL     1       1.257   9.419  19.414  0.00  0.00    +0.000 A 
ATOM     22  C   UNL     1       1.753   9.170  18.134  0.00  0.00    +0.000 A 
ATOM     23  C   UNL     1       2.383   7.963  17.856  0.00  0.00    +0.000 A 
ATOM     24  C   UNL     1       2.487   6.993  18.851  0.00  0.00    +0.000 A 
ATOM     25  C   UNL     1       1.974   7.219  20.141  0.00  0.00    +0.000 A 
BRANCH  20  27
ATOM     26  C   UNL     1      -0.463   8.877  21.847  0.00  0.00    +0.000 C 
ATOM     27  O   UNL     1       0.941   8.661  21.713  0.00  0.00    +0.000 OA
ENDBRANCH  20  27
ENDBRANCH  19  25
ENDBRANCH  15  19
ENDBRANCH   1  16
TORSDOF 5
ENDMDL
MODEL 5
REMARK VINA RESULT:      -7.6      4.341      7.365
REMARK  Name = 
REMARK  8 active torsions:
REMARK  status: ('A' for Active; 'I' for Inactive)
REMARK    1  A    between atoms: C_1  and  O_2
REMARK    2  A    between atoms: O_2  and  C_3
REMARK    3  A    between atoms: C_8  and  C_9
REMARK    4  A    between atoms: C_9  and  N_10
REMARK    5  A    between atoms: C_11  and  C_13
REMARK    6  A    between atoms: C_13  and  N_14
REMARK    7  A    between atoms: N_14  and  C_15
REMARK    8  A    between atoms: C_22  and  C_23
REMARK                            x       y       z     vdW  Elec       q    Type
REMARK                         _______ _______ _______ _____ _____    ______ ____
ROOT
ATOM      1  C   UNL     1       2.904   3.123  19.180  0.00  0.00    +0.000 C 
ENDROOT
BRANCH   1   2
ATOM      2  N   UNL     1       2.267   4.026  20.147  0.00  0.00    +0.000 N 
ATOM      3  C   UNL     1       1.925   3.440  21.437  0.00  0.00    +0.000 C 
ATOM      4  C   UNL     1       2.182   5.376  19.879  0.00  0.00    +0.000 A 
ATOM      5  N   UNL     1       2.584   5.956  18.786  0.00  0.00    +0.000 NA
ATOM      6  N   UNL     1       2.270   7.295  18.830  0.00  0.00    +0.000 N 
ATOM      7  C   UNL     1       2.542   8.151  17.784  0.00  0.00    +0.000 A 
ATOM      8  O   UNL     1       3.131   7.876  16.744  0.00  0.00    +0.000 OA
ATOM      9  C   UNL     1       2.042   9.532  18.000  0.00  0.00    +0.000 A 
ATOM     10  C   UNL     1       1.411   9.837  19.146  0.00  0.00    +0.000 A 
ATOM     11  C   UNL     1       0.873  11.215  19.414  0.00  0.00    +0.000 C 
ATOM     12  N   UNL     1       1.195   8.936  20.161  0.00  0.00    +0.000 NA
ATOM     13  C   UNL     1       1.623   7.739  19.946  0.00  0.00    +0.000 A 
ATOM     14  S   UNL     1       1.436   6.445  21.068  0.00  0.00    +0.000 S 
ENDBRANCH   1   2
BRANCH   1  16
ATOM     15  N   UNL     1       5.030   4.011  18.357  0.00  0.00    +0.000 N 
ATOM     16  C   UNL     1       4.430   3.171  19.270  0.00  0.00    +0.000 C 
ATOM     17  O   UNL     1       5.050   2.488  20.082  0.00  0.00    +0.000 OA
ATOM     18  H   UNL     1       4.460   4.699  17.873  0.00  0.00    +0.000 HD
BRANCH  15  19
ATOM     19  C   UNL     1       6.467   4.144  18.245  0.00  0.00    +0.000 C 
BRANCH  19  25
ATOM     20  C   UNL     1       6.407   6.388  17.023  0.00  0.00    +0.000 A 
ATOM     21  C   UNL     1       6.926   7.678  16.847  0.00  0.00    +0.000 A 
ATOM     22  C   UNL     1       7.896   8.179  17.715  0.00  0.00    +0.000 A 
ATOM     23  C   UNL     1       8.360   7.397  18.765  0.00  0.00    +0.000 A 
ATOM     24  C   UNL     1       7.875   6.100  18.928  0.00  0.00    +0.000 A 
ATOM     25  C   UNL     1       6.913   5.571  18.048  0.00  0.00    +0.000 A 
BRANCH  20  27
ATOM     26  C   UNL     1       5.881   5.405  14.934  0.00  0.00    +0.000 C 
ATOM     27  O   UNL     1       5.438   5.850  16.215  0.00  0.00    +0.000 OA
ENDBRANCH  20  27
ENDBRANCH  19  25
ENDBRANCH  15  19
ENDBRANCH   1  16
TORSDOF 5
ENDMDL
MODEL 6
REMARK VINA RESULT:      -7.5      8.391     11.100
REMARK  Name = 
REMARK  8 active torsions:
REMARK  status: ('A' for Active; 'I' for Inactive)
REMARK    1  A    between atoms: C_1  and  O_2
REMARK    2  A    between atoms: O_2  and  C_3
REMARK    3  A    between atoms: C_8  and  C_9
REMARK    4  A    between atoms: C_9  and  N_10
REMARK    5  A    between atoms: C_11  and  C_13
REMARK    6  A    between atoms: C_13  and  N_14
REMARK    7  A    between atoms: N_14  and  C_15
REMARK    8  A    between atoms: C_22  and  C_23
REMARK                            x       y       z     vdW  Elec       q    Type
REMARK                         _______ _______ _______ _____ _____    ______ ____
ROOT
ATOM      1  C   UNL     1       1.295   9.418  19.444  0.00  0.00    +0.000 C 
ENDROOT
BRANCH   1   2
ATOM      2  N   UNL     1       0.368  10.435  19.956  0.00  0.00    +0.000 N 
ATOM      3  C   UNL     1       0.829  11.191  21.115  0.00  0.00    +0.000 C 
ATOM      4  C   UNL     1      -0.773  10.750  19.249  0.00  0.00    +0.000 A 
ATOM      5  N   UNL     1      -1.158  10.179  18.145  0.00  0.00    +0.000 NA
ATOM      6  N   UNL     1      -2.379  10.687  17.764  0.00  0.00    +0.000 N 
ATOM      7  C   UNL     1      -3.050  10.234  16.647  0.00  0.00    +0.000 A 
ATOM      8  O   UNL     1      -2.651   9.404  15.837  0.00  0.00    +0.000 OA
ATOM      9  C   UNL     1      -4.388  10.850  16.466  0.00  0.00    +0.000 A 
ATOM     10  C   UNL     1      -4.818  11.770  17.345  0.00  0.00    +0.000 A 
ATOM     11  C   UNL     1      -6.168  12.419  17.219  0.00  0.00    +0.000 C 
ATOM     12  N   UNL     1      -4.084  12.195  18.427  0.00  0.00    +0.000 NA
ATOM     13  C   UNL     1      -2.932  11.635  18.574  0.00  0.00    +0.000 A 
ATOM     14  S   UNL     1      -1.857  11.994  19.871  0.00  0.00    +0.000 S 
ENDBRANCH   1   2
BRANCH   1  16
ATOM     15  N   UNL     1       1.799   7.052  19.807  0.00  0.00    +0.000 N 
ATOM     16  C   UNL     1       1.445   8.241  20.408  0.00  0.00    +0.000 C 
ATOM     17  O   UNL     1       1.237   8.363  21.613  0.00  0.00    +0.000 OA
ATOM     18  H   UNL     1       2.163   7.069  18.859  0.00  0.00    +0.000 HD
BRANCH  15  19
ATOM     19  C   UNL     1       1.928   5.814  20.544  0.00  0.00    +0.000 C 
BRANCH  19  25
ATOM     20  C   UNL     1       3.126   4.435  18.756  0.00  0.00    +0.000 A 
ATOM     21  C   UNL     1       3.138   3.330  17.894  0.00  0.00    +0.000 A 
ATOM     22  C   UNL     1       2.130   2.367  17.957  0.00  0.00    +0.000 A 
ATOM     23  C   UNL     1       1.098   2.501  18.878  0.00  0.00    +0.000 A 
ATOM     24  C   UNL     1       1.058   3.615  19.714  0.00  0.00    +0.000 A 
ATOM     25  C   UNL     1       2.055   4.606  19.649  0.00  0.00    +0.000 A 
BRANCH  20  27
ATOM     26  C   UNL     1       4.389   5.982  17.484  0.00  0.00    +0.000 C 
ATOM     27  O   UNL     1       4.100   5.401  18.754  0.00  0.00    +0.000 OA
ENDBRANCH  20  27
ENDBRANCH  19  25
ENDBRANCH  15  19
ENDBRANCH   1  16
TORSDOF 5
ENDMDL
MODEL 7
REMARK VINA RESULT:      -7.5      2.734      4.388
REMARK  Name = 
REMARK  8 active torsions:
REMARK  status: ('A' for Active; 'I' for Inactive)
REMARK    1  A    between atoms: C_1  and  O_2
REMARK    2  A    between atoms: O_2  and  C_3
REMARK    3  A    between atoms: C_8  and  C_9
REMARK    4  A    between atoms: C_9  and  N_10
REMARK    5  A    between atoms: C_11  and  C_13
REMARK    6  A    between atoms: C_13  and  N_14
REMARK    7  A    between atoms: N_14  and  C_15
REMARK    8  A    between atoms: C_22  and  C_23
REMARK                            x       y       z     vdW  Elec       q    Type
REMARK                         _______ _______ _______ _____ _____    ______ ____
ROOT
ATOM      1  C   UNL     1       7.610   6.411  18.672  0.00  0.00    +0.000 C 
ENDROOT
BRANCH   1   2
ATOM      2  N   UNL     1       6.984   5.348  17.876  0.00  0.00    +0.000 N 
ATOM      3  C   UNL     1       7.824   4.741  16.850  0.00  0.00    +0.000 C 
ATOM      4  C   UNL     1       5.742   4.861  18.227  0.00  0.00    +0.000 A 
ATOM      5  N   UNL     1       5.011   5.298  19.210  0.00  0.00    +0.000 NA
ATOM      6  N   UNL     1       3.803   4.638  19.218  0.00  0.00    +0.000 N 
ATOM      7  C   UNL     1       2.810   4.927  20.129  0.00  0.00    +0.000 A 
ATOM      8  O   UNL     1       2.876   5.726  21.059  0.00  0.00    +0.000 OA
ATOM      9  C   UNL     1       1.557   4.163  19.906  0.00  0.00    +0.000 A 
ATOM     10  C   UNL     1       1.491   3.278  18.899  0.00  0.00    +0.000 A 
ATOM     11  C   UNL     1       0.245   2.486  18.618  0.00  0.00    +0.000 C 
ATOM     12  N   UNL     1       2.533   3.021  18.040  0.00  0.00    +0.000 NA
ATOM     13  C   UNL     1       3.606   3.706  18.241  0.00  0.00    +0.000 A 
ATOM     14  S   UNL     1       5.022   3.567  17.271  0.00  0.00    +0.000 S 
ENDBRANCH   1   2
BRANCH   1  16
ATOM     15  N   UNL     1       8.408   8.720  18.539  0.00  0.00    +0.000 N 
ATOM     16  C   UNL     1       7.674   7.736  17.912  0.00  0.00    +0.000 C 
ATOM     17  O   UNL     1       7.091   7.895  16.842  0.00  0.00    +0.000 OA
ATOM     18  H   UNL     1       9.034   8.460  19.296  0.00  0.00    +0.000 HD
BRANCH  15  19
ATOM     19  C   UNL     1       8.533  10.059  18.006  0.00  0.00    +0.000 C 
BRANCH  19  25
ATOM     20  C   UNL     1       9.878  11.087  19.922  0.00  0.00    +0.000 A 
ATOM     21  C   UNL     1      10.970  11.854  20.351  0.00  0.00    +0.000 A 
ATOM     22  C   UNL     1      11.938  12.284  19.444  0.00  0.00    +0.000 A 
ATOM     23  C   UNL     1      11.824  11.957  18.098  0.00  0.00    +0.000 A 
ATOM     24  C   UNL     1      10.723  11.226  17.656  0.00  0.00    +0.000 A 
ATOM     25  C   UNL     1       9.726  10.802  18.554  0.00  0.00    +0.000 A 
BRANCH  20  27
ATOM     26  C   UNL     1       8.613  11.453  21.890  0.00  0.00    +0.000 C 
ATOM     27  O   UNL     1       8.907  10.619  20.770  0.00  0.00    +0.000 OA
ENDBRANCH  20  27
ENDBRANCH  19  25
ENDBRANCH  15  19
ENDBRANCH   1  16
TORSDOF 5
ENDMDL
MODEL 8
REMARK VINA RESULT:      -7.5      8.236     10.515
REMARK  Name = 
REMARK  8 active torsions:
REMARK  status: ('A' for Active; 'I' for Inactive)
REMARK    1  A    between atoms: C_1  and  O_2
REMARK    2  A    between atoms: O_2  and  C_3
REMARK    3  A    between atoms: C_8  and  C_9
REMARK    4  A    between atoms: C_9  and  N_10
REMARK    5  A    between atoms: C_11  and  C_13
REMARK    6  A    between atoms: C_13  and  N_14
REMARK    7  A    between atoms: N_14  and  C_15
REMARK    8  A    between atoms: C_22  and  C_23
REMARK                            x       y       z     vdW  Elec       q    Type
REMARK                         _______ _______ _______ _____ _____    ______ ____
ROOT
ATOM      1  C   UNL     1       1.568   9.988  18.544  0.00  0.00    +0.000 C 
ENDROOT
BRANCH   1   2
ATOM      2  N   UNL     1       0.574  10.711  19.347  0.00  0.00    +0.000 N 
ATOM      3  C   UNL     1       1.051  11.258  20.611  0.00  0.00    +0.000 C 
ATOM      4  C   UNL     1      -0.670  10.990  18.820  0.00  0.00    +0.000 A 
ATOM      5  N   UNL     1      -1.093  10.620  17.647  0.00  0.00    +0.000 NA
ATOM      6  N   UNL     1      -2.405  11.001  17.486  0.00  0.00    +0.000 N 
ATOM      7  C   UNL     1      -3.126  10.703  16.350  0.00  0.00    +0.000 A 
ATOM      8  O   UNL     1      -2.709  10.142  15.341  0.00  0.00    +0.000 OA
ATOM      9  C   UNL     1      -4.548  11.127  16.418  0.00  0.00    +0.000 A 
ATOM     10  C   UNL     1      -5.000  11.755  17.516  0.00  0.00    +0.000 A 
ATOM     11  C   UNL     1      -6.431  12.196  17.646  0.00  0.00    +0.000 C 
ATOM     12  N   UNL     1      -4.215  12.043  18.607  0.00  0.00    +0.000 NA
ATOM     13  C   UNL     1      -2.989  11.652  18.534  0.00  0.00    +0.000 A 
ATOM     14  S   UNL     1      -1.838  11.883  19.794  0.00  0.00    +0.000 S 
ENDBRANCH   1   2
BRANCH   1  16
ATOM     15  N   UNL     1       2.502   7.749  18.221  0.00  0.00    +0.000 N 
ATOM     16  C   UNL     1       1.838   8.586  19.093  0.00  0.00    +0.000 C 
ATOM     17  O   UNL     1       1.463   8.248  20.213  0.00  0.00    +0.000 OA
ATOM     18  H   UNL     1       2.969   8.152  17.413  0.00  0.00    +0.000 HD
BRANCH  15  19
ATOM     19  C   UNL     1       2.793   6.368  18.535  0.00  0.00    +0.000 C 
BRANCH  19  25
ATOM     20  C   UNL     1       3.936   4.344  17.471  0.00  0.00    +0.000 A 
ATOM     21  C   UNL     1       4.913   3.828  16.609  0.00  0.00    +0.000 A 
ATOM     22  C   UNL     1       5.670   4.676  15.802  0.00  0.00    +0.000 A 
ATOM     23  C   UNL     1       5.463   6.049  15.851  0.00  0.00    +0.000 A 
ATOM     24  C   UNL     1       4.519   6.575  16.731  0.00  0.00    +0.000 A 
ATOM     25  C   UNL     1       3.761   5.735  17.567  0.00  0.00    +0.000 A 
BRANCH  20  27
ATOM     26  C   UNL     1       3.841   2.777  19.244  0.00  0.00    +0.000 C 
ATOM     27  O   UNL     1       3.147   3.557  18.273  0.00  0.00    +0.000 OA
ENDBRANCH  20  27
ENDBRANCH  19  25
ENDBRANCH  15  19
ENDBRANCH   1  16
TORSDOF 5
ENDMDL
MODEL 9
REMARK VINA RESULT:      -7.5      2.732      4.479
REMARK  Name = 
REMARK  8 active torsions:
REMARK  status: ('A' for Active; 'I' for Inactive)
REMARK    1  A    between atoms: C_1  and  O_2
REMARK    2  A    between atoms: O_2  and  C_3
REMARK    3  A    between atoms: C_8  and  C_9
REMARK    4  A    between atoms: C_9  and  N_10
REMARK    5  A    between atoms: C_11  and  C_13
REMARK    6  A    between atoms: C_13  and  N_14
REMARK    7  A    between atoms: N_14  and  C_15
REMARK    8  A    between atoms: C_22  and  C_23
REMARK                            x       y       z     vdW  Elec       q    Type
REMARK                         _______ _______ _______ _____ _____    ______ ____
ROOT
ATOM      1  C   UNL     1       6.836   7.440  16.738  0.00  0.00    +0.000 C 
ENDROOT
BRANCH   1   2
ATOM      2  N   UNL     1       6.447   6.029  16.619  0.00  0.00    +0.000 N 
ATOM      3  C   UNL     1       7.359   5.179  15.862  0.00  0.00    +0.000 C 
ATOM      4  C   UNL     1       5.379   5.542  17.342  0.00  0.00    +0.000 A 
ATOM      5  N   UNL     1       4.612   6.247  18.121  0.00  0.00    +0.000 NA
ATOM      6  N   UNL     1       3.601   5.454  18.616  0.00  0.00    +0.000 N 
ATOM      7  C   UNL     1       2.612   5.948  19.440  0.00  0.00    +0.000 A 
ATOM      8  O   UNL     1       2.528   7.089  19.884  0.00  0.00    +0.000 OA
ATOM      9  C   UNL     1       1.572   4.947  19.787  0.00  0.00    +0.000 A 
ATOM     10  C   UNL     1       1.673   3.695  19.314  0.00  0.00    +0.000 A 
ATOM     11  C   UNL     1       0.644   2.643  19.622  0.00  0.00    +0.000 C 
ATOM     12  N   UNL     1       2.704   3.262  18.513  0.00  0.00    +0.000 NA
ATOM     13  C   UNL     1       3.588   4.151  18.211  0.00  0.00    +0.000 A 
ATOM     14  S   UNL     1       4.947   3.838  17.202  0.00  0.00    +0.000 S 
ENDBRANCH   1   2
BRANCH   1  16
ATOM     15  N   UNL     1       8.209   8.978  18.057  0.00  0.00    +0.000 N 
ATOM     16  C   UNL     1       7.762   7.680  17.932  0.00  0.00    +0.000 C 
ATOM     17  O   UNL     1       8.088   6.769  18.690  0.00  0.00    +0.000 OA
ATOM     18  H   UNL     1       7.736   9.712  17.537  0.00  0.00    +0.000 HD
BRANCH  15  19
ATOM     19  C   UNL     1       9.141   9.387  19.084  0.00  0.00    +0.000 C 
BRANCH  19  25
ATOM     20  C   UNL     1       9.367  11.729  20.083  0.00  0.00    +0.000 A 
ATOM     21  C   UNL     1       9.650  13.091  19.908  0.00  0.00    +0.000 A 
ATOM     22  C   UNL     1      10.129  13.567  18.688  0.00  0.00    +0.000 A 
ATOM     23  C   UNL     1      10.326  12.690  17.629  0.00  0.00    +0.000 A 
ATOM     24  C   UNL     1      10.014  11.341  17.781  0.00  0.00    +0.000 A 
ATOM     25  C   UNL     1       9.509  10.847  18.998  0.00  0.00    +0.000 A 
BRANCH  20  27
ATOM     26  C   UNL     1       8.602  12.147  22.284  0.00  0.00    +0.000 C 
ATOM     27  O   UNL     1       8.914  11.199  21.265  0.00  0.00    +0.000 OA
ENDBRANCH  20  27
ENDBRANCH  19  25
ENDBRANCH  15  19
ENDBRANCH   1  16
TORSDOF 5
ENDMDL
