MODEL 1
REMARK VINA RESULT:      -7.6      0.000      0.000
REMARK  Name = 
REMARK  5 active torsions:
REMARK  status: ('A' for Active; 'I' for Inactive)
REMARK    1  A    between atoms: C_1  and  O_2
REMARK    2  A    between atoms: O_2  and  C_3
REMARK    3  A    between atoms: C_6  and  N_7
REMARK    4  A    between atoms: N_7  and  C_8
REMARK    5  A    between atoms: N_7  and  C_9
REMARK                            x       y       z     vdW  Elec       q    Type
REMARK                         _______ _______ _______ _____ _____    ______ ____
ROOT
ATOM      1  C   UNL     1       4.541   5.259  18.141  0.00  0.00    +0.000 C 
ATOM      2  C   UNL     1       5.263   5.353  19.268  0.00  0.00    +0.000 C 
ATOM      3  C   UNL     1       6.707   5.077  19.314  0.00  0.00    +0.000 C 
ATOM      4  O   UNL     1       7.322   5.144  20.365  0.00  0.00    +0.000 OA
ATOM      5  C   UNL     1       7.397   4.700  18.013  0.00  0.00    +0.000 C 
ATOM      6  O   UNL     1       8.604   4.509  17.982  0.00  0.00    +0.000 OA
ATOM      7  C   UNL     1       6.564   4.575  16.803  0.00  0.00    +0.000 A 
ATOM      8  C   UNL     1       7.176   4.199  15.597  0.00  0.00    +0.000 A 
ATOM      9  C   UNL     1       6.422   4.093  14.432  0.00  0.00    +0.000 A 
ATOM     10  C   UNL     1       5.058   4.362  14.470  0.00  0.00    +0.000 A 
ATOM     11  C   UNL     1       4.449   4.726  15.675  0.00  0.00    +0.000 A 
ATOM     12  C   UNL     1       5.189   4.842  16.867  0.00  0.00    +0.000 A 
ENDROOT
BRANCH   1  13
ATOM     13  N   UNL     1       3.165   5.525  18.125  0.00  0.00    +0.000 N 
ATOM     14  C   UNL     1       2.224   4.395  18.089  0.00  0.00    +0.000 C 
BRANCH  13  18
ATOM     15  C   UNL     1       1.542   9.344  19.117  0.00  0.00    +0.000 A 
ATOM     16  C   UNL     1       2.099   9.101  17.866  0.00  0.00    +0.000 A 
ATOM     17  C   UNL     1       2.655   7.852  17.573  0.00  0.00    +0.000 A 
ATOM     18  C   UNL     1       2.664   6.797  18.504  0.00  0.00    +0.000 A 
ATOM     19  C   UNL     1       2.148   7.076  19.777  0.00  0.00    +0.000 A 
ATOM     20  C   UNL     1       1.602   8.332  20.083  0.00  0.00    +0.000 A 
ATOM     21 CL   UNL     1       0.979   8.578  21.678  0.00  0.00    +0.000 Cl
BRANCH  15  23
ATOM     22  C   UNL     1      -0.358  10.746  18.991  0.00  0.00    +0.000 C 
ATOM     23  O   UNL     1       0.970  10.539  19.466  0.00  0.00    +0.000 OA
ENDBRANCH  15  23
ENDBRANCH  13  18
ENDBRANCH   1  13
TORSDOF 3
ENDMDL
MODEL 2
REMARK VINA RESULT:      -7.5      3.523      6.730
REMARK  Name = 
REMARK  5 active torsions:
REMARK  status: ('A' for Active; 'I' for Inactive)
REMARK    1  A    between atoms: C_1  and  O_2
REMARK    2  A    between atoms: O_2  and  C_3
REMARK    3  A    between atoms: C_6  and  N_7
REMARK    4  A    between atoms: N_7  and  C_8
REMARK    5  A    between atoms: N_7  and  C_9
REMARK                            x       y       z     vdW  Elec       q    Type
REMARK                         _______ _______ _______ _____ _____    ______ ____
ROOT
ATOM      1  C   UNL     1       5.166   4.800  18.373  0.00  0.00    +0.000 C 
ATOM      2  C   UNL     1       4.958   3.715  19.136  0.00  0.00    +0.000 C 
ATOM      3  C   UNL     1       3.742   3.528  19.939  0.00  0.00    +0.000 C 
ATOM      4  O   UNL     1       3.604   2.541  20.643  0.00  0.00    +0.000 OA
ATOM      5  C   UNL     1       2.672   4.606  19.865  0.00  0.00    +0.000 C 
ATOM      6  O   UNL     1       1.619   4.478  20.472  0.00  0.00    +0.000 OA
ATOM      7  C   UNL     1       2.951   5.797  19.043  0.00  0.00    +0.000 A 
ATOM      8  C   UNL     1       1.989   6.818  18.984  0.00  0.00    +0.000 A 
ATOM      9  C   UNL     1       2.211   7.946  18.201  0.00  0.00    +0.000 A 
ATOM     10  C   UNL     1       3.393   8.056  17.475  0.00  0.00    +0.000 A 
ATOM     11  C   UNL     1       4.354   7.042  17.543  0.00  0.00    +0.000 A 
ATOM     12  C   UNL     1       4.153   5.891  18.328  0.00  0.00    +0.000 A 
ENDROOT
BRANCH   1  13
ATOM     13  N   UNL     1       6.337   4.956  17.619  0.00  0.00    +0.000 N 
ATOM     14  C   UNL     1       7.619   5.111  18.323  0.00  0.00    +0.000 C 
BRANCH  13  18
ATOM     15  C   UNL     1       6.254   3.957  13.471  0.00  0.00    +0.000 A 
ATOM     16  C   UNL     1       5.405   3.334  14.380  0.00  0.00    +0.000 A 
ATOM     17  C   UNL     1       5.471   3.653  15.740  0.00  0.00    +0.000 A 
ATOM     18  C   UNL     1       6.370   4.611  16.244  0.00  0.00    +0.000 A 
ATOM     19  C   UNL     1       7.256   5.188  15.323  0.00  0.00    +0.000 A 
ATOM     20  C   UNL     1       7.205   4.862  13.960  0.00  0.00    +0.000 A 
ATOM     21 CL   UNL     1       8.332   5.635  12.899  0.00  0.00    +0.000 Cl
BRANCH  15  23
ATOM     22  C   UNL     1       5.104   2.967  11.658  0.00  0.00    +0.000 C 
ATOM     23  O   UNL     1       6.233   3.701  12.126  0.00  0.00    +0.000 OA
ENDBRANCH  15  23
ENDBRANCH  13  18
ENDBRANCH   1  13
TORSDOF 3
ENDMDL
MODEL 3
REMARK VINA RESULT:      -7.1      1.197      1.612
REMARK  Name = 
REMARK  5 active torsions:
REMARK  status: ('A' for Active; 'I' for Inactive)
REMARK    1  A    between atoms: C_1  and  O_2
REMARK    2  A    between atoms: O_2  and  C_3
REMARK    3  A    between atoms: C_6  and  N_7
REMARK    4  A    between atoms: N_7  and  C_8
REMARK    5  A    between atoms: N_7  and  C_9
REMARK                            x       y       z     vdW  Elec       q    Type
REMARK                         _______ _______ _______ _____ _____    ______ ____
ROOT
ATOM      1  C   UNL     1       4.558   5.025  18.218  0.00  0.00    +0.000 C 
ATOM      2  C   UNL     1       5.319   5.174  19.314  0.00  0.00    +0.000 C 
ATOM      3  C   UNL     1       6.783   5.043  19.292  0.00  0.00    +0.000 C 
ATOM      4  O   UNL     1       7.436   5.156  20.316  0.00  0.00    +0.000 OA
ATOM      5  C   UNL     1       7.447   4.757  17.954  0.00  0.00    +0.000 C 
ATOM      6  O   UNL     1       8.664   4.688  17.866  0.00  0.00    +0.000 OA
ATOM      7  C   UNL     1       6.576   4.567  16.780  0.00  0.00    +0.000 A 
ATOM      8  C   UNL     1       7.166   4.272  15.541  0.00  0.00    +0.000 A 
ATOM      9  C   UNL     1       6.374   4.109  14.408  0.00  0.00    +0.000 A 
ATOM     10  C   UNL     1       4.993   4.239  14.512  0.00  0.00    +0.000 A 
ATOM     11  C   UNL     1       4.407   4.522  15.750  0.00  0.00    +0.000 A 
ATOM     12  C   UNL     1       5.186   4.694  16.909  0.00  0.00    +0.000 A 
ENDROOT
BRANCH   1  13
ATOM     13  N   UNL     1       3.163   5.152  18.269  0.00  0.00    +0.000 N 
ATOM     14  C   UNL     1       2.335   3.948  18.108  0.00  0.00    +0.000 C 
BRANCH  13  18
ATOM     15  C   UNL     1       1.449   8.616  20.076  0.00  0.00    +0.000 A 
ATOM     16  C   UNL     1       1.468   7.394  20.738  0.00  0.00    +0.000 A 
ATOM     17  C   UNL     1       2.005   6.263  20.115  0.00  0.00    +0.000 A 
ATOM     18  C   UNL     1       2.556   6.309  18.820  0.00  0.00    +0.000 A 
ATOM     19  C   UNL     1       2.479   7.536  18.147  0.00  0.00    +0.000 A 
ATOM     20  C   UNL     1       1.928   8.671  18.761  0.00  0.00    +0.000 A 
ATOM     21 CL   UNL     1       1.886  10.144  17.853  0.00  0.00    +0.000 Cl
BRANCH  15  23
ATOM     22  C   UNL     1       0.721   9.715  22.038  0.00  0.00    +0.000 C 
ATOM     23  O   UNL     1       0.950   9.764  20.633  0.00  0.00    +0.000 OA
ENDBRANCH  15  23
ENDBRANCH  13  18
ENDBRANCH   1  13
TORSDOF 3
ENDMDL
MODEL 4
REMARK VINA RESULT:      -7.0      1.944      3.335
REMARK  Name = 
REMARK  5 active torsions:
REMARK  status: ('A' for Active; 'I' for Inactive)
REMARK    1  A    between atoms: C_1  and  O_2
REMARK    2  A    between atoms: O_2  and  C_3
REMARK    3  A    between atoms: C_6  and  N_7
REMARK    4  A    between atoms: N_7  and  C_8
REMARK    5  A    between atoms: N_7  and  C_9
REMARK                            x       y       z     vdW  Elec       q    Type
REMARK                         _______ _______ _______ _____ _____    ______ ____
ROOT
ATOM      1  C   UNL     1       4.293   4.425  17.118  0.00  0.00    +0.000 C 
ATOM      2  C   UNL     1       4.265   4.203  15.795  0.00  0.00    +0.000 C 
ATOM      3  C   UNL     1       5.455   4.332  14.940  0.00  0.00    +0.000 C 
ATOM      4  O   UNL     1       5.382   4.151  13.736  0.00  0.00    +0.000 OA
ATOM      5  C   UNL     1       6.768   4.705  15.608  0.00  0.00    +0.000 C 
ATOM      6  O   UNL     1       7.799   4.777  14.956  0.00  0.00    +0.000 OA
ATOM      7  C   UNL     1       6.752   4.974  17.058  0.00  0.00    +0.000 A 
ATOM      8  C   UNL     1       7.948   5.348  17.690  0.00  0.00    +0.000 A 
ATOM      9  C   UNL     1       7.972   5.587  19.060  0.00  0.00    +0.000 A 
ATOM     10  C   UNL     1       6.802   5.453  19.801  0.00  0.00    +0.000 A 
ATOM     11  C   UNL     1       5.609   5.090  19.167  0.00  0.00    +0.000 A 
ATOM     12  C   UNL     1       5.559   4.841  17.783  0.00  0.00    +0.000 A 
ENDROOT
BRANCH   1  13
ATOM     13  N   UNL     1       3.143   4.298  17.910  0.00  0.00    +0.000 N 
ATOM     14  C   UNL     1       2.687   2.953  18.289  0.00  0.00    +0.000 C 
BRANCH  13  18
ATOM     15  C   UNL     1       1.738   7.587  20.237  0.00  0.00    +0.000 A 
ATOM     16  C   UNL     1       1.763   6.297  20.755  0.00  0.00    +0.000 A 
ATOM     17  C   UNL     1       2.196   5.228  19.964  0.00  0.00    +0.000 A 
ATOM     18  C   UNL     1       2.635   5.404  18.639  0.00  0.00    +0.000 A 
ATOM     19  C   UNL     1       2.552   6.701  18.115  0.00  0.00    +0.000 A 
ATOM     20  C   UNL     1       2.103   7.776  18.898  0.00  0.00    +0.000 A 
ATOM     21 CL   UNL     1       2.047   9.343  18.167  0.00  0.00    +0.000 Cl
BRANCH  15  23
ATOM     22  C   UNL     1      -0.049   8.725  21.285  0.00  0.00    +0.000 C 
ATOM     23  O   UNL     1       1.337   8.679  20.960  0.00  0.00    +0.000 OA
ENDBRANCH  15  23
ENDBRANCH  13  18
ENDBRANCH   1  13
TORSDOF 3
ENDMDL
MODEL 5
REMARK VINA RESULT:      -7.0      5.315      8.020
REMARK  Name = 
REMARK  5 active torsions:
REMARK  status: ('A' for Active; 'I' for Inactive)
REMARK    1  A    between atoms: C_1  and  O_2
REMARK    2  A    between atoms: O_2  and  C_3
REMARK    3  A    between atoms: C_6  and  N_7
REMARK    4  A    between atoms: N_7  and  C_8
REMARK    5  A    between atoms: N_7  and  C_9
REMARK                            x       y       z     vdW  Elec       q    Type
REMARK                         _______ _______ _______ _____ _____    ______ ____
ROOT
ATOM      1  C   UNL     1       0.214  10.669  19.075  0.00  0.00    +0.000 C 
ATOM      2  C   UNL     1       0.936   9.996  18.165  0.00  0.00    +0.000 C 
ATOM      3  C   UNL     1       1.729   8.805  18.501  0.00  0.00    +0.000 C 
ATOM      4  O   UNL     1       2.397   8.239  17.652  0.00  0.00    +0.000 OA
ATOM      5  C   UNL     1       1.693   8.314  19.940  0.00  0.00    +0.000 C 
ATOM      6  O   UNL     1       2.292   7.299  20.265  0.00  0.00    +0.000 OA
ATOM      7  C   UNL     1       0.916   9.099  20.916  0.00  0.00    +0.000 A 
ATOM      8  C   UNL     1       0.892   8.679  22.256  0.00  0.00    +0.000 A 
ATOM      9  C   UNL     1       0.151   9.385  23.198  0.00  0.00    +0.000 A 
ATOM     10  C   UNL     1      -0.568  10.509  22.804  0.00  0.00    +0.000 A 
ATOM     11  C   UNL     1      -0.535  10.931  21.471  0.00  0.00    +0.000 A 
ATOM     12  C   UNL     1       0.207  10.234  20.499  0.00  0.00    +0.000 A 
ENDROOT
BRANCH   1  13
ATOM     13  N   UNL     1      -0.531  11.805  18.728  0.00  0.00    +0.000 N 
ATOM     14  C   UNL     1       0.181  13.049  18.400  0.00  0.00    +0.000 C 
BRANCH  13  18
ATOM     15  C   UNL     1      -4.642  11.651  17.593  0.00  0.00    +0.000 A 
ATOM     16  C   UNL     1      -4.259  12.097  18.853  0.00  0.00    +0.000 A 
ATOM     17  C   UNL     1      -2.908  12.109  19.217  0.00  0.00    +0.000 A 
ATOM     18  C   UNL     1      -1.891  11.693  18.338  0.00  0.00    +0.000 A 
ATOM     19  C   UNL     1      -2.298  11.195  17.093  0.00  0.00    +0.000 A 
ATOM     20  C   UNL     1      -3.652  11.166  16.728  0.00  0.00    +0.000 A 
ATOM     21 CL   UNL     1      -4.057  10.543  15.165  0.00  0.00    +0.000 Cl
BRANCH  15  23
ATOM     22  C   UNL     1      -6.914  11.364  18.180  0.00  0.00    +0.000 C 
ATOM     23  O   UNL     1      -5.944  11.625  17.169  0.00  0.00    +0.000 OA
ENDBRANCH  15  23
ENDBRANCH  13  18
ENDBRANCH   1  13
TORSDOF 3
ENDMDL
MODEL 6
REMARK VINA RESULT:      -7.0      3.643      6.720
REMARK  Name = 
REMARK  5 active torsions:
REMARK  status: ('A' for Active; 'I' for Inactive)
REMARK    1  A    between atoms: C_1  and  O_2
REMARK    2  A    between atoms: O_2  and  C_3
REMARK    3  A    between atoms: C_6  and  N_7
REMARK    4  A    between atoms: N_7  and  C_8
REMARK    5  A    between atoms: N_7  and  C_9
REMARK                            x       y       z     vdW  Elec       q    Type
REMARK                         _______ _______ _______ _____ _____    ______ ____
ROOT
ATOM      1  C   UNL     1       5.084   4.769  18.549  0.00  0.00    +0.000 C 
ATOM      2  C   UNL     1       5.379   3.538  18.995  0.00  0.00    +0.000 C 
ATOM      3  C   UNL     1       4.549   2.828  19.979  0.00  0.00    +0.000 C 
ATOM      4  O   UNL     1       4.867   1.722  20.383  0.00  0.00    +0.000 OA
ATOM      5  C   UNL     1       3.292   3.524  20.478  0.00  0.00    +0.000 C 
ATOM      6  O   UNL     1       2.538   2.961  21.258  0.00  0.00    +0.000 OA
ATOM      7  C   UNL     1       3.021   4.888  19.990  0.00  0.00    +0.000 A 
ATOM      8  C   UNL     1       1.881   5.560  20.460  0.00  0.00    +0.000 A 
ATOM      9  C   UNL     1       1.584   6.840  20.003  0.00  0.00    +0.000 A 
ATOM     10  C   UNL     1       2.424   7.450  19.077  0.00  0.00    +0.000 A 
ATOM     11  C   UNL     1       3.564   6.783  18.618  0.00  0.00    +0.000 A 
ATOM     12  C   UNL     1       3.886   5.487  19.064  0.00  0.00    +0.000 A 
ENDROOT
BRANCH   1  13
ATOM     13  N   UNL     1       5.895   5.425  17.612  0.00  0.00    +0.000 N 
ATOM     14  C   UNL     1       6.905   6.380  18.092  0.00  0.00    +0.000 C 
BRANCH  13  18
ATOM     15  C   UNL     1       6.085   4.007  13.592  0.00  0.00    +0.000 A 
ATOM     16  C   UNL     1       5.123   3.534  14.478  0.00  0.00    +0.000 A 
ATOM     17  C   UNL     1       5.098   3.988  15.800  0.00  0.00    +0.000 A 
ATOM     18  C   UNL     1       6.017   4.937  16.286  0.00  0.00    +0.000 A 
ATOM     19  C   UNL     1       7.013   5.361  15.396  0.00  0.00    +0.000 A 
ATOM     20  C   UNL     1       7.053   4.899  14.072  0.00  0.00    +0.000 A 
ATOM     21 CL   UNL     1       8.314   5.489  13.044  0.00  0.00    +0.000 Cl
BRANCH  15  23
ATOM     22  C   UNL     1       4.953   3.090  11.730  0.00  0.00    +0.000 C 
ATOM     23  O   UNL     1       6.158   3.614  12.281  0.00  0.00    +0.000 OA
ENDBRANCH  15  23
ENDBRANCH  13  18
ENDBRANCH   1  13
TORSDOF 3
ENDMDL
MODEL 7
REMARK VINA RESULT:      -6.9      5.617      8.310
REMARK  Name = 
REMARK  5 active torsions:
REMARK  status: ('A' for Active; 'I' for Inactive)
REMARK    1  A    between atoms: C_1  and  O_2
REMARK    2  A    between atoms: O_2  and  C_3
REMARK    3  A    between atoms: C_6  and  N_7
REMARK    4  A    between atoms: N_7  and  C_8
REMARK    5  A    between atoms: N_7  and  C_9
REMARK                            x       y       z     vdW  Elec       q    Type
REMARK                         _______ _______ _______ _____ _____    ______ ____
ROOT
ATOM      1  C   UNL     1      -0.235  10.991  19.201  0.00  0.00    +0.000 C 
ATOM      2  C   UNL     1       0.470  10.441  18.200  0.00  0.00    +0.000 C 
ATOM      3  C   UNL     1       1.376   9.300  18.397  0.00  0.00    +0.000 C 
ATOM      4  O   UNL     1       2.023   8.847  17.467  0.00  0.00    +0.000 OA
ATOM      5  C   UNL     1       1.480   8.713  19.796  0.00  0.00    +0.000 C 
ATOM      6  O   UNL     1       2.178   7.733  20.009  0.00  0.00    +0.000 OA
ATOM      7  C   UNL     1       0.716   9.366  20.875  0.00  0.00    +0.000 A 
ATOM      8  C   UNL     1       0.820   8.858  22.180  0.00  0.00    +0.000 A 
ATOM      9  C   UNL     1       0.096   9.437  23.217  0.00  0.00    +0.000 A 
ATOM     10  C   UNL     1      -0.734  10.522  22.952  0.00  0.00    +0.000 A 
ATOM     11  C   UNL     1      -0.829  11.032  21.654  0.00  0.00    +0.000 A 
ATOM     12  C   UNL     1      -0.107  10.464  20.587  0.00  0.00    +0.000 A 
ENDROOT
BRANCH   1  13
ATOM     13  N   UNL     1      -1.089  12.082  18.986  0.00  0.00    +0.000 N 
ATOM     14  C   UNL     1      -0.510  13.363  18.555  0.00  0.00    +0.000 C 
BRANCH  13  18
ATOM     15  C   UNL     1      -5.260  11.329  18.493  0.00  0.00    +0.000 A 
ATOM     16  C   UNL     1      -4.321  10.781  17.625  0.00  0.00    +0.000 A 
ATOM     17  C   UNL     1      -2.962  11.067  17.784  0.00  0.00    +0.000 A 
ATOM     18  C   UNL     1      -2.485  11.893  18.819  0.00  0.00    +0.000 A 
ATOM     19  C   UNL     1      -3.448  12.480  19.651  0.00  0.00    +0.000 A 
ATOM     20  C   UNL     1      -4.815  12.209  19.487  0.00  0.00    +0.000 A 
ATOM     21 CL   UNL     1      -5.928  12.973  20.570  0.00  0.00    +0.000 Cl
BRANCH  15  23
ATOM     22  C   UNL     1      -7.060   9.914  19.082  0.00  0.00    +0.000 C 
ATOM     23  O   UNL     1      -6.604  11.080  18.401  0.00  0.00    +0.000 OA
ENDBRANCH  15  23
ENDBRANCH  13  18
ENDBRANCH   1  13
TORSDOF 3
ENDMDL
MODEL 8
REMARK VINA RESULT:      -6.8      3.534      6.809
REMARK  Name = 
REMARK  5 active torsions:
REMARK  status: ('A' for Active; 'I' for Inactive)
REMARK    1  A    between atoms: C_1  and  O_2
REMARK    2  A    between atoms: O_2  and  C_3
REMARK    3  A    between atoms: C_6  and  N_7
REMARK    4  A    between atoms: N_7  and  C_8
REMARK    5  A    between atoms: N_7  and  C_9
REMARK                            x       y       z     vdW  Elec       q    Type
REMARK                         _______ _______ _______ _____ _____    ______ ____
ROOT
ATOM      1  C   UNL     1       4.804   5.631  18.340  0.00  0.00    +0.000 C 
ATOM      2  C   UNL     1       4.139   6.783  18.157  0.00  0.00    +0.000 C 
ATOM      3  C   UNL     1       2.845   7.065  18.795  0.00  0.00    +0.000 C 
ATOM      4  O   UNL     1       2.257   8.112  18.579  0.00  0.00    +0.000 OA
ATOM      5  C   UNL     1       2.267   6.006  19.720  0.00  0.00    +0.000 C 
ATOM      6  O   UNL     1       1.219   6.207  20.317  0.00  0.00    +0.000 OA
ATOM      7  C   UNL     1       3.010   4.741  19.869  0.00  0.00    +0.000 A 
ATOM      8  C   UNL     1       2.479   3.739  20.696  0.00  0.00    +0.000 A 
ATOM      9  C   UNL     1       3.166   2.542  20.876  0.00  0.00    +0.000 A 
ATOM     10  C   UNL     1       4.383   2.346  20.231  0.00  0.00    +0.000 A 
ATOM     11  C   UNL     1       4.904   3.342  19.399  0.00  0.00    +0.000 A 
ATOM     12  C   UNL     1       4.230   4.562  19.202  0.00  0.00    +0.000 A 
ENDROOT
BRANCH   1  13
ATOM     13  N   UNL     1       6.035   5.386  17.717  0.00  0.00    +0.000 N 
ATOM     14  C   UNL     1       7.241   5.264  18.549  0.00  0.00    +0.000 C 
BRANCH  13  18
ATOM     15  C   UNL     1       6.033   3.977  13.689  0.00  0.00    +0.000 A 
ATOM     16  C   UNL     1       5.121   3.494  14.622  0.00  0.00    +0.000 A 
ATOM     17  C   UNL     1       5.160   3.945  15.945  0.00  0.00    +0.000 A 
ATOM     18  C   UNL     1       6.094   4.901  16.385  0.00  0.00    +0.000 A 
ATOM     19  C   UNL     1       7.040   5.336  15.446  0.00  0.00    +0.000 A 
ATOM     20  C   UNL     1       7.016   4.876  14.121  0.00  0.00    +0.000 A 
ATOM     21 CL   UNL     1       8.218   5.479  13.031  0.00  0.00    +0.000 Cl
BRANCH  15  23
ATOM     22  C   UNL     1       4.774   3.231  11.832  0.00  0.00    +0.000 C 
ATOM     23  O   UNL     1       6.042   3.587  12.376  0.00  0.00    +0.000 OA
ENDBRANCH  15  23
ENDBRANCH  13  18
ENDBRANCH   1  13
TORSDOF 3
ENDMDL
MODEL 9
REMARK VINA RESULT:      -6.7      3.985      8.319
REMARK  Name = 
REMARK  5 active torsions:
REMARK  status: ('A' for Active; 'I' for Inactive)
REMARK    1  A    between atoms: C_1  and  O_2
REMARK    2  A    between atoms: O_2  and  C_3
REMARK    3  A    between atoms: C_6  and  N_7
REMARK    4  A    between atoms: N_7  and  C_8
REMARK    5  A    between atoms: N_7  and  C_9
REMARK                            x       y       z     vdW  Elec       q    Type
REMARK                         _______ _______ _______ _____ _____    ______ ____
ROOT
ATOM      1  C   UNL     1       0.448  10.670  19.309  0.00  0.00    +0.000 C 
ATOM      2  C   UNL     1       0.709  11.370  20.424  0.00  0.00    +0.000 C 
ATOM      3  C   UNL     1      -0.304  12.188  21.107  0.00  0.00    +0.000 C 
ATOM      4  O   UNL     1      -0.018  12.833  22.102  0.00  0.00    +0.000 OA
ATOM      5  C   UNL     1      -1.708  12.205  20.525  0.00  0.00    +0.000 C 
ATOM      6  O   UNL     1      -2.603  12.826  21.079  0.00  0.00    +0.000 OA
ATOM      7  C   UNL     1      -1.948  11.451  19.281  0.00  0.00    +0.000 A 
ATOM      8  C   UNL     1      -3.230  11.476  18.711  0.00  0.00    +0.000 A 
ATOM      9  C   UNL     1      -3.496  10.758  17.550  0.00  0.00    +0.000 A 
ATOM     10  C   UNL     1      -2.481  10.014  16.956  0.00  0.00    +0.000 A 
ATOM     11  C   UNL     1      -1.201   9.998  17.520  0.00  0.00    +0.000 A 
ATOM     12  C   UNL     1      -0.908  10.715  18.695  0.00  0.00    +0.000 A 
ENDROOT
BRANCH   1  13
ATOM     13  N   UNL     1       1.434   9.900  18.675  0.00  0.00    +0.000 N 
ATOM     14  C   UNL     1       2.422  10.575  17.821  0.00  0.00    +0.000 C 
BRANCH  13  18
ATOM     15  C   UNL     1       2.123   5.918  20.044  0.00  0.00    +0.000 A 
ATOM     16  C   UNL     1       1.598   6.889  20.890  0.00  0.00    +0.000 A 
ATOM     17  C   UNL     1       1.410   8.197  20.431  0.00  0.00    +0.000 A 
ATOM     18  C   UNL     1       1.722   8.582  19.114  0.00  0.00    +0.000 A 
ATOM     19  C   UNL     1       2.301   7.605  18.292  0.00  0.00    +0.000 A 
ATOM     20  C   UNL     1       2.506   6.295  18.751  0.00  0.00    +0.000 A 
ATOM     21 CL   UNL     1       3.217   5.156  17.660  0.00  0.00    +0.000 Cl
BRANCH  15  23
ATOM     22  C   UNL     1       1.158   3.791  20.415  0.00  0.00    +0.000 C 
ATOM     23  O   UNL     1       2.320   4.617  20.426  0.00  0.00    +0.000 OA
ENDBRANCH  15  23
ENDBRANCH  13  18
ENDBRANCH   1  13
TORSDOF 3
ENDMDL
