MODEL 1
REMARK VINA RESULT:      -7.3      0.000      0.000
REMARK  Name = 
REMARK  4 active torsions:
REMARK  status: ('A' for Active; 'I' for Inactive)
REMARK    1  A    between atoms: C_1  and  C_2
REMARK    2  A    between atoms: C_2  and  C_3
REMARK    3  A    between atoms: C_3  and  O_5
REMARK    4  A    between atoms: C_9  and  C_11
REMARK                            x       y       z     vdW  Elec       q    Type
REMARK                         _______ _______ _______ _____ _____    ______ ____
ROOT
ATOM      1  C   UNL     1       3.248   2.895  20.013  0.00  0.00    +0.000 C 
ATOM      2  C   UNL     1       2.209   3.469  19.040  0.00  0.00    +0.000 C 
ATOM      3  C   UNL     1       2.743   3.484  17.602  0.00  0.00    +0.000 C 
ATOM      4  C   UNL     1       3.540   4.780  17.513  0.00  0.00    +0.000 C 
ATOM      5  N   UNL     1       2.843   5.692  18.397  0.00  0.00    +0.000 N 
ATOM      6  C   UNL     1       2.923   7.076  18.201  0.00  0.00    +0.000 C 
ATOM      7  O   UNL     1       3.608   7.507  17.268  0.00  0.00    +0.000 OA
ATOM      8  C   UNL     1       1.969   4.965  19.309  0.00  0.00    +0.000 C 
ENDROOT
BRANCH   6   9
ATOM      9  C   UNL     1       2.161   7.996  19.046  0.00  0.00    +0.000 A 
ATOM     10  C   UNL     1       1.880   7.822  20.396  0.00  0.00    +0.000 A 
ATOM     11  C   UNL     1       1.100   8.886  20.948  0.00  0.00    +0.000 A 
ATOM     12  C   UNL     1       0.793   9.825  19.986  0.00  0.00    +0.000 A 
ATOM     13  S   UNL     1       1.346   9.380  18.452  0.00  0.00    +0.000 S 
ATOM     14  C   UNL     1      -0.020  11.063  20.199  0.00  0.00    +0.000 C 
ATOM     15  C   UNL     1      -0.226  11.329  21.697  0.00  0.00    +0.000 C 
ATOM     16  C   UNL     1      -0.520  10.037  22.475  0.00  0.00    +0.000 C 
ATOM     17  C   UNL     1       0.643   9.035  22.366  0.00  0.00    +0.000 C 
ENDBRANCH   6   9
BRANCH   2  18
ATOM     18  C   UNL     1       0.888   2.748  19.257  0.00  0.00    +0.000 C 
ATOM     19  O   UNL     1       0.313   2.124  18.377  0.00  0.00    +0.000 OA
BRANCH  18  20
ATOM     20  O   UNL     1       0.338   2.895  20.483  0.00  0.00    +0.000 OA
ATOM     21  H   UNL     1      -0.613   2.717  20.549  0.00  0.00    +0.000 HD
ENDBRANCH  18  20
ENDBRANCH   2  18
TORSDOF 3
ENDMDL
MODEL 2
REMARK VINA RESULT:      -7.2      2.678      4.041
REMARK  Name = 
REMARK  4 active torsions:
REMARK  status: ('A' for Active; 'I' for Inactive)
REMARK    1  A    between atoms: C_1  and  C_2
REMARK    2  A    between atoms: C_2  and  C_3
REMARK    3  A    between atoms: C_3  and  O_5
REMARK    4  A    between atoms: C_9  and  C_11
REMARK                            x       y       z     vdW  Elec       q    Type
REMARK                         _______ _______ _______ _____ _____    ______ ____
ROOT
ATOM      1  C   UNL     1       7.249   6.317  16.769  0.00  0.00    +0.000 C 
ATOM      2  C   UNL     1       6.673   5.720  18.060  0.00  0.00    +0.000 C 
ATOM      3  C   UNL     1       6.221   4.269  17.847  0.00  0.00    +0.000 C 
ATOM      4  C   UNL     1       4.813   4.397  17.278  0.00  0.00    +0.000 C 
ATOM      5  N   UNL     1       4.281   5.595  17.895  0.00  0.00    +0.000 N 
ATOM      6  C   UNL     1       2.901   5.763  18.054  0.00  0.00    +0.000 C 
ATOM      7  O   UNL     1       2.143   4.878  17.648  0.00  0.00    +0.000 OA
ATOM      8  C   UNL     1       5.354   6.413  18.446  0.00  0.00    +0.000 C 
ENDROOT
BRANCH   6   9
ATOM      9  C   UNL     1       2.366   6.938  18.743  0.00  0.00    +0.000 A 
ATOM     10  C   UNL     1       2.020   7.008  20.088  0.00  0.00    +0.000 A 
ATOM     11  C   UNL     1       1.510   8.289  20.468  0.00  0.00    +0.000 A 
ATOM     12  C   UNL     1       1.461   9.144  19.387  0.00  0.00    +0.000 A 
ATOM     13  S   UNL     1       1.924   8.389  17.948  0.00  0.00    +0.000 S 
ATOM     14  C   UNL     1       0.967  10.556  19.410  0.00  0.00    +0.000 C 
ATOM     15  C   UNL     1       0.798  11.051  20.853  0.00  0.00    +0.000 C 
ATOM     16  C   UNL     1       0.183   9.976  21.762  0.00  0.00    +0.000 C 
ATOM     17  C   UNL     1       1.071   8.721  21.834  0.00  0.00    +0.000 C 
ENDBRANCH   6   9
BRANCH   2  18
ATOM     18  C   UNL     1       7.661   5.955  19.190  0.00  0.00    +0.000 C 
ATOM     19  O   UNL     1       7.677   5.289  20.216  0.00  0.00    +0.000 OA
BRANCH  18  20
ATOM     20  O   UNL     1       8.495   7.006  19.027  0.00  0.00    +0.000 OA
ATOM     21  H   UNL     1       8.944   7.068  18.170  0.00  0.00    +0.000 HD
ENDBRANCH  18  20
ENDBRANCH   2  18
TORSDOF 3
ENDMDL
MODEL 3
REMARK VINA RESULT:      -7.0      2.842      4.436
REMARK  Name = 
REMARK  4 active torsions:
REMARK  status: ('A' for Active; 'I' for Inactive)
REMARK    1  A    between atoms: C_1  and  C_2
REMARK    2  A    between atoms: C_2  and  C_3
REMARK    3  A    between atoms: C_3  and  O_5
REMARK    4  A    between atoms: C_9  and  C_11
REMARK                            x       y       z     vdW  Elec       q    Type
REMARK                         _______ _______ _______ _____ _____    ______ ____
ROOT
ATOM      1  C   UNL     1       7.359   6.399  16.572  0.00  0.00    +0.000 C 
ATOM      2  C   UNL     1       6.840   5.736  17.854  0.00  0.00    +0.000 C 
ATOM      3  C   UNL     1       6.490   4.261  17.615  0.00  0.00    +0.000 C 
ATOM      4  C   UNL     1       5.070   4.300  17.061  0.00  0.00    +0.000 C 
ATOM      5  N   UNL     1       4.462   5.445  17.709  0.00  0.00    +0.000 N 
ATOM      6  C   UNL     1       3.074   5.512  17.884  0.00  0.00    +0.000 C 
ATOM      7  O   UNL     1       2.376   4.584  17.466  0.00  0.00    +0.000 OA
ATOM      8  C   UNL     1       5.479   6.326  18.268  0.00  0.00    +0.000 C 
ENDROOT
BRANCH   6   9
ATOM      9  C   UNL     1       2.465   6.631  18.603  0.00  0.00    +0.000 A 
ATOM     10  C   UNL     1       2.185   7.886  18.075  0.00  0.00    +0.000 A 
ATOM     11  C   UNL     1       1.601   8.777  19.029  0.00  0.00    +0.000 A 
ATOM     12  C   UNL     1       1.481   8.173  20.262  0.00  0.00    +0.000 A 
ATOM     13  S   UNL     1       2.142   6.618  20.285  0.00  0.00    +0.000 S 
ATOM     14  C   UNL     1       0.929   8.810  21.498  0.00  0.00    +0.000 C 
ATOM     15  C   UNL     1       0.226  10.133  21.163  0.00  0.00    +0.000 C 
ATOM     16  C   UNL     1       1.006  10.952  20.123  0.00  0.00    +0.000 C 
ATOM     17  C   UNL     1       1.153  10.187  18.796  0.00  0.00    +0.000 C 
ENDBRANCH   6   9
BRANCH   2  18
ATOM     18  C   UNL     1       7.821   6.017  18.980  0.00  0.00    +0.000 C 
ATOM     19  O   UNL     1       8.000   5.254  19.920  0.00  0.00    +0.000 OA
BRANCH  18  20
ATOM     20  O   UNL     1       8.448   7.213  18.923  0.00  0.00    +0.000 OA
ATOM     21  H   UNL     1       7.937   7.980  19.224  0.00  0.00    +0.000 HD
ENDBRANCH  18  20
ENDBRANCH   2  18
TORSDOF 3
ENDMDL
MODEL 4
REMARK VINA RESULT:      -6.9      1.060      1.667
REMARK  Name = 
REMARK  4 active torsions:
REMARK  status: ('A' for Active; 'I' for Inactive)
REMARK    1  A    between atoms: C_1  and  C_2
REMARK    2  A    between atoms: C_2  and  C_3
REMARK    3  A    between atoms: C_3  and  O_5
REMARK    4  A    between atoms: C_9  and  C_11
REMARK                            x       y       z     vdW  Elec       q    Type
REMARK                         _______ _______ _______ _____ _____    ______ ____
ROOT
ATOM      1  C   UNL     1       3.532   3.559  19.973  0.00  0.00    +0.000 C 
ATOM      2  C   UNL     1       2.312   4.041  19.175  0.00  0.00    +0.000 C 
ATOM      3  C   UNL     1       2.666   4.262  17.699  0.00  0.00    +0.000 C 
ATOM      4  C   UNL     1       3.246   5.672  17.662  0.00  0.00    +0.000 C 
ATOM      5  N   UNL     1       2.529   6.384  18.701  0.00  0.00    +0.000 N 
ATOM      6  C   UNL     1       2.380   7.774  18.640  0.00  0.00    +0.000 C 
ATOM      7  O   UNL     1       2.878   8.385  17.691  0.00  0.00    +0.000 OA
ATOM      8  C   UNL     1       1.886   5.452  19.618  0.00  0.00    +0.000 C 
ENDROOT
BRANCH   6   9
ATOM      9  C   UNL     1       1.593   8.486  19.648  0.00  0.00    +0.000 A 
ATOM     10  C   UNL     1       0.871   9.656  19.444  0.00  0.00    +0.000 A 
ATOM     11  C   UNL     1       0.215  10.122  20.626  0.00  0.00    +0.000 A 
ATOM     12  C   UNL     1       0.485   9.300  21.699  0.00  0.00    +0.000 A 
ATOM     13  S   UNL     1       1.571   8.066  21.308  0.00  0.00    +0.000 S 
ATOM     14  C   UNL     1      -0.019   9.490  23.095  0.00  0.00    +0.000 C 
ATOM     15  C   UNL     1      -1.128  10.550  23.135  0.00  0.00    +0.000 C 
ATOM     16  C   UNL     1      -0.809  11.751  22.232  0.00  0.00    +0.000 C 
ATOM     17  C   UNL     1      -0.664  11.328  20.759  0.00  0.00    +0.000 C 
ENDBRANCH   6   9
BRANCH   2  18
ATOM     18  C   UNL     1       1.148   3.104  19.452  0.00  0.00    +0.000 C 
ATOM     19  O   UNL     1       0.811   2.210  18.688  0.00  0.00    +0.000 OA
BRANCH  18  20
ATOM     20  O   UNL     1       0.447   3.360  20.579  0.00  0.00    +0.000 OA
ATOM     21  H   UNL     1      -0.501   3.529  20.464  0.00  0.00    +0.000 HD
ENDBRANCH  18  20
ENDBRANCH   2  18
TORSDOF 3
ENDMDL
MODEL 5
REMARK VINA RESULT:      -6.9      4.083      7.405
REMARK  Name = 
REMARK  4 active torsions:
REMARK  status: ('A' for Active; 'I' for Inactive)
REMARK    1  A    between atoms: C_1  and  C_2
REMARK    2  A    between atoms: C_2  and  C_3
REMARK    3  A    between atoms: C_3  and  O_5
REMARK    4  A    between atoms: C_9  and  C_11
REMARK                            x       y       z     vdW  Elec       q    Type
REMARK                         _______ _______ _______ _____ _____    ______ ____
ROOT
ATOM      1  C   UNL     1       1.439   4.875  19.021  0.00  0.00    +0.000 C 
ATOM      2  C   UNL     1       2.329   3.635  18.862  0.00  0.00    +0.000 C 
ATOM      3  C   UNL     1       3.125   3.356  20.144  0.00  0.00    +0.000 C 
ATOM      4  C   UNL     1       4.353   4.252  20.022  0.00  0.00    +0.000 C 
ATOM      5  N   UNL     1       4.617   4.310  18.599  0.00  0.00    +0.000 N 
ATOM      6  C   UNL     1       5.908   4.571  18.123  0.00  0.00    +0.000 C 
ATOM      7  O   UNL     1       6.815   4.762  18.938  0.00  0.00    +0.000 OA
ATOM      8  C   UNL     1       3.449   3.888  17.837  0.00  0.00    +0.000 C 
ENDROOT
BRANCH   6   9
ATOM      9  C   UNL     1       6.192   4.557  16.688  0.00  0.00    +0.000 A 
ATOM     10  C   UNL     1       5.521   3.806  15.730  0.00  0.00    +0.000 A 
ATOM     11  C   UNL     1       6.037   3.993  14.409  0.00  0.00    +0.000 A 
ATOM     12  C   UNL     1       7.106   4.865  14.414  0.00  0.00    +0.000 A 
ATOM     13  S   UNL     1       7.526   5.359  15.974  0.00  0.00    +0.000 S 
ATOM     14  C   UNL     1       7.901   5.280  13.217  0.00  0.00    +0.000 C 
ATOM     15  C   UNL     1       7.199   4.854  11.920  0.00  0.00    +0.000 C 
ATOM     16  C   UNL     1       6.596   3.444  12.029  0.00  0.00    +0.000 C 
ATOM     17  C   UNL     1       5.539   3.366  13.144  0.00  0.00    +0.000 C 
ENDBRANCH   6   9
BRANCH   2  18
ATOM     18  C   UNL     1       1.480   2.489  18.338  0.00  0.00    +0.000 C 
ATOM     19  O   UNL     1       0.271   2.416  18.512  0.00  0.00    +0.000 OA
BRANCH  18  20
ATOM     20  O   UNL     1       2.156   1.498  17.717  0.00  0.00    +0.000 OA
ATOM     21  H   UNL     1       1.821   0.598  17.855  0.00  0.00    +0.000 HD
ENDBRANCH  18  20
ENDBRANCH   2  18
TORSDOF 3
ENDMDL
MODEL 6
REMARK VINA RESULT:      -6.9      0.906      1.601
REMARK  Name = 
REMARK  4 active torsions:
REMARK  status: ('A' for Active; 'I' for Inactive)
REMARK    1  A    between atoms: C_1  and  C_2
REMARK    2  A    between atoms: C_2  and  C_3
REMARK    3  A    between atoms: C_3  and  O_5
REMARK    4  A    between atoms: C_9  and  C_11
REMARK                            x       y       z     vdW  Elec       q    Type
REMARK                         _______ _______ _______ _____ _____    ______ ____
ROOT
ATOM      1  C   UNL     1       3.186   2.930  20.269  0.00  0.00    +0.000 C 
ATOM      2  C   UNL     1       2.266   3.397  19.134  0.00  0.00    +0.000 C 
ATOM      3  C   UNL     1       2.953   3.258  17.769  0.00  0.00    +0.000 C 
ATOM      4  C   UNL     1       3.771   4.537  17.631  0.00  0.00    +0.000 C 
ATOM      5  N   UNL     1       2.993   5.539  18.332  0.00  0.00    +0.000 N 
ATOM      6  C   UNL     1       3.111   6.894  18.001  0.00  0.00    +0.000 C 
ATOM      7  O   UNL     1       3.898   7.222  17.108  0.00  0.00    +0.000 OA
ATOM      8  C   UNL     1       2.017   4.914  19.215  0.00  0.00    +0.000 C 
ENDROOT
BRANCH   6   9
ATOM      9  C   UNL     1       2.274   7.899  18.655  0.00  0.00    +0.000 A 
ATOM     10  C   UNL     1       1.813   9.078  18.081  0.00  0.00    +0.000 A 
ATOM     11  C   UNL     1       1.025   9.867  18.977  0.00  0.00    +0.000 A 
ATOM     12  C   UNL     1       0.935   9.268  20.215  0.00  0.00    +0.000 A 
ATOM     13  S   UNL     1       1.854   7.854  20.315  0.00  0.00    +0.000 S 
ATOM     14  C   UNL     1       0.205   9.816  21.401  0.00  0.00    +0.000 C 
ATOM     15  C   UNL     1      -0.695  10.991  20.993  0.00  0.00    +0.000 C 
ATOM     16  C   UNL     1      -0.006  11.919  19.980  0.00  0.00    +0.000 C 
ATOM     17  C   UNL     1       0.354  11.173  18.683  0.00  0.00    +0.000 C 
ENDBRANCH   6   9
BRANCH   2  18
ATOM     18  C   UNL     1       0.921   2.704  19.281  0.00  0.00    +0.000 C 
ATOM     19  O   UNL     1       0.365   2.119  18.362  0.00  0.00    +0.000 OA
BRANCH  18  20
ATOM     20  O   UNL     1       0.327   2.831  20.488  0.00  0.00    +0.000 OA
ATOM     21  H   UNL     1       0.872   3.210  21.196  0.00  0.00    +0.000 HD
ENDBRANCH  18  20
ENDBRANCH   2  18
TORSDOF 3
ENDMDL
MODEL 7
REMARK VINA RESULT:      -6.9      2.760      6.558
REMARK  Name = 
REMARK  4 active torsions:
REMARK  status: ('A' for Active; 'I' for Inactive)
REMARK    1  A    between atoms: C_1  and  C_2
REMARK    2  A    between atoms: C_2  and  C_3
REMARK    3  A    between atoms: C_3  and  O_5
REMARK    4  A    between atoms: C_9  and  C_11
REMARK                            x       y       z     vdW  Elec       q    Type
REMARK                         _______ _______ _______ _____ _____    ______ ____
ROOT
ATOM      1  C   UNL     1      -0.880   9.666  20.933  0.00  0.00    +0.000 C 
ATOM      2  C   UNL     1       0.647   9.632  21.081  0.00  0.00    +0.000 C 
ATOM      3  C   UNL     1       1.308  10.763  20.284  0.00  0.00    +0.000 C 
ATOM      4  C   UNL     1       1.433  10.201  18.872  0.00  0.00    +0.000 C 
ATOM      5  N   UNL     1       1.637   8.780  19.067  0.00  0.00    +0.000 N 
ATOM      6  C   UNL     1       2.303   8.015  18.102  0.00  0.00    +0.000 C 
ATOM      7  O   UNL     1       2.705   8.572  17.076  0.00  0.00    +0.000 OA
ATOM      8  C   UNL     1       1.238   8.379  20.410  0.00  0.00    +0.000 C 
ENDROOT
BRANCH   6   9
ATOM      9  C   UNL     1       2.575   6.596  18.330  0.00  0.00    +0.000 A 
ATOM     10  C   UNL     1       1.713   5.543  18.046  0.00  0.00    +0.000 A 
ATOM     11  C   UNL     1       2.254   4.266  18.394  0.00  0.00    +0.000 A 
ATOM     12  C   UNL     1       3.506   4.396  18.958  0.00  0.00    +0.000 A 
ATOM     13  S   UNL     1       3.963   6.012  19.147  0.00  0.00    +0.000 S 
ATOM     14  C   UNL     1       4.362   3.275  19.455  0.00  0.00    +0.000 C 
ATOM     15  C   UNL     1       3.811   1.920  18.990  0.00  0.00    +0.000 C 
ATOM     16  C   UNL     1       2.279   1.858  19.086  0.00  0.00    +0.000 C 
ATOM     17  C   UNL     1       1.613   2.927  18.201  0.00  0.00    +0.000 C 
ENDBRANCH   6   9
BRANCH   2  18
ATOM     18  C   UNL     1       0.992   9.564  22.560  0.00  0.00    +0.000 C 
ATOM     19  O   UNL     1       0.201   9.857  23.446  0.00  0.00    +0.000 OA
BRANCH  18  20
ATOM     20  O   UNL     1       2.267   9.221  22.847  0.00  0.00    +0.000 OA
ATOM     21  H   UNL     1       2.666   9.660  23.614  0.00  0.00    +0.000 HD
ENDBRANCH  18  20
ENDBRANCH   2  18
TORSDOF 3
ENDMDL
MODEL 8
REMARK VINA RESULT:      -6.8      4.315      7.729
REMARK  Name = 
REMARK  4 active torsions:
REMARK  status: ('A' for Active; 'I' for Inactive)
REMARK    1  A    between atoms: C_1  and  C_2
REMARK    2  A    between atoms: C_2  and  C_3
REMARK    3  A    between atoms: C_3  and  O_5
REMARK    4  A    between atoms: C_9  and  C_11
REMARK                            x       y       z     vdW  Elec       q    Type
REMARK                         _______ _______ _______ _____ _____    ______ ____
ROOT
ATOM      1  C   UNL     1       2.298   6.510  18.836  0.00  0.00    +0.000 C 
ATOM      2  C   UNL     1       2.709   5.039  18.694  0.00  0.00    +0.000 C 
ATOM      3  C   UNL     1       3.452   4.547  19.944  0.00  0.00    +0.000 C 
ATOM      4  C   UNL     1       4.897   4.973  19.710  0.00  0.00    +0.000 C 
ATOM      5  N   UNL     1       5.068   4.895  18.274  0.00  0.00    +0.000 N 
ATOM      6  C   UNL     1       6.336   4.691  17.716  0.00  0.00    +0.000 C 
ATOM      7  O   UNL     1       7.308   4.590  18.469  0.00  0.00    +0.000 OA
ATOM      8  C   UNL     1       3.777   4.868  17.598  0.00  0.00    +0.000 C 
ENDROOT
BRANCH   6   9
ATOM      9  C   UNL     1       6.501   4.538  16.270  0.00  0.00    +0.000 A 
ATOM     10  C   UNL     1       7.364   5.271  15.464  0.00  0.00    +0.000 A 
ATOM     11  C   UNL     1       7.290   4.903  14.084  0.00  0.00    +0.000 A 
ATOM     12  C   UNL     1       6.350   3.914  13.885  0.00  0.00    +0.000 A 
ATOM     13  S   UNL     1       5.519   3.521  15.303  0.00  0.00    +0.000 S 
ATOM     14  C   UNL     1       5.993   3.298  12.569  0.00  0.00    +0.000 C 
ATOM     15  C   UNL     1       7.017   3.683  11.492  0.00  0.00    +0.000 C 
ATOM     16  C   UNL     1       7.435   5.158  11.595  0.00  0.00    +0.000 C 
ATOM     17  C   UNL     1       8.094   5.465  12.952  0.00  0.00    +0.000 C 
ENDBRANCH   6   9
BRANCH   2  18
ATOM     18  C   UNL     1       1.492   4.230  18.277  0.00  0.00    +0.000 C 
ATOM     19  O   UNL     1       1.025   4.257  17.147  0.00  0.00    +0.000 OA
BRANCH  18  20
ATOM     20  O   UNL     1       0.900   3.517  19.260  0.00  0.00    +0.000 OA
ATOM     21  H   UNL     1       0.104   3.908  19.654  0.00  0.00    +0.000 HD
ENDBRANCH  18  20
ENDBRANCH   2  18
TORSDOF 3
ENDMDL
MODEL 9
REMARK VINA RESULT:      -6.8      2.283      4.074
REMARK  Name = 
REMARK  4 active torsions:
REMARK  status: ('A' for Active; 'I' for Inactive)
REMARK    1  A    between atoms: C_1  and  C_2
REMARK    2  A    between atoms: C_2  and  C_3
REMARK    3  A    between atoms: C_3  and  O_5
REMARK    4  A    between atoms: C_9  and  C_11
REMARK                            x       y       z     vdW  Elec       q    Type
REMARK                         _______ _______ _______ _____ _____    ______ ____
ROOT
ATOM      1  C   UNL     1       5.834   5.581  15.682  0.00  0.00    +0.000 C 
ATOM      2  C   UNL     1       6.022   5.722  17.198  0.00  0.00    +0.000 C 
ATOM      3  C   UNL     1       5.942   4.359  17.897  0.00  0.00    +0.000 C 
ATOM      4  C   UNL     1       4.448   4.134  18.105  0.00  0.00    +0.000 C 
ATOM      5  N   UNL     1       3.908   5.464  18.304  0.00  0.00    +0.000 N 
ATOM      6  C   UNL     1       2.724   5.652  19.028  0.00  0.00    +0.000 C 
ATOM      7  O   UNL     1       2.143   4.664  19.484  0.00  0.00    +0.000 OA
ATOM      8  C   UNL     1       4.841   6.479  17.832  0.00  0.00    +0.000 C 
ENDROOT
BRANCH   6   9
ATOM      9  C   UNL     1       2.217   6.998  19.293  0.00  0.00    +0.000 A 
ATOM     10  C   UNL     1       1.706   7.455  20.503  0.00  0.00    +0.000 A 
ATOM     11  C   UNL     1       1.274   8.817  20.450  0.00  0.00    +0.000 A 
ATOM     12  C   UNL     1       1.449   9.343  19.188  0.00  0.00    +0.000 A 
ATOM     13  S   UNL     1       2.024   8.198  18.086  0.00  0.00    +0.000 S 
ATOM     14  C   UNL     1       1.093  10.733  18.762  0.00  0.00    +0.000 C 
ATOM     15  C   UNL     1       0.783  11.614  19.980  0.00  0.00    +0.000 C 
ATOM     16  C   UNL     1      -0.046  10.865  21.035  0.00  0.00    +0.000 C 
ATOM     17  C   UNL     1       0.701   9.631  21.569  0.00  0.00    +0.000 C 
ENDBRANCH   6   9
BRANCH   2  18
ATOM     18  C   UNL     1       7.279   6.536  17.459  0.00  0.00    +0.000 C 
ATOM     19  O   UNL     1       7.804   7.248  16.614  0.00  0.00    +0.000 OA
BRANCH  18  20
ATOM     20  O   UNL     1       7.837   6.373  18.679  0.00  0.00    +0.000 OA
ATOM     21  H   UNL     1       7.237   6.442  19.437  0.00  0.00    +0.000 HD
ENDBRANCH  18  20
ENDBRANCH   2  18
TORSDOF 3
ENDMDL
