MODEL 1
REMARK VINA RESULT:      -7.4      0.000      0.000
REMARK  Name = 
REMARK  7 active torsions:
REMARK  status: ('A' for Active; 'I' for Inactive)
REMARK    1  A    between atoms: C_1  and  O_2
REMARK    2  A    between atoms: O_2  and  C_3
REMARK    3  A    between atoms: C_6  and  N_7
REMARK    4  A    between atoms: N_7  and  C_8
REMARK    5  A    between atoms: C_8  and  N_10
REMARK    6  A    between atoms: C_11  and  C_13
REMARK    7  A    between atoms: C_14  and  C_15
REMARK                            x       y       z     vdW  Elec       q    Type
REMARK                         _______ _______ _______ _____ _____    ______ ____
ROOT
ATOM      1  C   UNL     1       6.851   4.899  16.165  0.00  0.00    +0.000 C 
ATOM      2  S   UNL     1       6.595   4.777  14.516  0.00  0.00    +0.000 S 
ENDROOT
BRANCH   1   3
ATOM      3  N   UNL     1       7.616   5.964  16.611  0.00  0.00    +0.000 N 
ATOM      4  C   UNL     1       7.158   7.039  17.337  0.00  0.00    +0.000 C 
ATOM      5  O   UNL     1       5.970   7.343  17.421  0.00  0.00    +0.000 OA
ATOM      6  H   UNL     1       8.610   5.837  16.477  0.00  0.00    +0.000 HD
BRANCH   4   7
ATOM      7  C   UNL     1       8.213   7.854  17.984  0.00  0.00    +0.000 C 
ATOM      8  C   UNL     1       8.051   9.184  17.895  0.00  0.00    +0.000 C 
BRANCH   8   9
ATOM      9  C   UNL     1       8.968  10.119  18.441  0.00  0.00    +0.000 A 
ATOM     10  C   UNL     1       9.181  10.393  19.789  0.00  0.00    +0.000 A 
ATOM     11  C   UNL     1      10.172  11.394  19.881  0.00  0.00    +0.000 A 
ATOM     12  C   UNL     1      10.522  11.688  18.588  0.00  0.00    +0.000 A 
ATOM     13  O   UNL     1       9.809  10.931  17.715  0.00  0.00    +0.000 OA
ENDBRANCH   8   9
ENDBRANCH   4   7
ENDBRANCH   1   3
BRANCH   1  14
ATOM     14  N   UNL     1       6.363   4.072  17.152  0.00  0.00    +0.000 N 
ATOM     15  H   UNL     1       7.066   3.470  17.585  0.00  0.00    +0.000 HD
BRANCH  14  19
ATOM     16  C   UNL     1       2.522   3.684  18.841  0.00  0.00    +0.000 A 
ATOM     17  C   UNL     1       2.659   3.920  17.474  0.00  0.00    +0.000 A 
ATOM     18  C   UNL     1       3.922   4.060  16.896  0.00  0.00    +0.000 A 
ATOM     19  C   UNL     1       5.068   3.969  17.688  0.00  0.00    +0.000 A 
ATOM     20  C   UNL     1       4.935   3.673  19.048  0.00  0.00    +0.000 A 
ATOM     21  C   UNL     1       3.666   3.558  19.630  0.00  0.00    +0.000 A 
BRANCH  16  23
ATOM     22  C   UNL     1       0.950   4.258  20.519  0.00  0.00    +0.000 C 
ATOM     23  O   UNL     1       1.230   3.616  19.283  0.00  0.00    +0.000 OA
ENDBRANCH  16  23
ENDBRANCH  14  19
ENDBRANCH   1  14
TORSDOF 6
ENDMDL
MODEL 2
REMARK VINA RESULT:      -7.3      1.399      1.954
REMARK  Name = 
REMARK  7 active torsions:
REMARK  status: ('A' for Active; 'I' for Inactive)
REMARK    1  A    between atoms: C_1  and  O_2
REMARK    2  A    between atoms: O_2  and  C_3
REMARK    3  A    between atoms: C_6  and  N_7
REMARK    4  A    between atoms: N_7  and  C_8
REMARK    5  A    between atoms: C_8  and  N_10
REMARK    6  A    between atoms: C_11  and  C_13
REMARK    7  A    between atoms: C_14  and  C_15
REMARK                            x       y       z     vdW  Elec       q    Type
REMARK                         _______ _______ _______ _____ _____    ______ ____
ROOT
ATOM      1  C   UNL     1       5.923   4.504  16.175  0.00  0.00    +0.000 C 
ATOM      2  S   UNL     1       6.403   4.715  14.586  0.00  0.00    +0.000 S 
ENDROOT
BRANCH   1   3
ATOM      3  N   UNL     1       6.316   5.469  17.088  0.00  0.00    +0.000 N 
ATOM      4  C   UNL     1       7.379   5.374  17.956  0.00  0.00    +0.000 C 
ATOM      5  O   UNL     1       7.926   4.311  18.245  0.00  0.00    +0.000 OA
ATOM      6  H   UNL     1       5.830   6.350  16.987  0.00  0.00    +0.000 HD
BRANCH   4   7
ATOM      7  C   UNL     1       7.801   6.653  18.575  0.00  0.00    +0.000 C 
ATOM      8  C   UNL     1       7.979   7.675  17.724  0.00  0.00    +0.000 C 
BRANCH   8   9
ATOM      9  C   UNL     1       8.396   8.968  18.134  0.00  0.00    +0.000 A 
ATOM     10  C   UNL     1       8.130  10.175  17.494  0.00  0.00    +0.000 A 
ATOM     11  C   UNL     1       8.740  11.208  18.237  0.00  0.00    +0.000 A 
ATOM     12  C   UNL     1       9.350  10.590  19.298  0.00  0.00    +0.000 A 
ATOM     13  O   UNL     1       9.152   9.248  19.249  0.00  0.00    +0.000 OA
ENDBRANCH   8   9
ENDBRANCH   4   7
ENDBRANCH   1   3
BRANCH   1  14
ATOM     14  N   UNL     1       5.149   3.488  16.690  0.00  0.00    +0.000 N 
ATOM     15  H   UNL     1       5.390   2.557  16.346  0.00  0.00    +0.000 HD
BRANCH  14  19
ATOM     16  C   UNL     1       2.023   3.705  19.508  0.00  0.00    +0.000 A 
ATOM     17  C   UNL     1       3.300   3.322  19.915  0.00  0.00    +0.000 A 
ATOM     18  C   UNL     1       4.348   3.235  18.996  0.00  0.00    +0.000 A 
ATOM     19  C   UNL     1       4.123   3.530  17.650  0.00  0.00    +0.000 A 
ATOM     20  C   UNL     1       2.859   3.971  17.251  0.00  0.00    +0.000 A 
ATOM     21  C   UNL     1       1.804   4.032  18.170  0.00  0.00    +0.000 A 
BRANCH  16  23
ATOM     22  C   UNL     1       1.292   2.786  21.566  0.00  0.00    +0.000 C 
ATOM     23  O   UNL     1       1.082   3.700  20.499  0.00  0.00    +0.000 OA
ENDBRANCH  16  23
ENDBRANCH  14  19
ENDBRANCH   1  14
TORSDOF 6
ENDMDL
MODEL 3
REMARK VINA RESULT:      -7.3      0.634      1.179
REMARK  Name = 
REMARK  7 active torsions:
REMARK  status: ('A' for Active; 'I' for Inactive)
REMARK    1  A    between atoms: C_1  and  O_2
REMARK    2  A    between atoms: O_2  and  C_3
REMARK    3  A    between atoms: C_6  and  N_7
REMARK    4  A    between atoms: N_7  and  C_8
REMARK    5  A    between atoms: C_8  and  N_10
REMARK    6  A    between atoms: C_11  and  C_13
REMARK    7  A    between atoms: C_14  and  C_15
REMARK                            x       y       z     vdW  Elec       q    Type
REMARK                         _______ _______ _______ _____ _____    ______ ____
ROOT
ATOM      1  C   UNL     1       6.954   4.849  16.595  0.00  0.00    +0.000 C 
ATOM      2  S   UNL     1       6.794   4.575  14.952  0.00  0.00    +0.000 S 
ENDROOT
BRANCH   1   3
ATOM      3  N   UNL     1       7.706   5.945  16.984  0.00  0.00    +0.000 N 
ATOM      4  C   UNL     1       7.210   7.129  17.482  0.00  0.00    +0.000 C 
ATOM      5  O   UNL     1       6.037   7.477  17.360  0.00  0.00    +0.000 OA
ATOM      6  H   UNL     1       8.702   5.771  17.006  0.00  0.00    +0.000 HD
BRANCH   4   7
ATOM      7  C   UNL     1       8.211   7.999  18.143  0.00  0.00    +0.000 C 
ATOM      8  C   UNL     1       8.092   9.311  17.891  0.00  0.00    +0.000 C 
BRANCH   8   9
ATOM      9  C   UNL     1       8.969  10.291  18.424  0.00  0.00    +0.000 A 
ATOM     10  C   UNL     1       9.487  10.337  19.715  0.00  0.00    +0.000 A 
ATOM     11  C   UNL     1      10.305  11.483  19.818  0.00  0.00    +0.000 A 
ATOM     12  C   UNL     1      10.252  12.086  18.588  0.00  0.00    +0.000 A 
ATOM     13  O   UNL     1       9.456  11.383  17.743  0.00  0.00    +0.000 OA
ENDBRANCH   8   9
ENDBRANCH   4   7
ENDBRANCH   1   3
BRANCH   1  14
ATOM     14  N   UNL     1       6.398   4.123  17.624  0.00  0.00    +0.000 N 
ATOM     15  H   UNL     1       7.072   3.601  18.186  0.00  0.00    +0.000 HD
BRANCH  14  19
ATOM     16  C   UNL     1       2.370   3.967  18.855  0.00  0.00    +0.000 A 
ATOM     17  C   UNL     1       3.351   3.323  19.606  0.00  0.00    +0.000 A 
ATOM     18  C   UNL     1       4.690   3.355  19.211  0.00  0.00    +0.000 A 
ATOM     19  C   UNL     1       5.061   4.034  18.049  0.00  0.00    +0.000 A 
ATOM     20  C   UNL     1       4.088   4.730  17.327  0.00  0.00    +0.000 A 
ATOM     21  C   UNL     1       2.741   4.675  17.711  0.00  0.00    +0.000 A 
BRANCH  16  23
ATOM     22  C   UNL     1       0.549   2.505  19.259  0.00  0.00    +0.000 C 
ATOM     23  O   UNL     1       1.096   3.815  19.327  0.00  0.00    +0.000 OA
ENDBRANCH  16  23
ENDBRANCH  14  19
ENDBRANCH   1  14
TORSDOF 6
ENDMDL
MODEL 4
REMARK VINA RESULT:      -7.1      1.454      1.603
REMARK  Name = 
REMARK  7 active torsions:
REMARK  status: ('A' for Active; 'I' for Inactive)
REMARK    1  A    between atoms: C_1  and  O_2
REMARK    2  A    between atoms: O_2  and  C_3
REMARK    3  A    between atoms: C_6  and  N_7
REMARK    4  A    between atoms: N_7  and  C_8
REMARK    5  A    between atoms: C_8  and  N_10
REMARK    6  A    between atoms: C_11  and  C_13
REMARK    7  A    between atoms: C_14  and  C_15
REMARK                            x       y       z     vdW  Elec       q    Type
REMARK                         _______ _______ _______ _____ _____    ______ ____
ROOT
ATOM      1  C   UNL     1       5.952   5.891  16.387  0.00  0.00    +0.000 C 
ATOM      2  S   UNL     1       6.980   4.782  15.671  0.00  0.00    +0.000 S 
ENDROOT
BRANCH   1   3
ATOM      3  N   UNL     1       6.494   7.110  16.760  0.00  0.00    +0.000 N 
ATOM      4  C   UNL     1       7.474   7.302  17.708  0.00  0.00    +0.000 C 
ATOM      5  O   UNL     1       7.774   6.460  18.553  0.00  0.00    +0.000 OA
ATOM      6  H   UNL     1       6.207   7.881  16.173  0.00  0.00    +0.000 HD
BRANCH   4   7
ATOM      7  C   UNL     1       8.123   8.633  17.678  0.00  0.00    +0.000 C 
ATOM      8  C   UNL     1       8.657   9.042  18.839  0.00  0.00    +0.000 C 
BRANCH   8   9
ATOM      9  C   UNL     1       9.305  10.293  19.002  0.00  0.00    +0.000 A 
ATOM     10  C   UNL     1       9.752  11.143  17.994  0.00  0.00    +0.000 A 
ATOM     11  C   UNL     1      10.342  12.272  18.602  0.00  0.00    +0.000 A 
ATOM     12  C   UNL     1      10.230  12.065  19.953  0.00  0.00    +0.000 A 
ATOM     13  O   UNL     1       9.610  10.884  20.207  0.00  0.00    +0.000 OA
ENDBRANCH   8   9
ENDBRANCH   4   7
ENDBRANCH   1   3
BRANCH   1  14
ATOM     14  N   UNL     1       4.604   5.749  16.630  0.00  0.00    +0.000 N 
ATOM     15  H   UNL     1       4.004   6.325  16.038  0.00  0.00    +0.000 HD
BRANCH  14  19
ATOM     16  C   UNL     1       2.631   3.262  19.402  0.00  0.00    +0.000 A 
ATOM     17  C   UNL     1       3.076   2.736  18.191  0.00  0.00    +0.000 A 
ATOM     18  C   UNL     1       3.724   3.544  17.255  0.00  0.00    +0.000 A 
ATOM     19  C   UNL     1       3.930   4.899  17.524  0.00  0.00    +0.000 A 
ATOM     20  C   UNL     1       3.538   5.415  18.762  0.00  0.00    +0.000 A 
ATOM     21  C   UNL     1       2.865   4.607  19.689  0.00  0.00    +0.000 A 
BRANCH  16  23
ATOM     22  C   UNL     1       1.760   2.772  21.551  0.00  0.00    +0.000 C 
ATOM     23  O   UNL     1       1.970   2.373  20.203  0.00  0.00    +0.000 OA
ENDBRANCH  16  23
ENDBRANCH  14  19
ENDBRANCH   1  14
TORSDOF 6
ENDMDL
MODEL 5
REMARK VINA RESULT:      -7.1      1.247      1.378
REMARK  Name = 
REMARK  7 active torsions:
REMARK  status: ('A' for Active; 'I' for Inactive)
REMARK    1  A    between atoms: C_1  and  O_2
REMARK    2  A    between atoms: O_2  and  C_3
REMARK    3  A    between atoms: C_6  and  N_7
REMARK    4  A    between atoms: N_7  and  C_8
REMARK    5  A    between atoms: C_8  and  N_10
REMARK    6  A    between atoms: C_11  and  C_13
REMARK    7  A    between atoms: C_14  and  C_15
REMARK                            x       y       z     vdW  Elec       q    Type
REMARK                         _______ _______ _______ _____ _____    ______ ____
ROOT
ATOM      1  C   UNL     1       6.659   5.517  16.740  0.00  0.00    +0.000 C 
ATOM      2  S   UNL     1       6.985   4.842  15.244  0.00  0.00    +0.000 S 
ENDROOT
BRANCH   1   3
ATOM      3  N   UNL     1       6.874   6.878  16.882  0.00  0.00    +0.000 N 
ATOM      4  C   UNL     1       7.690   7.474  17.816  0.00  0.00    +0.000 C 
ATOM      5  O   UNL     1       8.093   6.902  18.828  0.00  0.00    +0.000 OA
ATOM      6  H   UNL     1       6.476   7.434  16.137  0.00  0.00    +0.000 HD
BRANCH   4   7
ATOM      7  C   UNL     1       8.021   8.893  17.546  0.00  0.00    +0.000 C 
ATOM      8  C   UNL     1       8.786   9.494  18.470  0.00  0.00    +0.000 C 
BRANCH   8   9
ATOM      9  C   UNL     1       9.188  10.852  18.387  0.00  0.00    +0.000 A 
ATOM     10  C   UNL     1      10.352  11.413  18.905  0.00  0.00    +0.000 A 
ATOM     11  C   UNL     1      10.347  12.791  18.601  0.00  0.00    +0.000 A 
ATOM     12  C   UNL     1       9.183  13.013  17.911  0.00  0.00    +0.000 A 
ATOM     13  O   UNL     1       8.480  11.860  17.774  0.00  0.00    +0.000 OA
ENDBRANCH   8   9
ENDBRANCH   4   7
ENDBRANCH   1   3
BRANCH   1  14
ATOM     14  N   UNL     1       6.169   4.879  17.858  0.00  0.00    +0.000 N 
ATOM     15  H   UNL     1       6.737   5.002  18.699  0.00  0.00    +0.000 HD
BRANCH  14  19
ATOM     16  C   UNL     1       2.690   2.576  18.451  0.00  0.00    +0.000 A 
ATOM     17  C   UNL     1       2.893   3.227  17.236  0.00  0.00    +0.000 A 
ATOM     18  C   UNL     1       4.035   4.003  17.022  0.00  0.00    +0.000 A 
ATOM     19  C   UNL     1       4.989   4.137  18.033  0.00  0.00    +0.000 A 
ATOM     20  C   UNL     1       4.816   3.436  19.229  0.00  0.00    +0.000 A 
ATOM     21  C   UNL     1       3.658   2.680  19.451  0.00  0.00    +0.000 A 
BRANCH  16  23
ATOM     22  C   UNL     1       0.372   2.647  18.939  0.00  0.00    +0.000 C 
ATOM     23  O   UNL     1       1.510   1.893  18.543  0.00  0.00    +0.000 OA
ENDBRANCH  16  23
ENDBRANCH  14  19
ENDBRANCH   1  14
TORSDOF 6
ENDMDL
MODEL 6
REMARK VINA RESULT:      -7.0      1.477      1.841
REMARK  Name = 
REMARK  7 active torsions:
REMARK  status: ('A' for Active; 'I' for Inactive)
REMARK    1  A    between atoms: C_1  and  O_2
REMARK    2  A    between atoms: O_2  and  C_3
REMARK    3  A    between atoms: C_6  and  N_7
REMARK    4  A    between atoms: N_7  and  C_8
REMARK    5  A    between atoms: C_8  and  N_10
REMARK    6  A    between atoms: C_11  and  C_13
REMARK    7  A    between atoms: C_14  and  C_15
REMARK                            x       y       z     vdW  Elec       q    Type
REMARK                         _______ _______ _______ _____ _____    ______ ____
ROOT
ATOM      1  C   UNL     1       5.878   5.977  16.897  0.00  0.00    +0.000 C 
ATOM      2  S   UNL     1       6.834   4.708  16.371  0.00  0.00    +0.000 S 
ENDROOT
BRANCH   1   3
ATOM      3  N   UNL     1       6.480   7.219  17.012  0.00  0.00    +0.000 N 
ATOM      4  C   UNL     1       7.580   7.515  17.784  0.00  0.00    +0.000 C 
ATOM      5  O   UNL     1       7.980   6.796  18.698  0.00  0.00    +0.000 OA
ATOM      6  H   UNL     1       6.126   7.906  16.360  0.00  0.00    +0.000 HD
BRANCH   4   7
ATOM      7  C   UNL     1       8.235   8.807  17.473  0.00  0.00    +0.000 C 
ATOM      8  C   UNL     1       8.639   9.520  18.536  0.00  0.00    +0.000 C 
BRANCH   8   9
ATOM      9  C   UNL     1       9.271  10.786  18.431  0.00  0.00    +0.000 A 
ATOM     10  C   UNL     1      10.489  11.163  18.992  0.00  0.00    +0.000 A 
ATOM     11  C   UNL     1      10.733  12.509  18.644  0.00  0.00    +0.000 A 
ATOM     12  C   UNL     1       9.657  12.897  17.888  0.00  0.00    +0.000 A 
ATOM     13  O   UNL     1       8.774  11.874  17.751  0.00  0.00    +0.000 OA
ENDBRANCH   8   9
ENDBRANCH   4   7
ENDBRANCH   1   3
BRANCH   1  14
ATOM     14  N   UNL     1       4.537   5.943  17.209  0.00  0.00    +0.000 N 
ATOM     15  H   UNL     1       3.983   6.686  16.778  0.00  0.00    +0.000 HD
BRANCH  14  19
ATOM     16  C   UNL     1       2.281   3.156  19.424  0.00  0.00    +0.000 A 
ATOM     17  C   UNL     1       2.896   4.225  20.074  0.00  0.00    +0.000 A 
ATOM     18  C   UNL     1       3.655   5.155  19.360  0.00  0.00    +0.000 A 
ATOM     19  C   UNL     1       3.810   5.019  17.979  0.00  0.00    +0.000 A 
ATOM     20  C   UNL     1       3.145   3.983  17.318  0.00  0.00    +0.000 A 
ATOM     21  C   UNL     1       2.405   3.037  18.040  0.00  0.00    +0.000 A 
BRANCH  16  23
ATOM     22  C   UNL     1       1.551   2.654  21.622  0.00  0.00    +0.000 C 
ATOM     23  O   UNL     1       1.611   2.296  20.248  0.00  0.00    +0.000 OA
ENDBRANCH  16  23
ENDBRANCH  14  19
ENDBRANCH   1  14
TORSDOF 6
ENDMDL
MODEL 7
REMARK VINA RESULT:      -7.0      3.256      6.622
REMARK  Name = 
REMARK  7 active torsions:
REMARK  status: ('A' for Active; 'I' for Inactive)
REMARK    1  A    between atoms: C_1  and  O_2
REMARK    2  A    between atoms: O_2  and  C_3
REMARK    3  A    between atoms: C_6  and  N_7
REMARK    4  A    between atoms: N_7  and  C_8
REMARK    5  A    between atoms: C_8  and  N_10
REMARK    6  A    between atoms: C_11  and  C_13
REMARK    7  A    between atoms: C_14  and  C_15
REMARK                            x       y       z     vdW  Elec       q    Type
REMARK                         _______ _______ _______ _____ _____    ______ ____
ROOT
ATOM      1  C   UNL     1       3.706   3.213  18.692  0.00  0.00    +0.000 C 
ATOM      2  S   UNL     1       3.119   1.785  18.047  0.00  0.00    +0.000 S 
ENDROOT
BRANCH   1   3
ATOM      3  N   UNL     1       2.774   4.146  19.117  0.00  0.00    +0.000 N 
ATOM      4  C   UNL     1       2.460   4.436  20.425  0.00  0.00    +0.000 C 
ATOM      5  O   UNL     1       2.740   3.699  21.369  0.00  0.00    +0.000 OA
ATOM      6  H   UNL     1       2.410   4.728  18.374  0.00  0.00    +0.000 HD
BRANCH   4   7
ATOM      7  C   UNL     1       1.703   5.694  20.625  0.00  0.00    +0.000 C 
ATOM      8  C   UNL     1       2.215   6.778  20.022  0.00  0.00    +0.000 C 
BRANCH   8   9
ATOM      9  C   UNL     1       1.634   8.070  20.115  0.00  0.00    +0.000 A 
ATOM     10  C   UNL     1       1.137   8.683  21.262  0.00  0.00    +0.000 A 
ATOM     11  C   UNL     1       0.647   9.956  20.900  0.00  0.00    +0.000 A 
ATOM     12  C   UNL     1       0.866  10.066  19.551  0.00  0.00    +0.000 A 
ATOM     13  O   UNL     1       1.457   8.944  19.068  0.00  0.00    +0.000 OA
ENDBRANCH   8   9
ENDBRANCH   4   7
ENDBRANCH   1   3
BRANCH   1  14
ATOM     14  N   UNL     1       5.022   3.569  18.882  0.00  0.00    +0.000 N 
ATOM     15  H   UNL     1       5.569   2.897  19.423  0.00  0.00    +0.000 HD
BRANCH  14  19
ATOM     16  C   UNL     1       7.141   6.865  17.330  0.00  0.00    +0.000 A 
ATOM     17  C   UNL     1       7.559   6.268  18.518  0.00  0.00    +0.000 A 
ATOM     18  C   UNL     1       6.865   5.181  19.054  0.00  0.00    +0.000 A 
ATOM     19  C   UNL     1       5.737   4.680  18.402  0.00  0.00    +0.000 A 
ATOM     20  C   UNL     1       5.353   5.239  17.180  0.00  0.00    +0.000 A 
ATOM     21  C   UNL     1       6.034   6.346  16.658  0.00  0.00    +0.000 A 
BRANCH  16  23
ATOM     22  C   UNL     1       8.164   8.910  17.952  0.00  0.00    +0.000 C 
ATOM     23  O   UNL     1       7.879   7.949  16.945  0.00  0.00    +0.000 OA
ENDBRANCH  16  23
ENDBRANCH  14  19
ENDBRANCH   1  14
TORSDOF 6
ENDMDL
MODEL 8
REMARK VINA RESULT:      -6.9      1.116      1.583
REMARK  Name = 
REMARK  7 active torsions:
REMARK  status: ('A' for Active; 'I' for Inactive)
REMARK    1  A    between atoms: C_1  and  O_2
REMARK    2  A    between atoms: O_2  and  C_3
REMARK    3  A    between atoms: C_6  and  N_7
REMARK    4  A    between atoms: N_7  and  C_8
REMARK    5  A    between atoms: C_8  and  N_10
REMARK    6  A    between atoms: C_11  and  C_13
REMARK    7  A    between atoms: C_14  and  C_15
REMARK                            x       y       z     vdW  Elec       q    Type
REMARK                         _______ _______ _______ _____ _____    ______ ____
ROOT
ATOM      1  C   UNL     1       6.703   5.630  16.729  0.00  0.00    +0.000 C 
ATOM      2  S   UNL     1       6.887   4.956  15.209  0.00  0.00    +0.000 S 
ENDROOT
BRANCH   1   3
ATOM      3  N   UNL     1       6.988   6.980  16.862  0.00  0.00    +0.000 N 
ATOM      4  C   UNL     1       7.818   7.541  17.805  0.00  0.00    +0.000 C 
ATOM      5  O   UNL     1       8.171   6.959  18.830  0.00  0.00    +0.000 OA
ATOM      6  H   UNL     1       6.634   7.549  16.105  0.00  0.00    +0.000 HD
BRANCH   4   7
ATOM      7  C   UNL     1       8.230   8.937  17.528  0.00  0.00    +0.000 C 
ATOM      8  C   UNL     1       8.769   9.597  18.564  0.00  0.00    +0.000 C 
BRANCH   8   9
ATOM      9  C   UNL     1       9.205  10.945  18.489  0.00  0.00    +0.000 A 
ATOM     10  C   UNL     1      10.275  11.518  19.172  0.00  0.00    +0.000 A 
ATOM     11  C   UNL     1      10.347  12.880  18.809  0.00  0.00    +0.000 A 
ATOM     12  C   UNL     1       9.322  13.081  17.922  0.00  0.00    +0.000 A 
ATOM     13  O   UNL     1       8.630  11.930  17.720  0.00  0.00    +0.000 OA
ENDBRANCH   8   9
ENDBRANCH   4   7
ENDBRANCH   1   3
BRANCH   1  14
ATOM     14  N   UNL     1       6.270   5.006  17.877  0.00  0.00    +0.000 N 
ATOM     15  H   UNL     1       6.945   5.013  18.644  0.00  0.00    +0.000 HD
BRANCH  14  19
ATOM     16  C   UNL     1       2.499   3.334  18.744  0.00  0.00    +0.000 A 
ATOM     17  C   UNL     1       3.639   2.842  19.378  0.00  0.00    +0.000 A 
ATOM     18  C   UNL     1       4.899   3.377  19.098  0.00  0.00    +0.000 A 
ATOM     19  C   UNL     1       5.030   4.412  18.171  0.00  0.00    +0.000 A 
ATOM     20  C   UNL     1       3.882   4.946  17.580  0.00  0.00    +0.000 A 
ATOM     21  C   UNL     1       2.623   4.391  17.842  0.00  0.00    +0.000 A 
BRANCH  16  23
ATOM     22  C   UNL     1       0.615   3.214  20.177  0.00  0.00    +0.000 C 
ATOM     23  O   UNL     1       1.340   2.689  19.072  0.00  0.00    +0.000 OA
ENDBRANCH  16  23
ENDBRANCH  14  19
ENDBRANCH   1  14
TORSDOF 6
ENDMDL
MODEL 9
REMARK VINA RESULT:      -6.9      4.327      6.988
REMARK  Name = 
REMARK  7 active torsions:
REMARK  status: ('A' for Active; 'I' for Inactive)
REMARK    1  A    between atoms: C_1  and  O_2
REMARK    2  A    between atoms: O_2  and  C_3
REMARK    3  A    between atoms: C_6  and  N_7
REMARK    4  A    between atoms: N_7  and  C_8
REMARK    5  A    between atoms: C_8  and  N_10
REMARK    6  A    between atoms: C_11  and  C_13
REMARK    7  A    between atoms: C_14  and  C_15
REMARK                            x       y       z     vdW  Elec       q    Type
REMARK                         _______ _______ _______ _____ _____    ______ ____
ROOT
ATOM      1  C   UNL     1       3.076   4.967  19.911  0.00  0.00    +0.000 C 
ATOM      2  S   UNL     1       1.882   3.796  19.862  0.00  0.00    +0.000 S 
ENDROOT
BRANCH   1   3
ATOM      3  N   UNL     1       2.677   6.269  20.166  0.00  0.00    +0.000 N 
ATOM      4  C   UNL     1       2.383   7.224  19.219  0.00  0.00    +0.000 C 
ATOM      5  O   UNL     1       2.728   7.139  18.041  0.00  0.00    +0.000 OA
ATOM      6  H   UNL     1       2.476   6.452  21.140  0.00  0.00    +0.000 HD
BRANCH   4   7
ATOM      7  C   UNL     1       1.655   8.409  19.728  0.00  0.00    +0.000 C 
ATOM      8  C   UNL     1       1.199   8.311  20.986  0.00  0.00    +0.000 C 
BRANCH   8   9
ATOM      9  C   UNL     1       0.468   9.340  21.634  0.00  0.00    +0.000 A 
ATOM     10  C   UNL     1      -0.302   9.221  22.788  0.00  0.00    +0.000 A 
ATOM     11  C   UNL     1      -0.858  10.485  23.076  0.00  0.00    +0.000 A 
ATOM     12  C   UNL     1      -0.407  11.322  22.088  0.00  0.00    +0.000 A 
ATOM     13  O   UNL     1       0.389  10.649  21.218  0.00  0.00    +0.000 OA
ENDBRANCH   8   9
ENDBRANCH   4   7
ENDBRANCH   1   3
BRANCH   1  14
ATOM     14  N   UNL     1       4.433   4.789  19.755  0.00  0.00    +0.000 N 
ATOM     15  H   UNL     1       4.922   4.501  20.603  0.00  0.00    +0.000 HD
BRANCH  14  19
ATOM     16  C   UNL     1       6.866   5.197  16.338  0.00  0.00    +0.000 A 
ATOM     17  C   UNL     1       5.657   4.510  16.251  0.00  0.00    +0.000 A 
ATOM     18  C   UNL     1       4.840   4.356  17.373  0.00  0.00    +0.000 A 
ATOM     19  C   UNL     1       5.232   4.889  18.603  0.00  0.00    +0.000 A 
ATOM     20  C   UNL     1       6.414   5.629  18.678  0.00  0.00    +0.000 A 
ATOM     21  C   UNL     1       7.245   5.760  17.557  0.00  0.00    +0.000 A 
BRANCH  16  23
ATOM     22  C   UNL     1       6.921   4.790  14.004  0.00  0.00    +0.000 C 
ATOM     23  O   UNL     1       7.589   5.231  15.179  0.00  0.00    +0.000 OA
ENDBRANCH  16  23
ENDBRANCH  14  19
ENDBRANCH   1  14
TORSDOF 6
ENDMDL
