MODEL 1
REMARK VINA RESULT:      -8.3      0.000      0.000
REMARK  Name = 
REMARK  6 active torsions:
REMARK  status: ('A' for Active; 'I' for Inactive)
REMARK    1  A    between atoms: C_1  and  N_2
REMARK    2  A    between atoms: N_2  and  C_3
REMARK    3  A    between atoms: N_6  and  C_7
REMARK    4  A    between atoms: C_7  and  C_8
REMARK    5  A    between atoms: N_16  and  C_17
REMARK    6  A    between atoms: C_17  and  C_18
REMARK                            x       y       z     vdW  Elec       q    Type
REMARK                         _______ _______ _______ _____ _____    ______ ____
ROOT
ATOM      1  C   UNL     1       5.118   4.450  17.533  0.00  0.00    +0.000 A 
ATOM      2  C   UNL     1       4.387   5.644  17.786  0.00  0.00    +0.000 A 
ATOM      3  C   UNL     1       3.257   5.265  18.494  0.00  0.00    +0.000 A 
ATOM      4  N   UNL     1       3.379   3.913  18.647  0.00  0.00    +0.000 N 
ATOM      5  N   UNL     1       4.481   3.393  18.058  0.00  0.00    +0.000 NA
ATOM      6  C   UNL     1       2.428   3.006  19.247  0.00  0.00    +0.000 C 
ATOM      7  C   UNL     1       1.628   3.494  20.458  0.00  0.00    +0.000 C 
ATOM      8  C   UNL     1       2.024   4.841  21.077  0.00  0.00    +0.000 C 
ATOM      9  N   UNL     1       1.499   5.955  20.304  0.00  0.00    +0.000 NA
ATOM     10  C   UNL     1       2.034   6.045  18.898  0.00  0.00    +0.000 C 
ENDROOT
BRANCH   1  11
ATOM     11  C   UNL     1       6.429   4.292  16.807  0.00  0.00    +0.000 C 
BRANCH  11  17
ATOM     12  C   UNL     1       7.582   5.138  12.142  0.00  0.00    +0.000 C 
ATOM     13  N   UNL     1       6.831   4.389  13.141  0.00  0.00    +0.000 N 
ATOM     14  C   UNL     1       5.927   3.354  12.672  0.00  0.00    +0.000 C 
ATOM     15  C   UNL     1       7.017   4.740  14.472  0.00  0.00    +0.000 C 
ATOM     16  O   UNL     1       7.820   5.603  14.814  0.00  0.00    +0.000 OA
ATOM     17  N   UNL     1       6.221   4.084  15.381  0.00  0.00    +0.000 N 
ATOM     18  H   UNL     1       5.885   3.169  15.132  0.00  0.00    +0.000 HD
ENDBRANCH  11  17
ENDBRANCH   1  11
BRANCH   9  19
ATOM     19  C   UNL     1       1.704   7.268  20.926  0.00  0.00    +0.000 C 
BRANCH  19  20
ATOM     20  C   UNL     1       0.751   8.437  21.161  0.00  0.00    +0.000 A 
ATOM     21  C   UNL     1       0.953   9.394  20.156  0.00  0.00    +0.000 A 
ATOM     22  C   UNL     1      -0.003  10.340  19.814  0.00  0.00    +0.000 A 
ATOM     23  C   UNL     1      -0.313  10.941  21.012  0.00  0.00    +0.000 A 
ATOM     24  O   UNL     1      -0.475  12.265  21.191  0.00  0.00    +0.000 OA
ATOM     25  C   UNL     1      -0.926  12.417  22.456  0.00  0.00    +0.000 A 
ATOM     26  C   UNL     1      -1.144  11.185  23.053  0.00  0.00    +0.000 A 
ATOM     27  C   UNL     1      -0.562  10.208  22.164  0.00  0.00    +0.000 A 
ATOM     28  C   UNL     1      -0.182   8.805  22.168  0.00  0.00    +0.000 A 
ENDBRANCH  19  20
ENDBRANCH   9  19
TORSDOF 4
ENDMDL
MODEL 2
REMARK VINA RESULT:      -8.0      0.738      1.414
REMARK  Name = 
REMARK  6 active torsions:
REMARK  status: ('A' for Active; 'I' for Inactive)
REMARK    1  A    between atoms: C_1  and  N_2
REMARK    2  A    between atoms: N_2  and  C_3
REMARK    3  A    between atoms: N_6  and  C_7
REMARK    4  A    between atoms: C_7  and  C_8
REMARK    5  A    between atoms: N_16  and  C_17
REMARK    6  A    between atoms: C_17  and  C_18
REMARK                            x       y       z     vdW  Elec       q    Type
REMARK                         _______ _______ _______ _____ _____    ______ ____
ROOT
ATOM      1  C   UNL     1       5.022   4.256  17.322  0.00  0.00    +0.000 A 
ATOM      2  C   UNL     1       4.344   5.468  17.630  0.00  0.00    +0.000 A 
ATOM      3  C   UNL     1       3.210   5.107  18.342  0.00  0.00    +0.000 A 
ATOM      4  N   UNL     1       3.280   3.747  18.444  0.00  0.00    +0.000 N 
ATOM      5  N   UNL     1       4.351   3.206  17.819  0.00  0.00    +0.000 NA
ATOM      6  C   UNL     1       2.302   2.857  19.025  0.00  0.00    +0.000 C 
ATOM      7  C   UNL     1       1.540   3.332  20.266  0.00  0.00    +0.000 C 
ATOM      8  C   UNL     1       1.998   4.638  20.927  0.00  0.00    +0.000 C 
ATOM      9  N   UNL     1       1.508   5.800  20.203  0.00  0.00    +0.000 NA
ATOM     10  C   UNL     1       2.026   5.920  18.794  0.00  0.00    +0.000 C 
ENDROOT
BRANCH   1  11
ATOM     11  C   UNL     1       6.316   4.073  16.570  0.00  0.00    +0.000 C 
BRANCH  11  17
ATOM     12  C   UNL     1       7.433   4.901  11.893  0.00  0.00    +0.000 C 
ATOM     13  N   UNL     1       6.664   4.179  12.899  0.00  0.00    +0.000 N 
ATOM     14  C   UNL     1       5.706   3.190  12.438  0.00  0.00    +0.000 C 
ATOM     15  C   UNL     1       6.887   4.511  14.230  0.00  0.00    +0.000 C 
ATOM     16  O   UNL     1       7.734   5.334  14.564  0.00  0.00    +0.000 OA
ATOM     17  N   UNL     1       6.076   3.885  15.146  0.00  0.00    +0.000 N 
ATOM     18  H   UNL     1       5.695   2.988  14.896  0.00  0.00    +0.000 HD
ENDBRANCH  11  17
ENDBRANCH   1  11
BRANCH   9  19
ATOM     19  C   UNL     1       1.774   7.080  20.869  0.00  0.00    +0.000 C 
BRANCH  19  20
ATOM     20  C   UNL     1       1.193   8.474  20.653  0.00  0.00    +0.000 A 
ATOM     21  C   UNL     1       0.487   8.854  21.803  0.00  0.00    +0.000 A 
ATOM     22  C   UNL     1       0.215  10.178  22.117  0.00  0.00    +0.000 A 
ATOM     23  C   UNL     1      -0.391  10.667  20.983  0.00  0.00    +0.000 A 
ATOM     24  O   UNL     1      -1.475  11.464  20.971  0.00  0.00    +0.000 OA
ATOM     25  C   UNL     1      -1.644  11.842  19.684  0.00  0.00    +0.000 A 
ATOM     26  C   UNL     1      -0.613  11.365  18.890  0.00  0.00    +0.000 A 
ATOM     27  C   UNL     1       0.118  10.431  19.713  0.00  0.00    +0.000 A 
ATOM     28  C   UNL     1       1.126   9.393  19.571  0.00  0.00    +0.000 A 
ENDBRANCH  19  20
ENDBRANCH   9  19
TORSDOF 4
ENDMDL
MODEL 3
REMARK VINA RESULT:      -7.9      4.357     10.277
REMARK  Name = 
REMARK  6 active torsions:
REMARK  status: ('A' for Active; 'I' for Inactive)
REMARK    1  A    between atoms: C_1  and  N_2
REMARK    2  A    between atoms: N_2  and  C_3
REMARK    3  A    between atoms: N_6  and  C_7
REMARK    4  A    between atoms: C_7  and  C_8
REMARK    5  A    between atoms: N_16  and  C_17
REMARK    6  A    between atoms: C_17  and  C_18
REMARK                            x       y       z     vdW  Elec       q    Type
REMARK                         _______ _______ _______ _____ _____    ______ ____
ROOT
ATOM      1  C   UNL     1      -2.553  10.868  17.724  0.00  0.00    +0.000 A 
ATOM      2  C   UNL     1      -1.512   9.951  17.413  0.00  0.00    +0.000 A 
ATOM      3  C   UNL     1      -0.454  10.267  18.251  0.00  0.00    +0.000 A 
ATOM      4  N   UNL     1      -0.910  11.304  19.014  0.00  0.00    +0.000 N 
ATOM      5  N   UNL     1      -2.166  11.701  18.701  0.00  0.00    +0.000 NA
ATOM      6  C   UNL     1      -0.174  12.065  19.996  0.00  0.00    +0.000 C 
ATOM      7  C   UNL     1       0.850  11.327  20.864  0.00  0.00    +0.000 C 
ATOM      8  C   UNL     1       0.890   9.796  20.771  0.00  0.00    +0.000 C 
ATOM      9  N   UNL     1       1.605   9.355  19.584  0.00  0.00    +0.000 NA
ATOM     10  C   UNL     1       0.967   9.769  18.283  0.00  0.00    +0.000 C 
ENDROOT
BRANCH   1  11
ATOM     11  C   UNL     1      -3.929  10.962  17.115  0.00  0.00    +0.000 C 
BRANCH  11  17
ATOM     12  C   UNL     1      -7.646  11.659  20.198  0.00  0.00    +0.000 C 
ATOM     13  N   UNL     1      -6.801  10.761  19.422  0.00  0.00    +0.000 N 
ATOM     14  C   UNL     1      -7.063   9.336  19.516  0.00  0.00    +0.000 C 
ATOM     15  C   UNL     1      -5.786  11.335  18.668  0.00  0.00    +0.000 C 
ATOM     16  O   UNL     1      -5.630  12.551  18.600  0.00  0.00    +0.000 OA
ATOM     17  N   UNL     1      -4.945  10.457  18.028  0.00  0.00    +0.000 N 
ATOM     18  H   UNL     1      -5.309   9.548  17.794  0.00  0.00    +0.000 HD
ENDBRANCH  11  17
ENDBRANCH   1  11
BRANCH   9  19
ATOM     19  C   UNL     1       1.820   7.906  19.515  0.00  0.00    +0.000 C 
BRANCH  19  20
ATOM     20  C   UNL     1       2.608   7.044  18.532  0.00  0.00    +0.000 A 
ATOM     21  C   UNL     1       2.294   5.697  18.759  0.00  0.00    +0.000 A 
ATOM     22  C   UNL     1       2.477   4.709  17.801  0.00  0.00    +0.000 A 
ATOM     23  C   UNL     1       3.794   4.853  17.429  0.00  0.00    +0.000 A 
ATOM     24  O   UNL     1       4.655   3.837  17.235  0.00  0.00    +0.000 OA
ATOM     25  C   UNL     1       5.778   4.394  16.728  0.00  0.00    +0.000 A 
ATOM     26  C   UNL     1       5.600   5.751  16.508  0.00  0.00    +0.000 A 
ATOM     27  C   UNL     1       4.351   6.093  17.145  0.00  0.00    +0.000 A 
ATOM     28  C   UNL     1       3.610   7.275  17.551  0.00  0.00    +0.000 A 
ENDBRANCH  19  20
ENDBRANCH   9  19
TORSDOF 4
ENDMDL
MODEL 4
REMARK VINA RESULT:      -7.8      4.131     10.156
REMARK  Name = 
REMARK  6 active torsions:
REMARK  status: ('A' for Active; 'I' for Inactive)
REMARK    1  A    between atoms: C_1  and  N_2
REMARK    2  A    between atoms: N_2  and  C_3
REMARK    3  A    between atoms: N_6  and  C_7
REMARK    4  A    between atoms: C_7  and  C_8
REMARK    5  A    between atoms: N_16  and  C_17
REMARK    6  A    between atoms: C_17  and  C_18
REMARK                            x       y       z     vdW  Elec       q    Type
REMARK                         _______ _______ _______ _____ _____    ______ ____
ROOT
ATOM      1  C   UNL     1      -2.093  10.924  18.184  0.00  0.00    +0.000 A 
ATOM      2  C   UNL     1      -1.036  10.143  17.639  0.00  0.00    +0.000 A 
ATOM      3  C   UNL     1      -0.074  10.046  18.632  0.00  0.00    +0.000 A 
ATOM      4  N   UNL     1      -0.597  10.727  19.694  0.00  0.00    +0.000 N 
ATOM      5  N   UNL     1      -1.804  11.285  19.443  0.00  0.00    +0.000 NA
ATOM      6  C   UNL     1       0.036  11.000  20.963  0.00  0.00    +0.000 C 
ATOM      7  C   UNL     1       0.946   9.924  21.563  0.00  0.00    +0.000 C 
ATOM      8  C   UNL     1       0.974   8.551  20.878  0.00  0.00    +0.000 C 
ATOM      9  N   UNL     1       1.810   8.570  19.688  0.00  0.00    +0.000 NA
ATOM     10  C   UNL     1       1.327   9.495  18.601  0.00  0.00    +0.000 C 
ENDROOT
BRANCH   1  11
ATOM     11  C   UNL     1      -3.391  11.327  17.533  0.00  0.00    +0.000 C 
BRANCH  11  17
ATOM     12  C   UNL     1      -7.497  11.769  20.131  0.00  0.00    +0.000 C 
ATOM     13  N   UNL     1      -6.562  10.943  19.378  0.00  0.00    +0.000 N 
ATOM     14  C   UNL     1      -6.853   9.525  19.263  0.00  0.00    +0.000 C 
ATOM     15  C   UNL     1      -5.443  11.571  18.846  0.00  0.00    +0.000 C 
ATOM     16  O   UNL     1      -5.264  12.781  18.947  0.00  0.00    +0.000 OA
ATOM     17  N   UNL     1      -4.531  10.749  18.229  0.00  0.00    +0.000 N 
ATOM     18  H   UNL     1      -4.871   9.885  17.839  0.00  0.00    +0.000 HD
ENDBRANCH  11  17
ENDBRANCH   1  11
BRANCH   9  19
ATOM     19  C   UNL     1       2.010   7.252  19.074  0.00  0.00    +0.000 C 
BRANCH  19  20
ATOM     20  C   UNL     1       3.272   6.540  18.592  0.00  0.00    +0.000 A 
ATOM     21  C   UNL     1       3.544   5.469  19.455  0.00  0.00    +0.000 A 
ATOM     22  C   UNL     1       4.325   4.384  19.084  0.00  0.00    +0.000 A 
ATOM     23  C   UNL     1       5.489   4.958  18.628  0.00  0.00    +0.000 A 
ATOM     24  O   UNL     1       6.728   4.513  18.907  0.00  0.00    +0.000 OA
ATOM     25  C   UNL     1       7.568   5.248  18.143  0.00  0.00    +0.000 A 
ATOM     26  C   UNL     1       6.858   6.094  17.304  0.00  0.00    +0.000 A 
ATOM     27  C   UNL     1       5.488   6.038  17.756  0.00  0.00    +0.000 A 
ATOM     28  C   UNL     1       4.240   6.760  17.575  0.00  0.00    +0.000 A 
ENDBRANCH  19  20
ENDBRANCH   9  19
TORSDOF 4
ENDMDL
MODEL 5
REMARK VINA RESULT:      -7.8      2.521      9.115
REMARK  Name = 
REMARK  6 active torsions:
REMARK  status: ('A' for Active; 'I' for Inactive)
REMARK    1  A    between atoms: C_1  and  N_2
REMARK    2  A    between atoms: N_2  and  C_3
REMARK    3  A    between atoms: N_6  and  C_7
REMARK    4  A    between atoms: C_7  and  C_8
REMARK    5  A    between atoms: N_16  and  C_17
REMARK    6  A    between atoms: C_17  and  C_18
REMARK                            x       y       z     vdW  Elec       q    Type
REMARK                         _______ _______ _______ _____ _____    ______ ____
ROOT
ATOM      1  C   UNL     1       1.798   8.931  18.661  0.00  0.00    +0.000 A 
ATOM      2  C   UNL     1       2.756   8.194  17.911  0.00  0.00    +0.000 A 
ATOM      3  C   UNL     1       2.963   7.010  18.602  0.00  0.00    +0.000 A 
ATOM      4  N   UNL     1       2.126   7.084  19.679  0.00  0.00    +0.000 N 
ATOM      5  N   UNL     1       1.429   8.241  19.750  0.00  0.00    +0.000 NA
ATOM      6  C   UNL     1       2.006   6.142  20.766  0.00  0.00    +0.000 C 
ATOM      7  C   UNL     1       2.150   4.650  20.450  0.00  0.00    +0.000 C 
ATOM      8  C   UNL     1       2.218   4.238  18.973  0.00  0.00    +0.000 C 
ATOM      9  N   UNL     1       3.543   4.466  18.420  0.00  0.00    +0.000 NA
ATOM     10  C   UNL     1       3.971   5.910  18.401  0.00  0.00    +0.000 C 
ENDROOT
BRANCH   1  11
ATOM     11  C   UNL     1       1.209  10.284  18.354  0.00  0.00    +0.000 C 
BRANCH  11  17
ATOM     12  C   UNL     1      -3.535  11.414  18.208  0.00  0.00    +0.000 C 
ATOM     13  N   UNL     1      -2.370  10.776  17.608  0.00  0.00    +0.000 N 
ATOM     14  C   UNL     1      -2.553  10.083  16.345  0.00  0.00    +0.000 C 
ATOM     15  C   UNL     1      -1.171  10.856  18.306  0.00  0.00    +0.000 C 
ATOM     16  O   UNL     1      -1.067  11.483  19.356  0.00  0.00    +0.000 OA
ATOM     17  N   UNL     1      -0.117  10.160  17.765  0.00  0.00    +0.000 N 
ATOM     18  H   UNL     1      -0.125   9.998  16.772  0.00  0.00    +0.000 HD
ENDBRANCH  11  17
ENDBRANCH   1  11
BRANCH   9  19
ATOM     19  C   UNL     1       3.723   3.947  17.059  0.00  0.00    +0.000 C 
BRANCH  19  20
ATOM     20  C   UNL     1       4.917   3.987  16.109  0.00  0.00    +0.000 A 
ATOM     21  C   UNL     1       5.923   4.780  16.680  0.00  0.00    +0.000 A 
ATOM     22  C   UNL     1       7.258   4.680  16.315  0.00  0.00    +0.000 A 
ATOM     23  C   UNL     1       7.235   4.820  14.947  0.00  0.00    +0.000 A 
ATOM     24  O   UNL     1       8.105   5.560  14.234  0.00  0.00    +0.000 OA
ATOM     25  C   UNL     1       7.837   5.299  12.935  0.00  0.00    +0.000 A 
ATOM     26  C   UNL     1       6.862   4.320  12.819  0.00  0.00    +0.000 A 
ATOM     27  C   UNL     1       6.330   4.135  14.148  0.00  0.00    +0.000 A 
ATOM     28  C   UNL     1       5.194   3.506  14.801  0.00  0.00    +0.000 A 
ENDBRANCH  19  20
ENDBRANCH   9  19
TORSDOF 4
ENDMDL
MODEL 6
REMARK VINA RESULT:      -7.8      4.526      9.891
REMARK  Name = 
REMARK  6 active torsions:
REMARK  status: ('A' for Active; 'I' for Inactive)
REMARK    1  A    between atoms: C_1  and  N_2
REMARK    2  A    between atoms: N_2  and  C_3
REMARK    3  A    between atoms: N_6  and  C_7
REMARK    4  A    between atoms: C_7  and  C_8
REMARK    5  A    between atoms: N_16  and  C_17
REMARK    6  A    between atoms: C_17  and  C_18
REMARK                            x       y       z     vdW  Elec       q    Type
REMARK                         _______ _______ _______ _____ _____    ______ ____
ROOT
ATOM      1  C   UNL     1      -2.491  10.597  17.710  0.00  0.00    +0.000 A 
ATOM      2  C   UNL     1      -1.329  10.022  17.124  0.00  0.00    +0.000 A 
ATOM      3  C   UNL     1      -0.326  10.118  18.077  0.00  0.00    +0.000 A 
ATOM      4  N   UNL     1      -0.925  10.700  19.157  0.00  0.00    +0.000 N 
ATOM      5  N   UNL     1      -2.225  11.019  18.955  0.00  0.00    +0.000 NA
ATOM      6  C   UNL     1      -0.305  11.101  20.398  0.00  0.00    +0.000 C 
ATOM      7  C   UNL     1       0.815  10.222  20.964  0.00  0.00    +0.000 C 
ATOM      8  C   UNL     1       1.073   8.872  20.282  0.00  0.00    +0.000 C 
ATOM      9  N   UNL     1       1.843   9.034  19.059  0.00  0.00    +0.000 NA
ATOM     10  C   UNL     1       1.151   9.840  17.990  0.00  0.00    +0.000 C 
ENDROOT
BRANCH   1  11
ATOM     11  C   UNL     1      -3.867  10.741  17.112  0.00  0.00    +0.000 C 
BRANCH  11  17
ATOM     12  C   UNL     1      -7.613  11.760  20.067  0.00  0.00    +0.000 C 
ATOM     13  N   UNL     1      -6.767  10.785  19.391  0.00  0.00    +0.000 N 
ATOM     14  C   UNL     1      -7.044   9.378  19.617  0.00  0.00    +0.000 C 
ATOM     15  C   UNL     1      -5.738  11.277  18.598  0.00  0.00    +0.000 C 
ATOM     16  O   UNL     1      -5.570  12.479  18.417  0.00  0.00    +0.000 OA
ATOM     17  N   UNL     1      -4.898  10.334  18.056  0.00  0.00    +0.000 N 
ATOM     18  H   UNL     1      -5.268   9.410  17.905  0.00  0.00    +0.000 HD
ENDBRANCH  11  17
ENDBRANCH   1  11
BRANCH   9  19
ATOM     19  C   UNL     1       2.262   7.772  18.441  0.00  0.00    +0.000 C 
BRANCH  19  20
ATOM     20  C   UNL     1       2.370   6.356  19.001  0.00  0.00    +0.000 A 
ATOM     21  C   UNL     1       1.715   5.474  18.130  0.00  0.00    +0.000 A 
ATOM     22  C   UNL     1       1.983   4.112  18.096  0.00  0.00    +0.000 A 
ATOM     23  C   UNL     1       1.833   3.716  19.405  0.00  0.00    +0.000 A 
ATOM     24  O   UNL     1       1.205   2.593  19.802  0.00  0.00    +0.000 OA
ATOM     25  C   UNL     1       1.422   2.498  21.134  0.00  0.00    +0.000 A 
ATOM     26  C   UNL     1       2.268   3.507  21.569  0.00  0.00    +0.000 A 
ATOM     27  C   UNL     1       2.391   4.423  20.461  0.00  0.00    +0.000 A 
ATOM     28  C   UNL     1       2.874   5.768  20.193  0.00  0.00    +0.000 A 
ENDBRANCH  19  20
ENDBRANCH   9  19
TORSDOF 4
ENDMDL
MODEL 7
REMARK VINA RESULT:      -7.7      0.969      1.166
REMARK  Name = 
REMARK  6 active torsions:
REMARK  status: ('A' for Active; 'I' for Inactive)
REMARK    1  A    between atoms: C_1  and  N_2
REMARK    2  A    between atoms: N_2  and  C_3
REMARK    3  A    between atoms: N_6  and  C_7
REMARK    4  A    between atoms: C_7  and  C_8
REMARK    5  A    between atoms: N_16  and  C_17
REMARK    6  A    between atoms: C_17  and  C_18
REMARK                            x       y       z     vdW  Elec       q    Type
REMARK                         _______ _______ _______ _____ _____    ______ ____
ROOT
ATOM      1  C   UNL     1       5.844   4.790  18.023  0.00  0.00    +0.000 A 
ATOM      2  C   UNL     1       5.107   6.005  18.089  0.00  0.00    +0.000 A 
ATOM      3  C   UNL     1       3.842   5.667  18.544  0.00  0.00    +0.000 A 
ATOM      4  N   UNL     1       3.892   4.317  18.746  0.00  0.00    +0.000 N 
ATOM      5  N   UNL     1       5.081   3.760  18.419  0.00  0.00    +0.000 NA
ATOM      6  C   UNL     1       2.812   3.446  19.143  0.00  0.00    +0.000 C 
ATOM      7  C   UNL     1       1.782   3.980  20.143  0.00  0.00    +0.000 C 
ATOM      8  C   UNL     1       2.070   5.333  20.807  0.00  0.00    +0.000 C 
ATOM      9  N   UNL     1       1.753   6.439  19.917  0.00  0.00    +0.000 NA
ATOM     10  C   UNL     1       2.581   6.482  18.659  0.00  0.00    +0.000 C 
ENDROOT
BRANCH   1  11
ATOM     11  C   UNL     1       7.276   4.586  17.602  0.00  0.00    +0.000 C 
BRANCH  11  17
ATOM     12  C   UNL     1       6.086   3.637  12.966  0.00  0.00    +0.000 C 
ATOM     13  N   UNL     1       6.805   4.441  13.946  0.00  0.00    +0.000 N 
ATOM     14  C   UNL     1       7.629   5.531  13.453  0.00  0.00    +0.000 C 
ATOM     15  C   UNL     1       6.671   4.086  15.282  0.00  0.00    +0.000 C 
ATOM     16  O   UNL     1       5.935   3.174  15.645  0.00  0.00    +0.000 OA
ATOM     17  N   UNL     1       7.440   4.799  16.171  0.00  0.00    +0.000 N 
ATOM     18  H   UNL     1       7.710   5.733  15.910  0.00  0.00    +0.000 HD
ENDBRANCH  11  17
ENDBRANCH   1  11
BRANCH   9  19
ATOM     19  C   UNL     1       1.853   7.761  20.544  0.00  0.00    +0.000 C 
BRANCH  19  20
ATOM     20  C   UNL     1       0.788   8.791  20.912  0.00  0.00    +0.000 A 
ATOM     21  C   UNL     1       0.633   9.684  19.843  0.00  0.00    +0.000 A 
ATOM     22  C   UNL     1      -0.511  10.448  19.660  0.00  0.00    +0.000 A 
ATOM     23  C   UNL     1      -0.676  11.088  20.866  0.00  0.00    +0.000 A 
ATOM     24  O   UNL     1      -1.012  12.383  21.011  0.00  0.00    +0.000 OA
ATOM     25  C   UNL     1      -1.227  12.565  22.334  0.00  0.00    +0.000 A 
ATOM     26  C   UNL     1      -1.123  11.365  23.020  0.00  0.00    +0.000 A 
ATOM     27  C   UNL     1      -0.574  10.419  22.078  0.00  0.00    +0.000 A 
ATOM     28  C   UNL     1       0.021   9.093  22.070  0.00  0.00    +0.000 A 
ENDBRANCH  19  20
ENDBRANCH   9  19
TORSDOF 4
ENDMDL
MODEL 8
REMARK VINA RESULT:      -7.7      4.232     10.196
REMARK  Name = 
REMARK  6 active torsions:
REMARK  status: ('A' for Active; 'I' for Inactive)
REMARK    1  A    between atoms: C_1  and  N_2
REMARK    2  A    between atoms: N_2  and  C_3
REMARK    3  A    between atoms: N_6  and  C_7
REMARK    4  A    between atoms: C_7  and  C_8
REMARK    5  A    between atoms: N_16  and  C_17
REMARK    6  A    between atoms: C_17  and  C_18
REMARK                            x       y       z     vdW  Elec       q    Type
REMARK                         _______ _______ _______ _____ _____    ______ ____
ROOT
ATOM      1  C   UNL     1      -1.875  11.023  18.443  0.00  0.00    +0.000 A 
ATOM      2  C   UNL     1      -0.784  10.449  17.735  0.00  0.00    +0.000 A 
ATOM      3  C   UNL     1       0.162  10.107  18.690  0.00  0.00    +0.000 A 
ATOM      4  N   UNL     1      -0.404  10.458  19.883  0.00  0.00    +0.000 N 
ATOM      5  N   UNL     1      -1.624  11.032  19.761  0.00  0.00    +0.000 NA
ATOM      6  C   UNL     1       0.194  10.388  21.195  0.00  0.00    +0.000 C 
ATOM      7  C   UNL     1       1.125   9.212  21.504  0.00  0.00    +0.000 C 
ATOM      8  C   UNL     1       1.211   8.081  20.470  0.00  0.00    +0.000 C 
ATOM      9  N   UNL     1       2.070   8.446  19.355  0.00  0.00    +0.000 NA
ATOM     10  C   UNL     1       1.580   9.621  18.550  0.00  0.00    +0.000 C 
ENDROOT
BRANCH   1  11
ATOM     11  C   UNL     1      -3.172  11.556  17.891  0.00  0.00    +0.000 C 
BRANCH  11  17
ATOM     12  C   UNL     1      -7.480  11.637  20.180  0.00  0.00    +0.000 C 
ATOM     13  N   UNL     1      -6.068  11.994  20.134  0.00  0.00    +0.000 N 
ATOM     14  C   UNL     1      -5.529  12.767  21.239  0.00  0.00    +0.000 C 
ATOM     15  C   UNL     1      -5.346  11.591  19.018  0.00  0.00    +0.000 C 
ATOM     16  O   UNL     1      -5.846  10.911  18.127  0.00  0.00    +0.000 OA
ATOM     17  N   UNL     1      -4.045  12.029  18.956  0.00  0.00    +0.000 N 
ATOM     18  H   UNL     1      -3.579  12.232  19.825  0.00  0.00    +0.000 HD
ENDBRANCH  11  17
ENDBRANCH   1  11
BRANCH   9  19
ATOM     19  C   UNL     1       2.325   7.353  18.410  0.00  0.00    +0.000 C 
BRANCH  19  20
ATOM     20  C   UNL     1       2.324   5.837  18.590  0.00  0.00    +0.000 A 
ATOM     21  C   UNL     1       3.105   5.514  19.708  0.00  0.00    +0.000 A 
ATOM     22  C   UNL     1       2.971   4.318  20.400  0.00  0.00    +0.000 A 
ATOM     23  C   UNL     1       3.088   3.358  19.421  0.00  0.00    +0.000 A 
ATOM     24  O   UNL     1       3.797   2.221  19.540  0.00  0.00    +0.000 OA
ATOM     25  C   UNL     1       3.520   1.493  18.434  0.00  0.00    +0.000 A 
ATOM     26  C   UNL     1       2.560   2.123  17.657  0.00  0.00    +0.000 A 
ATOM     27  C   UNL     1       2.409   3.447  18.214  0.00  0.00    +0.000 A 
ATOM     28  C   UNL     1       1.815   4.726  17.864  0.00  0.00    +0.000 A 
ENDBRANCH  19  20
ENDBRANCH   9  19
TORSDOF 4
ENDMDL
MODEL 9
REMARK VINA RESULT:      -7.7      4.087      9.660
REMARK  Name = 
REMARK  6 active torsions:
REMARK  status: ('A' for Active; 'I' for Inactive)
REMARK    1  A    between atoms: C_1  and  N_2
REMARK    2  A    between atoms: N_2  and  C_3
REMARK    3  A    between atoms: N_6  and  C_7
REMARK    4  A    between atoms: C_7  and  C_8
REMARK    5  A    between atoms: N_16  and  C_17
REMARK    6  A    between atoms: C_17  and  C_18
REMARK                            x       y       z     vdW  Elec       q    Type
REMARK                         _______ _______ _______ _____ _____    ______ ____
ROOT
ATOM      1  C   UNL     1      -1.449  11.111  18.290  0.00  0.00    +0.000 A 
ATOM      2  C   UNL     1      -0.457  10.093  18.235  0.00  0.00    +0.000 A 
ATOM      3  C   UNL     1       0.036   9.963  19.524  0.00  0.00    +0.000 A 
ATOM      4  N   UNL     1      -0.680  10.860  20.265  0.00  0.00    +0.000 N 
ATOM      5  N   UNL     1      -1.567  11.580  19.540  0.00  0.00    +0.000 NA
ATOM      6  C   UNL     1      -0.508  11.185  21.661  0.00  0.00    +0.000 C 
ATOM      7  C   UNL     1      -0.126  10.057  22.624  0.00  0.00    +0.000 C 
ATOM      8  C   UNL     1      -0.142   8.621  22.082  0.00  0.00    +0.000 C 
ATOM      9  N   UNL     1       1.052   8.336  21.303  0.00  0.00    +0.000 NA
ATOM     10  C   UNL     1       1.203   9.178  20.063  0.00  0.00    +0.000 C 
ENDROOT
BRANCH   1  11
ATOM     11  C   UNL     1      -2.306  11.643  17.170  0.00  0.00    +0.000 C 
BRANCH  11  17
ATOM     12  C   UNL     1      -6.804  10.593  18.742  0.00  0.00    +0.000 C 
ATOM     13  N   UNL     1      -5.738  11.561  18.520  0.00  0.00    +0.000 N 
ATOM     14  C   UNL     1      -5.993  12.943  18.887  0.00  0.00    +0.000 C 
ATOM     15  C   UNL     1      -4.563  11.094  17.946  0.00  0.00    +0.000 C 
ATOM     16  O   UNL     1      -4.391   9.907  17.685  0.00  0.00    +0.000 OA
ATOM     17  N   UNL     1      -3.617  12.048  17.657  0.00  0.00    +0.000 N 
ATOM     18  H   UNL     1      -3.622  12.891  18.206  0.00  0.00    +0.000 HD
ENDBRANCH  11  17
ENDBRANCH   1  11
BRANCH   9  19
ATOM     19  C   UNL     1       1.179   6.934  20.890  0.00  0.00    +0.000 C 
BRANCH  19  20
ATOM     20  C   UNL     1       2.218   6.222  20.027  0.00  0.00    +0.000 A 
ATOM     21  C   UNL     1       2.506   4.976  20.602  0.00  0.00    +0.000 A 
ATOM     22  C   UNL     1       3.051   3.922  19.882  0.00  0.00    +0.000 A 
ATOM     23  C   UNL     1       4.170   4.468  19.298  0.00  0.00    +0.000 A 
ATOM     24  O   UNL     1       5.370   3.863  19.219  0.00  0.00    +0.000 OA
ATOM     25  C   UNL     1       6.136   4.657  18.438  0.00  0.00    +0.000 A 
ATOM     26  C   UNL     1       5.397   5.719  17.939  0.00  0.00    +0.000 A 
ATOM     27  C   UNL     1       4.145   5.699  18.657  0.00  0.00    +0.000 A 
ATOM     28  C   UNL     1       2.992   6.555  18.883  0.00  0.00    +0.000 A 
ENDBRANCH  19  20
ENDBRANCH   9  19
TORSDOF 4
ENDMDL
