MODEL 1
REMARK VINA RESULT:      -9.4      0.000      0.000
REMARK  Name = 
REMARK  3 active torsions:
REMARK  status: ('A' for Active; 'I' for Inactive)
REMARK    1  A    between atoms: C_1  and  C_2
REMARK    2  A    between atoms: C_4  and  N_5
REMARK    3  A    between atoms: C_6  and  C_8
REMARK                            x       y       z     vdW  Elec       q    Type
REMARK                         _______ _______ _______ _____ _____    ______ ____
ROOT
ATOM      1  C   UNL     1       2.523   6.965  19.742  0.00  0.00    +0.000 C 
ATOM      2  C   UNL     1       3.266   7.060  18.412  0.00  0.00    +0.000 C 
ATOM      3  O   UNL     1       3.584   8.102  17.862  0.00  0.00    +0.000 OA
ATOM      4  N   UNL     1       3.500   5.739  18.005  0.00  0.00    +0.000 N 
ATOM      5  C   UNL     1       4.305   5.247  16.958  0.00  0.00    +0.000 A 
ATOM      6  C   UNL     1       5.022   6.122  16.130  0.00  0.00    +0.000 A 
ATOM      7  C   UNL     1       5.855   5.633  15.124  0.00  0.00    +0.000 A 
ATOM      8  C   UNL     1       5.979   4.263  14.947  0.00  0.00    +0.000 A 
ATOM      9  F   UNL     1       6.789   3.794  13.991  0.00  0.00    +0.000 F 
ATOM     10  C   UNL     1       5.279   3.371  15.752  0.00  0.00    +0.000 A 
ATOM     11  C   UNL     1       4.428   3.849  16.763  0.00  0.00    +0.000 A 
ATOM     12  C   UNL     1       3.689   2.846  17.632  0.00  0.00    +0.000 C 
ATOM     13  C   UNL     1       2.800   3.472  18.666  0.00  0.00    +0.000 A 
ATOM     14  C   UNL     1       2.003   2.748  19.554  0.00  0.00    +0.000 A 
ATOM     15  C   UNL     1       1.243   3.417  20.536  0.00  0.00    +0.000 A 
ATOM     16  C   UNL     1       1.288   4.820  20.667  0.00  0.00    +0.000 A 
ATOM     17  C   UNL     1       2.075   5.528  19.787  0.00  0.00    +0.000 A 
ATOM     18  C   UNL     1       2.795   4.843  18.807  0.00  0.00    +0.000 A 
ENDROOT
BRANCH   1  20
ATOM     19  N   UNL     1       1.220   8.937  19.014  0.00  0.00    +0.000 N 
ATOM     20  C   UNL     1       1.550   8.071  20.045  0.00  0.00    +0.000 C 
ATOM     21  O   UNL     1       1.118   8.144  21.198  0.00  0.00    +0.000 OA
ATOM     22  H   UNL     1       1.707   8.861  18.129  0.00  0.00    +0.000 HD
BRANCH  19  26
ATOM     23  C   UNL     1      -2.816  12.007  19.044  0.00  0.00    +0.000 C 
ATOM     24  C   UNL     1      -1.429  11.491  19.200  0.00  0.00    +0.000 A 
ATOM     25  C   UNL     1      -0.959  10.161  18.905  0.00  0.00    +0.000 A 
ATOM     26  C   UNL     1       0.393  10.049  19.164  0.00  0.00    +0.000 A 
ATOM     27  S   UNL     1       0.941  11.555  19.750  0.00  0.00    +0.000 S 
ATOM     28  N   UNL     1      -0.511  12.335  19.669  0.00  0.00    +0.000 NA
ENDBRANCH  19  26
ENDBRANCH   1  20
TORSDOF 2
ENDMDL
MODEL 2
REMARK VINA RESULT:      -8.9      1.687      1.718
REMARK  Name = 
REMARK  3 active torsions:
REMARK  status: ('A' for Active; 'I' for Inactive)
REMARK    1  A    between atoms: C_1  and  C_2
REMARK    2  A    between atoms: C_4  and  N_5
REMARK    3  A    between atoms: C_6  and  C_8
REMARK                            x       y       z     vdW  Elec       q    Type
REMARK                         _______ _______ _______ _____ _____    ______ ____
ROOT
ATOM      1  C   UNL     1       2.617   6.968  19.751  0.00  0.00    +0.000 C 
ATOM      2  C   UNL     1       3.352   7.043  18.415  0.00  0.00    +0.000 C 
ATOM      3  O   UNL     1       3.702   8.076  17.866  0.00  0.00    +0.000 OA
ATOM      4  N   UNL     1       3.538   5.716  18.001  0.00  0.00    +0.000 N 
ATOM      5  C   UNL     1       4.317   5.202  16.946  0.00  0.00    +0.000 A 
ATOM      6  C   UNL     1       5.058   6.055  16.116  0.00  0.00    +0.000 A 
ATOM      7  C   UNL     1       5.865   5.541  15.101  0.00  0.00    +0.000 A 
ATOM      8  C   UNL     1       5.940   4.169  14.917  0.00  0.00    +0.000 A 
ATOM      9  F   UNL     1       6.727   3.677  13.953  0.00  0.00    +0.000 F 
ATOM     10  C   UNL     1       5.217   3.298  15.725  0.00  0.00    +0.000 A 
ATOM     11  C   UNL     1       4.390   3.801  16.744  0.00  0.00    +0.000 A 
ATOM     12  C   UNL     1       3.625   2.820  17.616  0.00  0.00    +0.000 C 
ATOM     13  C   UNL     1       2.765   3.472  18.659  0.00  0.00    +0.000 A 
ATOM     14  C   UNL     1       1.951   2.772  19.551  0.00  0.00    +0.000 A 
ATOM     15  C   UNL     1       1.223   3.462  20.541  0.00  0.00    +0.000 A 
ATOM     16  C   UNL     1       1.317   4.863  20.677  0.00  0.00    +0.000 A 
ATOM     17  C   UNL     1       2.121   5.547  19.793  0.00  0.00    +0.000 A 
ATOM     18  C   UNL     1       2.809   4.842  18.805  0.00  0.00    +0.000 A 
ENDROOT
BRANCH   1  20
ATOM     19  N   UNL     1       1.674   8.586  21.367  0.00  0.00    +0.000 N 
ATOM     20  C   UNL     1       1.685   8.105  20.066  0.00  0.00    +0.000 C 
ATOM     21  O   UNL     1       0.977   8.527  19.149  0.00  0.00    +0.000 OA
ATOM     22  H   UNL     1       2.214   8.104  22.076  0.00  0.00    +0.000 HD
BRANCH  19  26
ATOM     23  C   UNL     1      -0.914  12.922  21.818  0.00  0.00    +0.000 C 
ATOM     24  C   UNL     1      -0.399  11.549  22.068  0.00  0.00    +0.000 A 
ATOM     25  C   UNL     1       0.571  10.830  21.283  0.00  0.00    +0.000 A 
ATOM     26  C   UNL     1       0.813   9.581  21.824  0.00  0.00    +0.000 A 
ATOM     27  S   UNL     1      -0.171   9.410  23.207  0.00  0.00    +0.000 S 
ATOM     28  N   UNL     1      -0.883  10.897  23.124  0.00  0.00    +0.000 NA
ENDBRANCH  19  26
ENDBRANCH   1  20
TORSDOF 2
ENDMDL
MODEL 3
REMARK VINA RESULT:      -8.3      1.541      1.568
REMARK  Name = 
REMARK  3 active torsions:
REMARK  status: ('A' for Active; 'I' for Inactive)
REMARK    1  A    between atoms: C_1  and  C_2
REMARK    2  A    between atoms: C_4  and  N_5
REMARK    3  A    between atoms: C_6  and  C_8
REMARK                            x       y       z     vdW  Elec       q    Type
REMARK                         _______ _______ _______ _____ _____    ______ ____
ROOT
ATOM      1  C   UNL     1       2.471   7.430  19.658  0.00  0.00    +0.000 C 
ATOM      2  C   UNL     1       3.209   7.421  18.322  0.00  0.00    +0.000 C 
ATOM      3  O   UNL     1       3.517   8.417  17.686  0.00  0.00    +0.000 OA
ATOM      4  N   UNL     1       3.455   6.072  18.025  0.00  0.00    +0.000 N 
ATOM      5  C   UNL     1       4.260   5.503  17.019  0.00  0.00    +0.000 A 
ATOM      6  C   UNL     1       4.968   6.312  16.119  0.00  0.00    +0.000 A 
ATOM      7  C   UNL     1       5.801   5.748  15.154  0.00  0.00    +0.000 A 
ATOM      8  C   UNL     1       5.937   4.370  15.091  0.00  0.00    +0.000 A 
ATOM      9  F   UNL     1       6.749   3.830  14.174  0.00  0.00    +0.000 F 
ATOM     10  C   UNL     1       5.248   3.541  15.970  0.00  0.00    +0.000 A 
ATOM     11  C   UNL     1       4.395   4.094  16.941  0.00  0.00    +0.000 A 
ATOM     12  C   UNL     1       3.668   3.160  17.893  0.00  0.00    +0.000 C 
ATOM     13  C   UNL     1       2.776   3.862  18.875  0.00  0.00    +0.000 A 
ATOM     14  C   UNL     1       1.988   3.208  19.822  0.00  0.00    +0.000 A 
ATOM     15  C   UNL     1       1.226   3.949  20.749  0.00  0.00    +0.000 A 
ATOM     16  C   UNL     1       1.258   5.359  20.762  0.00  0.00    +0.000 A 
ATOM     17  C   UNL     1       2.037   5.998  19.823  0.00  0.00    +0.000 A 
ATOM     18  C   UNL     1       2.760   5.241  18.901  0.00  0.00    +0.000 A 
ENDROOT
BRANCH   1  20
ATOM     19  N   UNL     1       1.489   9.176  21.108  0.00  0.00    +0.000 N 
ATOM     20  C   UNL     1       1.489   8.548  19.872  0.00  0.00    +0.000 C 
ATOM     21  O   UNL     1       0.736   8.826  18.936  0.00  0.00    +0.000 OA
ATOM     22  H   UNL     1       2.072   8.807  21.850  0.00  0.00    +0.000 HD
BRANCH  19  26
ATOM     23  C   UNL     1      -2.283  11.708  23.359  0.00  0.00    +0.000 C 
ATOM     24  C   UNL     1      -1.126  11.375  22.485  0.00  0.00    +0.000 A 
ATOM     25  C   UNL     1      -0.431  10.116  22.408  0.00  0.00    +0.000 A 
ATOM     26  C   UNL     1       0.588  10.173  21.477  0.00  0.00    +0.000 A 
ATOM     27  S   UNL     1       0.603  11.745  20.813  0.00  0.00    +0.000 S 
ATOM     28  N   UNL     1      -0.665  12.337  21.687  0.00  0.00    +0.000 NA
ENDBRANCH  19  26
ENDBRANCH   1  20
TORSDOF 2
ENDMDL
MODEL 4
REMARK VINA RESULT:      -7.5      4.214      9.382
REMARK  Name = 
REMARK  3 active torsions:
REMARK  status: ('A' for Active; 'I' for Inactive)
REMARK    1  A    between atoms: C_1  and  C_2
REMARK    2  A    between atoms: C_4  and  N_5
REMARK    3  A    between atoms: C_6  and  C_8
REMARK                            x       y       z     vdW  Elec       q    Type
REMARK                         _______ _______ _______ _____ _____    ______ ____
ROOT
ATOM      1  C   UNL     1       0.427  10.469  18.650  0.00  0.00    +0.000 C 
ATOM      2  C   UNL     1       0.325  11.001  20.077  0.00  0.00    +0.000 C 
ATOM      3  O   UNL     1       1.217  10.948  20.909  0.00  0.00    +0.000 OA
ATOM      4  N   UNL     1      -0.959  11.553  20.193  0.00  0.00    +0.000 N 
ATOM      5  C   UNL     1      -1.513  12.342  21.221  0.00  0.00    +0.000 A 
ATOM      6  C   UNL     1      -0.757  12.685  22.350  0.00  0.00    +0.000 A 
ATOM      7  C   UNL     1      -1.290  13.504  23.345  0.00  0.00    +0.000 A 
ATOM      8  C   UNL     1      -2.581  13.990  23.210  0.00  0.00    +0.000 A 
ATOM      9  F   UNL     1      -3.087  14.788  24.158  0.00  0.00    +0.000 F 
ATOM     10  C   UNL     1      -3.356  13.666  22.101  0.00  0.00    +0.000 A 
ATOM     11  C   UNL     1      -2.836  12.833  21.096  0.00  0.00    +0.000 A 
ATOM     12  C   UNL     1      -3.705  12.510  19.892  0.00  0.00    +0.000 C 
ATOM     13  C   UNL     1      -3.051  11.601  18.892  0.00  0.00    +0.000 A 
ATOM     14  C   UNL     1      -3.669  11.146  17.727  0.00  0.00    +0.000 A 
ATOM     15  C   UNL     1      -2.958  10.343  16.811  0.00  0.00    +0.000 A 
ATOM     16  C   UNL     1      -1.607  10.003  17.030  0.00  0.00    +0.000 A 
ATOM     17  C   UNL     1      -1.004  10.455  18.182  0.00  0.00    +0.000 A 
ATOM     18  C   UNL     1      -1.739  11.225  19.085  0.00  0.00    +0.000 A 
ENDROOT
BRANCH   1  20
ATOM     19  N   UNL     1       1.389   8.350  19.487  0.00  0.00    +0.000 N 
ATOM     20  C   UNL     1       1.302   9.263  18.447  0.00  0.00    +0.000 C 
ATOM     21  O   UNL     1       1.898   9.172  17.371  0.00  0.00    +0.000 OA
ATOM     22  H   UNL     1       0.947   8.566  20.372  0.00  0.00    +0.000 HD
BRANCH  19  26
ATOM     23  C   UNL     1       5.105   5.083  18.380  0.00  0.00    +0.000 C 
ATOM     24  C   UNL     1       3.904   5.702  19.002  0.00  0.00    +0.000 A 
ATOM     25  C   UNL     1       3.338   6.992  18.701  0.00  0.00    +0.000 A 
ATOM     26  C   UNL     1       2.216   7.229  19.472  0.00  0.00    +0.000 A 
ATOM     27  S   UNL     1       1.982   5.876  20.485  0.00  0.00    +0.000 S 
ATOM     28  N   UNL     1       3.276   5.004  19.948  0.00  0.00    +0.000 NA
ENDBRANCH  19  26
ENDBRANCH   1  20
TORSDOF 2
ENDMDL
MODEL 5
REMARK VINA RESULT:      -7.4      3.574      5.758
REMARK  Name = 
REMARK  3 active torsions:
REMARK  status: ('A' for Active; 'I' for Inactive)
REMARK    1  A    between atoms: C_1  and  C_2
REMARK    2  A    between atoms: C_4  and  N_5
REMARK    3  A    between atoms: C_6  and  C_8
REMARK                            x       y       z     vdW  Elec       q    Type
REMARK                         _______ _______ _______ _____ _____    ______ ____
ROOT
ATOM      1  C   UNL     1       0.866  12.033  19.871  0.00  0.00    +0.000 C 
ATOM      2  C   UNL     1       1.413  10.990  18.899  0.00  0.00    +0.000 C 
ATOM      3  O   UNL     1       1.812  11.228  17.770  0.00  0.00    +0.000 OA
ATOM      4  N   UNL     1       1.369   9.765  19.581  0.00  0.00    +0.000 N 
ATOM      5  C   UNL     1       1.923   8.518  19.231  0.00  0.00    +0.000 A 
ATOM      6  C   UNL     1       2.644   8.360  18.040  0.00  0.00    +0.000 A 
ATOM      7  C   UNL     1       3.231   7.137  17.717  0.00  0.00    +0.000 A 
ATOM      8  C   UNL     1       3.105   6.068  18.590  0.00  0.00    +0.000 A 
ATOM      9  F   UNL     1       3.681   4.899  18.286  0.00  0.00    +0.000 F 
ATOM     10  C   UNL     1       2.395   6.194  19.779  0.00  0.00    +0.000 A 
ATOM     11  C   UNL     1       1.788   7.417  20.113  0.00  0.00    +0.000 A 
ATOM     12  C   UNL     1       1.031   7.523  21.426  0.00  0.00    +0.000 C 
ATOM     13  C   UNL     1       0.414   8.870  21.668  0.00  0.00    +0.000 A 
ATOM     14  C   UNL     1      -0.352   9.190  22.790  0.00  0.00    +0.000 A 
ATOM     15  C   UNL     1      -0.842  10.500  22.968  0.00  0.00    +0.000 A 
ATOM     16  C   UNL     1      -0.552  11.522  22.040  0.00  0.00    +0.000 A 
ATOM     17  C   UNL     1       0.203  11.199  20.936  0.00  0.00    +0.000 A 
ATOM     18  C   UNL     1       0.652   9.889  20.770  0.00  0.00    +0.000 A 
ENDROOT
BRANCH   1  20
ATOM     19  N   UNL     1       0.502  14.471  19.675  0.00  0.00    +0.000 N 
ATOM     20  C   UNL     1       0.139  13.199  19.261  0.00  0.00    +0.000 C 
ATOM     21  O   UNL     1      -0.746  12.947  18.440  0.00  0.00    +0.000 OA
ATOM     22  H   UNL     1       1.167  14.573  20.433  0.00  0.00    +0.000 HD
BRANCH  19  26
ATOM     23  C   UNL     1      -0.759  18.630  17.064  0.00  0.00    +0.000 C 
ATOM     24  C   UNL     1      -0.749  17.551  18.088  0.00  0.00    +0.000 A 
ATOM     25  C   UNL     1       0.155  16.432  18.161  0.00  0.00    +0.000 A 
ATOM     26  C   UNL     1      -0.131  15.639  19.256  0.00  0.00    +0.000 A 
ATOM     27  S   UNL     1      -1.468  16.326  20.064  0.00  0.00    +0.000 S 
ATOM     28  N   UNL     1      -1.674  17.608  19.045  0.00  0.00    +0.000 NA
ENDBRANCH  19  26
ENDBRANCH   1  20
TORSDOF 2
ENDMDL
MODEL 6
REMARK VINA RESULT:      -7.4      4.195      9.322
REMARK  Name = 
REMARK  3 active torsions:
REMARK  status: ('A' for Active; 'I' for Inactive)
REMARK    1  A    between atoms: C_1  and  C_2
REMARK    2  A    between atoms: C_4  and  N_5
REMARK    3  A    between atoms: C_6  and  C_8
REMARK                            x       y       z     vdW  Elec       q    Type
REMARK                         _______ _______ _______ _____ _____    ______ ____
ROOT
ATOM      1  C   UNL     1       0.714  10.101  19.294  0.00  0.00    +0.000 C 
ATOM      2  C   UNL     1       0.449  10.744  20.653  0.00  0.00    +0.000 C 
ATOM      3  O   UNL     1       1.191  10.669  21.619  0.00  0.00    +0.000 OA
ATOM      4  N   UNL     1      -0.774  11.420  20.529  0.00  0.00    +0.000 N 
ATOM      5  C   UNL     1      -1.394  12.330  21.407  0.00  0.00    +0.000 A 
ATOM      6  C   UNL     1      -0.790  12.684  22.621  0.00  0.00    +0.000 A 
ATOM      7  C   UNL     1      -1.382  13.620  23.469  0.00  0.00    +0.000 A 
ATOM      8  C   UNL     1      -2.580  14.213  23.100  0.00  0.00    +0.000 A 
ATOM      9  F   UNL     1      -3.140  15.123  23.906  0.00  0.00    +0.000 F 
ATOM     10  C   UNL     1      -3.204  13.882  21.902  0.00  0.00    +0.000 A 
ATOM     11  C   UNL     1      -2.624  12.931  21.043  0.00  0.00    +0.000 A 
ATOM     12  C   UNL     1      -3.327  12.603  19.736  0.00  0.00    +0.000 C 
ATOM     13  C   UNL     1      -2.624  11.566  18.909  0.00  0.00    +0.000 A 
ATOM     14  C   UNL     1      -3.099  11.085  17.688  0.00  0.00    +0.000 A 
ATOM     15  C   UNL     1      -2.343  10.155  16.947  0.00  0.00    +0.000 A 
ATOM     16  C   UNL     1      -1.085   9.708  17.399  0.00  0.00    +0.000 A 
ATOM     17  C   UNL     1      -0.623  10.185  18.605  0.00  0.00    +0.000 A 
ATOM     18  C   UNL     1      -1.403  11.084  19.332  0.00  0.00    +0.000 A 
ENDROOT
BRANCH   1  20
ATOM     19  N   UNL     1       2.060   8.394  18.115  0.00  0.00    +0.000 N 
ATOM     20  C   UNL     1       1.480   8.807  19.305  0.00  0.00    +0.000 C 
ATOM     21  O   UNL     1       1.530   8.188  20.370  0.00  0.00    +0.000 OA
ATOM     22  H   UNL     1       1.874   8.916  17.266  0.00  0.00    +0.000 HD
BRANCH  19  26
ATOM     23  C   UNL     1       3.184   3.451  18.003  0.00  0.00    +0.000 C 
ATOM     24  C   UNL     1       3.292   4.930  17.882  0.00  0.00    +0.000 A 
ATOM     25  C   UNL     1       2.270   5.902  18.175  0.00  0.00    +0.000 A 
ATOM     26  C   UNL     1       2.733   7.185  17.954  0.00  0.00    +0.000 A 
ATOM     27  S   UNL     1       4.344   7.072  17.401  0.00  0.00    +0.000 S 
ATOM     28  N   UNL     1       4.451   5.425  17.449  0.00  0.00    +0.000 NA
ENDBRANCH  19  26
ENDBRANCH   1  20
TORSDOF 2
ENDMDL
MODEL 7
REMARK VINA RESULT:      -7.3      4.083      8.267
REMARK  Name = 
REMARK  3 active torsions:
REMARK  status: ('A' for Active; 'I' for Inactive)
REMARK    1  A    between atoms: C_1  and  C_2
REMARK    2  A    between atoms: C_4  and  N_5
REMARK    3  A    between atoms: C_6  and  C_8
REMARK                            x       y       z     vdW  Elec       q    Type
REMARK                         _______ _______ _______ _____ _____    ______ ____
ROOT
ATOM      1  C   UNL     1       1.052   9.010  19.458  0.00  0.00    +0.000 C 
ATOM      2  C   UNL     1       1.714  10.249  18.860  0.00  0.00    +0.000 C 
ATOM      3  O   UNL     1       2.488  10.241  17.916  0.00  0.00    +0.000 OA
ATOM      4  N   UNL     1       1.234  11.339  19.600  0.00  0.00    +0.000 N 
ATOM      5  C   UNL     1       1.366  12.721  19.359  0.00  0.00    +0.000 A 
ATOM      6  C   UNL     1       2.069  13.192  18.242  0.00  0.00    +0.000 A 
ATOM      7  C   UNL     1       2.160  14.559  17.979  0.00  0.00    +0.000 A 
ATOM      8  C   UNL     1       1.541  15.460  18.831  0.00  0.00    +0.000 A 
ATOM      9  F   UNL     1       1.616  16.771  18.569  0.00  0.00    +0.000 F 
ATOM     10  C   UNL     1       0.837  15.023  19.948  0.00  0.00    +0.000 A 
ATOM     11  C   UNL     1       0.746  13.649  20.232  0.00  0.00    +0.000 A 
ATOM     12  C   UNL     1      -0.041  13.206  21.453  0.00  0.00    +0.000 C 
ATOM     13  C   UNL     1      -0.057  11.720  21.664  0.00  0.00    +0.000 A 
ATOM     14  C   UNL     1      -0.689  11.088  22.735  0.00  0.00    +0.000 A 
ATOM     15  C   UNL     1      -0.707   9.680  22.822  0.00  0.00    +0.000 A 
ATOM     16  C   UNL     1      -0.116   8.878  21.824  0.00  0.00    +0.000 A 
ATOM     17  C   UNL     1       0.507   9.508  20.771  0.00  0.00    +0.000 A 
ATOM     18  C   UNL     1       0.534  10.902  20.724  0.00  0.00    +0.000 A 
ENDROOT
BRANCH   1  20
ATOM     19  N   UNL     1       2.191   7.244  18.153  0.00  0.00    +0.000 N 
ATOM     20  C   UNL     1       1.847   7.734  19.404  0.00  0.00    +0.000 C 
ATOM     21  O   UNL     1       2.130   7.198  20.478  0.00  0.00    +0.000 OA
ATOM     22  H   UNL     1       1.822   7.698  17.326  0.00  0.00    +0.000 HD
BRANCH  19  26
ATOM     23  C   UNL     1       3.242   2.307  17.678  0.00  0.00    +0.000 C 
ATOM     24  C   UNL     1       3.385   3.788  17.711  0.00  0.00    +0.000 A 
ATOM     25  C   UNL     1       2.354   4.753  17.994  0.00  0.00    +0.000 A 
ATOM     26  C   UNL     1       2.858   6.039  17.944  0.00  0.00    +0.000 A 
ATOM     27  S   UNL     1       4.514   5.938  17.545  0.00  0.00    +0.000 S 
ATOM     28  N   UNL     1       4.589   4.292  17.445  0.00  0.00    +0.000 NA
ENDBRANCH  19  26
ENDBRANCH   1  20
TORSDOF 2
ENDMDL
MODEL 8
REMARK VINA RESULT:      -7.2      4.308      9.392
REMARK  Name = 
REMARK  3 active torsions:
REMARK  status: ('A' for Active; 'I' for Inactive)
REMARK    1  A    between atoms: C_1  and  C_2
REMARK    2  A    between atoms: C_4  and  N_5
REMARK    3  A    between atoms: C_6  and  C_8
REMARK                            x       y       z     vdW  Elec       q    Type
REMARK                         _______ _______ _______ _____ _____    ______ ____
ROOT
ATOM      1  C   UNL     1       0.694  10.197  19.254  0.00  0.00    +0.000 C 
ATOM      2  C   UNL     1       0.439  10.835  20.618  0.00  0.00    +0.000 C 
ATOM      3  O   UNL     1       1.206  10.788  21.566  0.00  0.00    +0.000 OA
ATOM      4  N   UNL     1      -0.808  11.470  20.520  0.00  0.00    +0.000 N 
ATOM      5  C   UNL     1      -1.438  12.361  21.410  0.00  0.00    +0.000 A 
ATOM      6  C   UNL     1      -0.818  12.739  22.610  0.00  0.00    +0.000 A 
ATOM      7  C   UNL     1      -1.422  13.657  23.468  0.00  0.00    +0.000 A 
ATOM      8  C   UNL     1      -2.647  14.208  23.126  0.00  0.00    +0.000 A 
ATOM      9  F   UNL     1      -3.218  15.101  23.943  0.00  0.00    +0.000 F 
ATOM     10  C   UNL     1      -3.287  13.853  21.943  0.00  0.00    +0.000 A 
ATOM     11  C   UNL     1      -2.695  12.920  21.073  0.00  0.00    +0.000 A 
ATOM     12  C   UNL     1      -3.416  12.565  19.783  0.00  0.00    +0.000 C 
ATOM     13  C   UNL     1      -2.699  11.549  18.943  0.00  0.00    +0.000 A 
ATOM     14  C   UNL     1      -3.185  11.050  17.734  0.00  0.00    +0.000 A 
ATOM     15  C   UNL     1      -2.415  10.143  16.977  0.00  0.00    +0.000 A 
ATOM     16  C   UNL     1      -1.133   9.739  17.402  0.00  0.00    +0.000 A 
ATOM     17  C   UNL     1      -0.659  10.235  18.596  0.00  0.00    +0.000 A 
ATOM     18  C   UNL     1      -1.453  11.110  19.338  0.00  0.00    +0.000 A 
ENDROOT
BRANCH   1  20
ATOM     19  N   UNL     1       2.136   8.575  18.068  0.00  0.00    +0.000 N 
ATOM     20  C   UNL     1       1.503   8.930  19.250  0.00  0.00    +0.000 C 
ATOM     21  O   UNL     1       1.540   8.278  20.297  0.00  0.00    +0.000 OA
ATOM     22  H   UNL     1       1.960   9.118  17.231  0.00  0.00    +0.000 HD
BRANCH  19  26
ATOM     23  C   UNL     1       5.797   5.253  16.940  0.00  0.00    +0.000 C 
ATOM     24  C   UNL     1       4.505   5.836  17.395  0.00  0.00    +0.000 A 
ATOM     25  C   UNL     1       4.140   7.229  17.413  0.00  0.00    +0.000 A 
ATOM     26  C   UNL     1       2.855   7.394  17.892  0.00  0.00    +0.000 A 
ATOM     27  S   UNL     1       2.239   5.851  18.282  0.00  0.00    +0.000 S 
ATOM     28  N   UNL     1       3.578   4.991  17.843  0.00  0.00    +0.000 NA
ENDBRANCH  19  26
ENDBRANCH   1  20
TORSDOF 2
ENDMDL
MODEL 9
REMARK VINA RESULT:      -7.2      4.216      8.543
REMARK  Name = 
REMARK  3 active torsions:
REMARK  status: ('A' for Active; 'I' for Inactive)
REMARK    1  A    between atoms: C_1  and  C_2
REMARK    2  A    between atoms: C_4  and  N_5
REMARK    3  A    between atoms: C_6  and  C_8
REMARK                            x       y       z     vdW  Elec       q    Type
REMARK                         _______ _______ _______ _____ _____    ______ ____
ROOT
ATOM      1  C   UNL     1       0.928   9.256  19.609  0.00  0.00    +0.000 C 
ATOM      2  C   UNL     1       1.458  10.593  19.098  0.00  0.00    +0.000 C 
ATOM      3  O   UNL     1       2.203  10.730  18.141  0.00  0.00    +0.000 OA
ATOM      4  N   UNL     1       0.902  11.574  19.932  0.00  0.00    +0.000 N 
ATOM      5  C   UNL     1       0.901  12.976  19.799  0.00  0.00    +0.000 A 
ATOM      6  C   UNL     1       1.527  13.596  18.708  0.00  0.00    +0.000 A 
ATOM      7  C   UNL     1       1.487  14.981  18.552  0.00  0.00    +0.000 A 
ATOM      8  C   UNL     1       0.812  15.753  19.486  0.00  0.00    +0.000 A 
ATOM      9  F   UNL     1       0.761  17.081  19.328  0.00  0.00    +0.000 F 
ATOM     10  C   UNL     1       0.182  15.167  20.579  0.00  0.00    +0.000 A 
ATOM     11  C   UNL     1       0.224  13.773  20.754  0.00  0.00    +0.000 A 
ATOM     12  C   UNL     1      -0.486  13.166  21.953  0.00  0.00    +0.000 C 
ATOM     13  C   UNL     1      -0.361  11.673  22.045  0.00  0.00    +0.000 A 
ATOM     14  C   UNL     1      -0.904  10.904  23.075  0.00  0.00    +0.000 A 
ATOM     15  C   UNL     1      -0.792   9.499  23.050  0.00  0.00    +0.000 A 
ATOM     16  C   UNL     1      -0.158   8.834  21.980  0.00  0.00    +0.000 A 
ATOM     17  C   UNL     1       0.376   9.599  20.968  0.00  0.00    +0.000 A 
ATOM     18  C   UNL     1       0.275  10.989  21.031  0.00  0.00    +0.000 A 
ENDROOT
BRANCH   1  20
ATOM     19  N   UNL     1       2.226   7.739  18.148  0.00  0.00    +0.000 N 
ATOM     20  C   UNL     1       1.833   8.068  19.437  0.00  0.00    +0.000 C 
ATOM     21  O   UNL     1       2.157   7.452  20.455  0.00  0.00    +0.000 OA
ATOM     22  H   UNL     1       1.822   8.241  17.366  0.00  0.00    +0.000 HD
BRANCH  19  26
ATOM     23  C   UNL     1       6.061   4.756  16.699  0.00  0.00    +0.000 C 
ATOM     24  C   UNL     1       4.729   5.218  17.177  0.00  0.00    +0.000 A 
ATOM     25  C   UNL     1       4.308   6.579  17.390  0.00  0.00    +0.000 A 
ATOM     26  C   UNL     1       2.998   6.625  17.828  0.00  0.00    +0.000 A 
ATOM     27  S   UNL     1       2.429   5.021  17.948  0.00  0.00    +0.000 S 
ATOM     28  N   UNL     1       3.819   4.284  17.447  0.00  0.00    +0.000 NA
ENDBRANCH  19  26
ENDBRANCH   1  20
TORSDOF 2
ENDMDL
