MODEL 1
REMARK VINA RESULT:      -7.5      0.000      0.000
REMARK  Name = 
REMARK  5 active torsions:
REMARK  status: ('A' for Active; 'I' for Inactive)
REMARK    1  A    between atoms: C_1  and  C_2
REMARK    2  A    between atoms: C_5  and  C_6
REMARK    3  A    between atoms: C_7  and  N_8
REMARK    4  A    between atoms: N_15  and  C_16
REMARK    5  A    between atoms: C_16  and  C_17
REMARK                            x       y       z     vdW  Elec       q    Type
REMARK                         _______ _______ _______ _____ _____    ______ ____
ROOT
ATOM      1  N   UNL     1       4.553   3.808  17.936  0.00  0.00    +0.000 N 
ATOM      2  C   UNL     1       3.254   3.722  17.131  0.00  0.00    +0.000 C 
ATOM      3  C   UNL     1       1.839   3.405  17.951  0.00  0.00    +0.000 C 
ATOM      4  C   UNL     1       1.717   2.192  18.926  0.00  0.00    +0.000 C 
ATOM      5  C   UNL     1       2.401   2.500  20.283  0.00  0.00    +0.000 C 
ATOM      6  C   UNL     1       3.318   3.732  20.085  0.00  0.00    +0.000 C 
ATOM      7  C   UNL     1       4.361   3.044  19.119  0.00  0.00    +0.000 C 
ATOM      8  N   UNL     1       2.420   4.959  19.746  0.00  0.00    +0.000 NA
ATOM      9  C   UNL     1       1.355   4.530  18.855  0.00  0.00    +0.000 C 
ENDROOT
BRANCH   1  16
ATOM     10  C   UNL     1       8.454   5.575  20.217  0.00  0.00    +0.000 C 
ATOM     11  C   UNL     1       7.403   5.715  19.155  0.00  0.00    +0.000 A 
ATOM     12  C   UNL     1       7.700   6.543  18.096  0.00  0.00    +0.000 A 
ATOM     13  N   UNL     1       6.907   6.633  17.036  0.00  0.00    +0.000 NA
ATOM     14  C   UNL     1       5.829   5.798  16.993  0.00  0.00    +0.000 A 
ATOM     15  C   UNL     1       5.197   5.965  15.643  0.00  0.00    +0.000 C 
ATOM     16  C   UNL     1       5.503   4.853  18.045  0.00  0.00    +0.000 A 
ATOM     17  N   UNL     1       6.281   4.917  19.172  0.00  0.00    +0.000 NA
ENDBRANCH   1  16
BRANCH   8  18
ATOM     18  C   UNL     1       3.036   6.143  19.126  0.00  0.00    +0.000 C 
BRANCH  18  19
ATOM     19  C   UNL     1       2.303   7.158  18.271  0.00  0.00    +0.000 C 
ATOM     20  C   UNL     1       1.815   8.550  18.700  0.00  0.00    +0.000 C 
ATOM     21  C   UNL     1       2.873   8.373  17.625  0.00  0.00    +0.000 C 
ENDBRANCH  18  19
ENDBRANCH   8  18
TORSDOF 3
ENDMDL
MODEL 2
REMARK VINA RESULT:      -6.4      1.577      3.510
REMARK  Name = 
REMARK  5 active torsions:
REMARK  status: ('A' for Active; 'I' for Inactive)
REMARK    1  A    between atoms: C_1  and  C_2
REMARK    2  A    between atoms: C_5  and  C_6
REMARK    3  A    between atoms: C_7  and  N_8
REMARK    4  A    between atoms: N_15  and  C_16
REMARK    5  A    between atoms: C_16  and  C_17
REMARK                            x       y       z     vdW  Elec       q    Type
REMARK                         _______ _______ _______ _____ _____    ______ ____
ROOT
ATOM      1  N   UNL     1       2.998   4.405  17.203  0.00  0.00    +0.000 N 
ATOM      2  C   UNL     1       2.142   5.051  18.296  0.00  0.00    +0.000 C 
ATOM      3  C   UNL     1       1.922   4.216  19.720  0.00  0.00    +0.000 C 
ATOM      4  C   UNL     1       1.424   2.736  19.727  0.00  0.00    +0.000 C 
ATOM      5  C   UNL     1       2.575   1.761  19.367  0.00  0.00    +0.000 C 
ATOM      6  C   UNL     1       3.719   2.591  18.731  0.00  0.00    +0.000 C 
ATOM      7  C   UNL     1       2.950   3.000  17.413  0.00  0.00    +0.000 C 
ATOM      8  N   UNL     1       4.276   3.564  19.813  0.00  0.00    +0.000 NA
ATOM      9  C   UNL     1       3.165   4.088  20.589  0.00  0.00    +0.000 C 
ENDROOT
BRANCH   1  16
ATOM     10  C   UNL     1       6.294   3.699  13.713  0.00  0.00    +0.000 C 
ATOM     11  C   UNL     1       5.767   4.532  14.846  0.00  0.00    +0.000 A 
ATOM     12  C   UNL     1       6.122   5.861  14.853  0.00  0.00    +0.000 A 
ATOM     13  N   UNL     1       5.604   6.718  15.723  0.00  0.00    +0.000 NA
ATOM     14  C   UNL     1       4.628   6.247  16.554  0.00  0.00    +0.000 A 
ATOM     15  C   UNL     1       4.090   7.424  17.311  0.00  0.00    +0.000 C 
ATOM     16  C   UNL     1       4.161   4.874  16.545  0.00  0.00    +0.000 A 
ATOM     17  N   UNL     1       4.841   4.013  15.723  0.00  0.00    +0.000 NA
ENDBRANCH   1  16
BRANCH   8  18
ATOM     18  C   UNL     1       5.074   4.722  19.384  0.00  0.00    +0.000 C 
BRANCH  18  19
ATOM     19  C   UNL     1       6.589   4.776  19.361  0.00  0.00    +0.000 C 
ATOM     20  C   UNL     1       7.501   4.678  18.130  0.00  0.00    +0.000 C 
ATOM     21  C   UNL     1       7.446   5.934  18.982  0.00  0.00    +0.000 C 
ENDBRANCH  18  19
ENDBRANCH   8  18
TORSDOF 3
ENDMDL
MODEL 3
REMARK VINA RESULT:      -6.2      1.772      5.492
REMARK  Name = 
REMARK  5 active torsions:
REMARK  status: ('A' for Active; 'I' for Inactive)
REMARK    1  A    between atoms: C_1  and  C_2
REMARK    2  A    between atoms: C_5  and  C_6
REMARK    3  A    between atoms: C_7  and  N_8
REMARK    4  A    between atoms: N_15  and  C_16
REMARK    5  A    between atoms: C_16  and  C_17
REMARK                            x       y       z     vdW  Elec       q    Type
REMARK                         _______ _______ _______ _____ _____    ______ ____
ROOT
ATOM      1  N   UNL     1       4.755   5.683  18.429  0.00  0.00    +0.000 N 
ATOM      2  C   UNL     1       5.205   6.890  17.601  0.00  0.00    +0.000 C 
ATOM      3  C   UNL     1       6.834   7.077  17.304  0.00  0.00    +0.000 C 
ATOM      4  C   UNL     1       7.881   7.047  18.462  0.00  0.00    +0.000 C 
ATOM      5  C   UNL     1       8.161   5.593  18.920  0.00  0.00    +0.000 C 
ATOM      6  C   UNL     1       7.027   4.693  18.367  0.00  0.00    +0.000 C 
ATOM      7  C   UNL     1       5.858   5.299  19.239  0.00  0.00    +0.000 C 
ATOM      8  N   UNL     1       7.115   4.699  16.812  0.00  0.00    +0.000 NA
ATOM      9  C   UNL     1       7.439   6.043  16.365  0.00  0.00    +0.000 C 
ENDROOT
BRANCH   1  16
ATOM     10  C   UNL     1       3.711   0.951  18.677  0.00  0.00    +0.000 C 
ATOM     11  C   UNL     1       3.335   2.338  18.242  0.00  0.00    +0.000 A 
ATOM     12  C   UNL     1       1.996   2.578  18.033  0.00  0.00    +0.000 A 
ATOM     13  N   UNL     1       1.536   3.798  17.783  0.00  0.00    +0.000 NA
ATOM     14  C   UNL     1       2.434   4.824  17.836  0.00  0.00    +0.000 A 
ATOM     15  C   UNL     1       1.655   6.097  17.692  0.00  0.00    +0.000 C 
ATOM     16  C   UNL     1       3.845   4.642  18.122  0.00  0.00    +0.000 A 
ATOM     17  N   UNL     1       4.275   3.344  18.226  0.00  0.00    +0.000 NA
ENDBRANCH   1  16
BRANCH   8  18
ATOM     18  C   UNL     1       5.945   4.267  16.032  0.00  0.00    +0.000 C 
BRANCH  18  19
ATOM     19  C   UNL     1       5.709   4.583  14.568  0.00  0.00    +0.000 C 
ATOM     20  C   UNL     1       6.609   4.206  13.382  0.00  0.00    +0.000 C 
ATOM     21  C   UNL     1       5.198   3.661  13.516  0.00  0.00    +0.000 C 
ENDBRANCH  18  19
ENDBRANCH   8  18
TORSDOF 3
ENDMDL
MODEL 4
REMARK VINA RESULT:      -6.0      1.870      5.362
REMARK  Name = 
REMARK  5 active torsions:
REMARK  status: ('A' for Active; 'I' for Inactive)
REMARK    1  A    between atoms: C_1  and  C_2
REMARK    2  A    between atoms: C_5  and  C_6
REMARK    3  A    between atoms: C_7  and  N_8
REMARK    4  A    between atoms: N_15  and  C_16
REMARK    5  A    between atoms: C_16  and  C_17
REMARK                            x       y       z     vdW  Elec       q    Type
REMARK                         _______ _______ _______ _____ _____    ______ ____
ROOT
ATOM      1  N   UNL     1       4.877   5.570  18.696  0.00  0.00    +0.000 N 
ATOM      2  C   UNL     1       4.820   6.613  17.577  0.00  0.00    +0.000 C 
ATOM      3  C   UNL     1       6.258   7.180  16.955  0.00  0.00    +0.000 C 
ATOM      4  C   UNL     1       7.382   7.738  17.884  0.00  0.00    +0.000 C 
ATOM      5  C   UNL     1       8.164   6.584  18.564  0.00  0.00    +0.000 C 
ATOM      6  C   UNL     1       7.324   5.291  18.418  0.00  0.00    +0.000 C 
ATOM      7  C   UNL     1       6.128   5.730  19.351  0.00  0.00    +0.000 C 
ATOM      8  N   UNL     1       7.230   4.938  16.903  0.00  0.00    +0.000 NA
ATOM      9  C   UNL     1       7.052   6.166  16.146  0.00  0.00    +0.000 C 
ENDROOT
BRANCH   1  16
ATOM     10  C   UNL     1       5.001   1.181  20.761  0.00  0.00    +0.000 C 
ATOM     11  C   UNL     1       4.380   2.132  19.779  0.00  0.00    +0.000 A 
ATOM     12  C   UNL     1       3.083   1.870  19.401  0.00  0.00    +0.000 A 
ATOM     13  N   UNL     1       2.390   2.716  18.650  0.00  0.00    +0.000 NA
ATOM     14  C   UNL     1       2.984   3.907  18.345  0.00  0.00    +0.000 A 
ATOM     15  C   UNL     1       1.955   4.745  17.646  0.00  0.00    +0.000 C 
ATOM     16  C   UNL     1       4.321   4.270  18.775  0.00  0.00    +0.000 A 
ATOM     17  N   UNL     1       5.031   3.292  19.422  0.00  0.00    +0.000 NA
ENDBRANCH   1  16
BRANCH   8  18
ATOM     18  C   UNL     1       6.181   4.011  16.453  0.00  0.00    +0.000 C 
BRANCH  18  19
ATOM     19  C   UNL     1       5.990   3.540  15.024  0.00  0.00    +0.000 C 
ATOM     20  C   UNL     1       5.158   4.222  13.928  0.00  0.00    +0.000 C 
ATOM     21  C   UNL     1       6.663   4.065  13.803  0.00  0.00    +0.000 C 
ENDBRANCH  18  19
ENDBRANCH   8  18
TORSDOF 3
ENDMDL
MODEL 5
REMARK VINA RESULT:      -6.0      1.463      4.634
REMARK  Name = 
REMARK  5 active torsions:
REMARK  status: ('A' for Active; 'I' for Inactive)
REMARK    1  A    between atoms: C_1  and  C_2
REMARK    2  A    between atoms: C_5  and  C_6
REMARK    3  A    between atoms: C_7  and  N_8
REMARK    4  A    between atoms: N_15  and  C_16
REMARK    5  A    between atoms: C_16  and  C_17
REMARK                            x       y       z     vdW  Elec       q    Type
REMARK                         _______ _______ _______ _____ _____    ______ ____
ROOT
ATOM      1  N   UNL     1       5.036   4.174  18.706  0.00  0.00    +0.000 N 
ATOM      2  C   UNL     1       6.112   5.223  19.000  0.00  0.00    +0.000 C 
ATOM      3  C   UNL     1       6.696   6.129  17.730  0.00  0.00    +0.000 C 
ATOM      4  C   UNL     1       7.224   5.455  16.424  0.00  0.00    +0.000 C 
ATOM      5  C   UNL     1       6.050   4.998  15.520  0.00  0.00    +0.000 C 
ATOM      6  C   UNL     1       4.762   4.993  16.382  0.00  0.00    +0.000 C 
ATOM      7  C   UNL     1       5.175   3.806  17.340  0.00  0.00    +0.000 C 
ATOM      8  N   UNL     1       4.455   6.459  16.810  0.00  0.00    +0.000 NA
ATOM      9  C   UNL     1       5.705   7.122  17.140  0.00  0.00    +0.000 C 
ENDROOT
BRANCH   1  16
ATOM     10  C   UNL     1       1.334   6.152  21.141  0.00  0.00    +0.000 C 
ATOM     11  C   UNL     1       1.931   4.974  20.426  0.00  0.00    +0.000 A 
ATOM     12  C   UNL     1       1.049   4.042  19.928  0.00  0.00    +0.000 A 
ATOM     13  N   UNL     1       1.453   3.037  19.162  0.00  0.00    +0.000 NA
ATOM     14  C   UNL     1       2.771   3.018  18.806  0.00  0.00    +0.000 A 
ATOM     15  C   UNL     1       2.943   1.904  17.817  0.00  0.00    +0.000 C 
ATOM     16  C   UNL     1       3.735   4.013  19.240  0.00  0.00    +0.000 A 
ATOM     17  N   UNL     1       3.278   4.936  20.145  0.00  0.00    +0.000 NA
ENDBRANCH   1  16
BRANCH   8  18
ATOM     18  C   UNL     1       3.543   6.694  17.939  0.00  0.00    +0.000 C 
BRANCH  18  19
ATOM     19  C   UNL     1       2.326   7.598  17.902  0.00  0.00    +0.000 C 
ATOM     20  C   UNL     1       1.876   8.590  18.984  0.00  0.00    +0.000 C 
ATOM     21  C   UNL     1       2.295   9.057  17.601  0.00  0.00    +0.000 C 
ENDBRANCH  18  19
ENDBRANCH   8  18
TORSDOF 3
ENDMDL
MODEL 6
REMARK VINA RESULT:      -6.0      1.595      4.903
REMARK  Name = 
REMARK  5 active torsions:
REMARK  status: ('A' for Active; 'I' for Inactive)
REMARK    1  A    between atoms: C_1  and  C_2
REMARK    2  A    between atoms: C_5  and  C_6
REMARK    3  A    between atoms: C_7  and  N_8
REMARK    4  A    between atoms: N_15  and  C_16
REMARK    5  A    between atoms: C_16  and  C_17
REMARK                            x       y       z     vdW  Elec       q    Type
REMARK                         _______ _______ _______ _____ _____    ______ ____
ROOT
ATOM      1  N   UNL     1       4.669   6.524  17.865  0.00  0.00    +0.000 N 
ATOM      2  C   UNL     1       4.799   6.625  16.343  0.00  0.00    +0.000 C 
ATOM      3  C   UNL     1       5.796   5.542  15.564  0.00  0.00    +0.000 C 
ATOM      4  C   UNL     1       7.274   5.325  16.018  0.00  0.00    +0.000 C 
ATOM      5  C   UNL     1       7.341   4.432  17.284  0.00  0.00    +0.000 C 
ATOM      6  C   UNL     1       5.924   4.386  17.908  0.00  0.00    +0.000 C 
ATOM      7  C   UNL     1       5.855   5.903  18.344  0.00  0.00    +0.000 C 
ATOM      8  N   UNL     1       4.971   3.672  16.904  0.00  0.00    +0.000 NA
ATOM      9  C   UNL     1       5.301   4.103  15.556  0.00  0.00    +0.000 C 
ENDROOT
BRANCH   1  16
ATOM     10  C   UNL     1       2.625   4.182  21.592  0.00  0.00    +0.000 C 
ATOM     11  C   UNL     1       2.530   5.207  20.499  0.00  0.00    +0.000 A 
ATOM     12  C   UNL     1       1.589   6.199  20.661  0.00  0.00    +0.000 A 
ATOM     13  N   UNL     1       1.512   7.231  19.831  0.00  0.00    +0.000 NA
ATOM     14  C   UNL     1       2.468   7.322  18.861  0.00  0.00    +0.000 A 
ATOM     15  C   UNL     1       2.271   8.639  18.172  0.00  0.00    +0.000 C 
ATOM     16  C   UNL     1       3.528   6.347  18.684  0.00  0.00    +0.000 A 
ATOM     17  N   UNL     1       3.460   5.234  19.483  0.00  0.00    +0.000 NA
ENDBRANCH   1  16
BRANCH   8  18
ATOM     18  C   UNL     1       3.518   3.843  17.056  0.00  0.00    +0.000 C 
BRANCH  18  19
ATOM     19  C   UNL     1       2.537   2.728  17.365  0.00  0.00    +0.000 C 
ATOM     20  C   UNL     1       2.478   1.873  18.638  0.00  0.00    +0.000 C 
ATOM     21  C   UNL     1       1.340   2.799  18.248  0.00  0.00    +0.000 C 
ENDBRANCH  18  19
ENDBRANCH   8  18
TORSDOF 3
ENDMDL
MODEL 7
REMARK VINA RESULT:      -5.8      1.581      5.053
REMARK  Name = 
REMARK  5 active torsions:
REMARK  status: ('A' for Active; 'I' for Inactive)
REMARK    1  A    between atoms: C_1  and  C_2
REMARK    2  A    between atoms: C_5  and  C_6
REMARK    3  A    between atoms: C_7  and  N_8
REMARK    4  A    between atoms: N_15  and  C_16
REMARK    5  A    between atoms: C_16  and  C_17
REMARK                            x       y       z     vdW  Elec       q    Type
REMARK                         _______ _______ _______ _____ _____    ______ ____
ROOT
ATOM      1  N   UNL     1       4.776   6.172  18.913  0.00  0.00    +0.000 N 
ATOM      2  C   UNL     1       4.976   6.983  17.629  0.00  0.00    +0.000 C 
ATOM      3  C   UNL     1       6.010   6.380  16.470  0.00  0.00    +0.000 C 
ATOM      4  C   UNL     1       7.465   5.942  16.827  0.00  0.00    +0.000 C 
ATOM      5  C   UNL     1       7.474   4.553  17.516  0.00  0.00    +0.000 C 
ATOM      6  C   UNL     1       6.030   4.245  17.984  0.00  0.00    +0.000 C 
ATOM      7  C   UNL     1       5.939   5.374  19.086  0.00  0.00    +0.000 C 
ATOM      8  N   UNL     1       5.125   4.115  16.723  0.00  0.00    +0.000 NA
ATOM      9  C   UNL     1       5.517   5.129  15.758  0.00  0.00    +0.000 C 
ENDROOT
BRANCH   1  16
ATOM     10  C   UNL     1       2.752   2.729  21.669  0.00  0.00    +0.000 C 
ATOM     11  C   UNL     1       2.611   3.975  20.843  0.00  0.00    +0.000 A 
ATOM     12  C   UNL     1       1.513   4.765  21.099  0.00  0.00    +0.000 A 
ATOM     13  N   UNL     1       1.360   5.953  20.529  0.00  0.00    +0.000 NA
ATOM     14  C   UNL     1       2.385   6.406  19.750  0.00  0.00    +0.000 A 
ATOM     15  C   UNL     1       2.055   7.818  19.367  0.00  0.00    +0.000 C 
ATOM     16  C   UNL     1       3.598   5.651  19.501  0.00  0.00    +0.000 A 
ATOM     17  N   UNL     1       3.624   4.374  20.001  0.00  0.00    +0.000 NA
ENDBRANCH   1  16
BRANCH   8  18
ATOM     18  C   UNL     1       3.667   4.223  16.878  0.00  0.00    +0.000 C 
BRANCH  18  19
ATOM     19  C   UNL     1       2.705   3.052  16.910  0.00  0.00    +0.000 C 
ATOM     20  C   UNL     1       2.744   1.847  17.861  0.00  0.00    +0.000 C 
ATOM     21  C   UNL     1       1.586   2.829  17.868  0.00  0.00    +0.000 C 
ENDBRANCH  18  19
ENDBRANCH   8  18
TORSDOF 3
ENDMDL
MODEL 8
REMARK VINA RESULT:      -5.7      1.373      3.099
REMARK  Name = 
REMARK  5 active torsions:
REMARK  status: ('A' for Active; 'I' for Inactive)
REMARK    1  A    between atoms: C_1  and  C_2
REMARK    2  A    between atoms: C_5  and  C_6
REMARK    3  A    between atoms: C_7  and  N_8
REMARK    4  A    between atoms: N_15  and  C_16
REMARK    5  A    between atoms: C_16  and  C_17
REMARK                            x       y       z     vdW  Elec       q    Type
REMARK                         _______ _______ _______ _____ _____    ______ ____
ROOT
ATOM      1  N   UNL     1       3.674   4.692  19.661  0.00  0.00    +0.000 N 
ATOM      2  C   UNL     1       3.646   3.208  20.038  0.00  0.00    +0.000 C 
ATOM      3  C   UNL     1       2.572   2.214  19.242  0.00  0.00    +0.000 C 
ATOM      4  C   UNL     1       1.055   2.569  19.141  0.00  0.00    +0.000 C 
ATOM      5  C   UNL     1       0.809   3.653  18.059  0.00  0.00    +0.000 C 
ATOM      6  C   UNL     1       2.173   4.309  17.726  0.00  0.00    +0.000 C 
ATOM      7  C   UNL     1       2.397   5.009  19.124  0.00  0.00    +0.000 C 
ATOM      8  N   UNL     1       3.089   3.228  17.079  0.00  0.00    +0.000 NA
ATOM      9  C   UNL     1       2.891   1.968  17.775  0.00  0.00    +0.000 C 
ENDROOT
BRANCH   1  16
ATOM     10  C   UNL     1       8.459   5.223  19.053  0.00  0.00    +0.000 C 
ATOM     11  C   UNL     1       7.067   5.767  18.904  0.00  0.00    +0.000 A 
ATOM     12  C   UNL     1       6.881   6.734  17.942  0.00  0.00    +0.000 A 
ATOM     13  N   UNL     1       5.672   7.184  17.629  0.00  0.00    +0.000 NA
ATOM     14  C   UNL     1       4.608   6.579  18.233  0.00  0.00    +0.000 A 
ATOM     15  C   UNL     1       3.368   7.136  17.599  0.00  0.00    +0.000 C 
ATOM     16  C   UNL     1       4.737   5.506  19.201  0.00  0.00    +0.000 A 
ATOM     17  N   UNL     1       6.016   5.193  19.584  0.00  0.00    +0.000 NA
ENDBRANCH   1  16
BRANCH   8  18
ATOM     18  C   UNL     1       4.541   3.460  17.034  0.00  0.00    +0.000 C 
BRANCH  18  19
ATOM     19  C   UNL     1       5.362   3.600  15.767  0.00  0.00    +0.000 C 
ATOM     20  C   UNL     1       5.567   4.871  14.931  0.00  0.00    +0.000 C 
ATOM     21  C   UNL     1       6.725   4.186  15.635  0.00  0.00    +0.000 C 
ENDBRANCH  18  19
ENDBRANCH   8  18
TORSDOF 3
ENDMDL
MODEL 9
REMARK VINA RESULT:      -5.4      9.466     11.890
REMARK  Name = 
REMARK  5 active torsions:
REMARK  status: ('A' for Active; 'I' for Inactive)
REMARK    1  A    between atoms: C_1  and  C_2
REMARK    2  A    between atoms: C_5  and  C_6
REMARK    3  A    between atoms: C_7  and  N_8
REMARK    4  A    between atoms: N_15  and  C_16
REMARK    5  A    between atoms: C_16  and  C_17
REMARK                            x       y       z     vdW  Elec       q    Type
REMARK                         _______ _______ _______ _____ _____    ______ ____
ROOT
ATOM      1  N   UNL     1       9.340  14.374  17.915  0.00  0.00    +0.000 N 
ATOM      2  C   UNL     1       8.606  13.233  18.625  0.00  0.00    +0.000 C 
ATOM      3  C   UNL     1       9.507  11.959  19.208  0.00  0.00    +0.000 C 
ATOM      4  C   UNL     1      10.521  11.197  18.298  0.00  0.00    +0.000 C 
ATOM      5  C   UNL     1      11.832  12.007  18.128  0.00  0.00    +0.000 C 
ATOM      6  C   UNL     1      11.551  13.464  18.573  0.00  0.00    +0.000 C 
ATOM      7  C   UNL     1      10.553  13.835  17.406  0.00  0.00    +0.000 C 
ATOM      8  N   UNL     1      11.224  13.454  20.096  0.00  0.00    +0.000 NA
ATOM      9  C   UNL     1      10.402  12.293  20.392  0.00  0.00    +0.000 C 
ENDROOT
BRANCH   1  16
ATOM     10  C   UNL     1      11.661  18.603  17.389  0.00  0.00    +0.000 C 
ATOM     11  C   UNL     1      10.498  17.823  17.933  0.00  0.00    +0.000 A 
ATOM     12  C   UNL     1       9.354  18.535  18.214  0.00  0.00    +0.000 A 
ATOM     13  N   UNL     1       8.226  17.933  18.566  0.00  0.00    +0.000 NA
ATOM     14  C   UNL     1       8.216  16.568  18.545  0.00  0.00    +0.000 A 
ATOM     15  C   UNL     1       6.806  16.134  18.809  0.00  0.00    +0.000 C 
ATOM     16  C   UNL     1       9.370  15.763  18.188  0.00  0.00    +0.000 A 
ATOM     17  N   UNL     1      10.539  16.448  17.979  0.00  0.00    +0.000 NA
ENDBRANCH   1  16
BRANCH   8  18
ATOM     18  C   UNL     1      10.539  14.615  20.685  0.00  0.00    +0.000 C 
BRANCH  18  19
ATOM     19  C   UNL     1       9.688  14.580  21.939  0.00  0.00    +0.000 C 
ATOM     20  C   UNL     1       9.247  15.777  22.794  0.00  0.00    +0.000 C 
ATOM     21  C   UNL     1       8.240  14.912  22.057  0.00  0.00    +0.000 C 
ENDBRANCH  18  19
ENDBRANCH   8  18
TORSDOF 3
ENDMDL
