MODEL 1
REMARK VINA RESULT:      -6.3      0.000      0.000
REMARK  Name = 
REMARK  12 active torsions:
REMARK  status: ('A' for Active; 'I' for Inactive)
REMARK    1  A    between atoms: C_1  and  C_2
REMARK    2  A    between atoms: C_2  and  N_3
REMARK    3  A    between atoms: N_3  and  C_4
REMARK    4  A    between atoms: N_3  and  C_6
REMARK    5  A    between atoms: C_4  and  C_5
REMARK    6  A    between atoms: C_6  and  C_7
REMARK    7  A    between atoms: C_7  and  N_8
REMARK    8  A    between atoms: N_8  and  C_22
REMARK    9  A    between atoms: C_9  and  C_11
REMARK   10  A    between atoms: C_14  and  N_15
REMARK   11  A    between atoms: N_15  and  S_16
REMARK   12  A    between atoms: S_16  and  C_17
REMARK                            x       y       z     vdW  Elec       q    Type
REMARK                         _______ _______ _______ _____ _____    ______ ____
ROOT
ATOM      1  N   UNL     1      -0.562  12.419  18.990  0.00  0.00    +0.000 N 
ATOM      2  C   UNL     1       0.064  13.675  18.822  0.00  0.00    +0.000 C 
ATOM      3  O   UNL     1      -0.569  14.654  18.417  0.00  0.00    +0.000 OA
ENDROOT
BRANCH   1   4
ATOM      4  C   UNL     1       0.112  11.240  19.420  0.00  0.00    +0.000 A 
ATOM      5  C   UNL     1       0.799  10.517  18.430  0.00  0.00    +0.000 A 
ATOM      6  C   UNL     1       1.455   9.337  18.752  0.00  0.00    +0.000 A 
ATOM      7  C   UNL     1       1.321   8.808  20.031  0.00  0.00    +0.000 A 
ATOM      8  C   UNL     1       0.571   9.470  21.016  0.00  0.00    +0.000 A 
ATOM      9  C   UNL     1       0.358   8.857  22.261  0.00  0.00    +0.000 A 
ATOM     10  C   UNL     1      -0.338   9.512  23.273  0.00  0.00    +0.000 A 
ATOM     11  C   UNL     1      -0.778  10.815  23.071  0.00  0.00    +0.000 A 
ATOM     12  C   UNL     1      -0.609  11.427  21.824  0.00  0.00    +0.000 A 
ATOM     13  C   UNL     1       0.014  10.747  20.751  0.00  0.00    +0.000 A 
ENDBRANCH   1   4
BRANCH   2  14
ATOM     14  C   UNL     1       1.535  13.926  19.097  0.00  0.00    +0.000 A 
ATOM     15  C   UNL     1       2.553  13.916  18.149  0.00  0.00    +0.000 A 
ATOM     16  C   UNL     1       3.872  14.245  18.455  0.00  0.00    +0.000 A 
ATOM     17  C   UNL     1       4.211  14.628  19.740  0.00  0.00    +0.000 A 
ATOM     18  C   UNL     1       3.231  14.660  20.728  0.00  0.00    +0.000 A 
ATOM     19  C   UNL     1       1.904  14.304  20.410  0.00  0.00    +0.000 A 
BRANCH  17  20
ATOM     20  N   UNL     1       5.546  15.059  19.965  0.00  0.00    +0.000 N 
ATOM     21  H   UNL     1       5.877  15.059  20.931  0.00  0.00    +0.000 HD
BRANCH  20  22
ATOM     22  S   UNL     1       6.079  16.431  19.142  0.00  0.00    +0.000 S 
ATOM     23  C   UNL     1       7.149  17.205  20.340  0.00  0.00    +0.000 C 
ATOM     24  O   UNL     1       6.855  16.043  17.987  0.00  0.00    +0.000 OA
ATOM     25  O   UNL     1       4.901  17.272  19.005  0.00  0.00    +0.000 OA
ENDBRANCH  20  22
ENDBRANCH  17  20
ENDBRANCH   2  14
BRANCH   1  26
ATOM     26  C   UNL     1      -1.972  12.126  18.576  0.00  0.00    +0.000 C 
BRANCH  26  27
ATOM     27  C   UNL     1      -2.250  11.417  17.232  0.00  0.00    +0.000 C 
BRANCH  27  28
ATOM     28  N   UNL     1      -3.610  10.822  17.075  0.00  0.00    +0.000 NA
BRANCH  28  30
ATOM     29  C   UNL     1      -5.930  11.040  18.097  0.00  0.00    +0.000 C 
ATOM     30  C   UNL     1      -4.589  11.691  17.766  0.00  0.00    +0.000 C 
ENDBRANCH  28  30
BRANCH  28  31
ATOM     31  C   UNL     1      -3.989  10.498  15.692  0.00  0.00    +0.000 C 
ATOM     32  C   UNL     1      -2.847  10.267  14.708  0.00  0.00    +0.000 C 
ENDBRANCH  28  31
ENDBRANCH  27  28
ENDBRANCH  26  27
ENDBRANCH   1  26
TORSDOF 9
ENDMDL
MODEL 2
REMARK VINA RESULT:      -6.3      6.473      9.655
REMARK  Name = 
REMARK  12 active torsions:
REMARK  status: ('A' for Active; 'I' for Inactive)
REMARK    1  A    between atoms: C_1  and  C_2
REMARK    2  A    between atoms: C_2  and  N_3
REMARK    3  A    between atoms: N_3  and  C_4
REMARK    4  A    between atoms: N_3  and  C_6
REMARK    5  A    between atoms: C_4  and  C_5
REMARK    6  A    between atoms: C_6  and  C_7
REMARK    7  A    between atoms: C_7  and  N_8
REMARK    8  A    between atoms: N_8  and  C_22
REMARK    9  A    between atoms: C_9  and  C_11
REMARK   10  A    between atoms: C_14  and  N_15
REMARK   11  A    between atoms: N_15  and  S_16
REMARK   12  A    between atoms: S_16  and  C_17
REMARK                            x       y       z     vdW  Elec       q    Type
REMARK                         _______ _______ _______ _____ _____    ______ ____
ROOT
ATOM      1  N   UNL     1       3.511   3.969  18.275  0.00  0.00    +0.000 N 
ATOM      2  C   UNL     1       2.330   4.729  18.432  0.00  0.00    +0.000 C 
ATOM      3  O   UNL     1       1.225   4.184  18.497  0.00  0.00    +0.000 OA
ENDROOT
BRANCH   1   4
ATOM      4  C   UNL     1       4.816   4.530  18.159  0.00  0.00    +0.000 A 
ATOM      5  C   UNL     1       5.353   5.108  19.323  0.00  0.00    +0.000 A 
ATOM      6  C   UNL     1       6.603   5.709  19.294  0.00  0.00    +0.000 A 
ATOM      7  C   UNL     1       7.266   5.849  18.080  0.00  0.00    +0.000 A 
ATOM      8  C   UNL     1       6.713   5.352  16.889  0.00  0.00    +0.000 A 
ATOM      9  C   UNL     1       7.349   5.609  15.664  0.00  0.00    +0.000 A 
ATOM     10  C   UNL     1       6.850   5.086  14.474  0.00  0.00    +0.000 A 
ATOM     11  C   UNL     1       5.741   4.248  14.504  0.00  0.00    +0.000 A 
ATOM     12  C   UNL     1       5.072   4.013  15.710  0.00  0.00    +0.000 A 
ATOM     13  C   UNL     1       5.507   4.608  16.918  0.00  0.00    +0.000 A 
ENDBRANCH   1   4
BRANCH   2  14
ATOM     14  C   UNL     1       2.309   6.244  18.516  0.00  0.00    +0.000 A 
ATOM     15  C   UNL     1       2.469   7.120  17.447  0.00  0.00    +0.000 A 
ATOM     16  C   UNL     1       2.347   8.501  17.579  0.00  0.00    +0.000 A 
ATOM     17  C   UNL     1       2.029   9.055  18.806  0.00  0.00    +0.000 A 
ATOM     18  C   UNL     1       1.853   8.226  19.909  0.00  0.00    +0.000 A 
ATOM     19  C   UNL     1       2.000   6.830  19.766  0.00  0.00    +0.000 A 
BRANCH  17  20
ATOM     20  N   UNL     1       1.809  10.458  18.854  0.00  0.00    +0.000 N 
ATOM     21  H   UNL     1       2.470  11.013  19.399  0.00  0.00    +0.000 HD
BRANCH  20  22
ATOM     22  S   UNL     1       0.228  10.999  19.088  0.00  0.00    +0.000 S 
ATOM     23  C   UNL     1       0.329  12.706  18.585  0.00  0.00    +0.000 C 
ATOM     24  O   UNL     1      -0.670  10.292  18.205  0.00  0.00    +0.000 OA
ATOM     25  O   UNL     1       0.031  10.982  20.528  0.00  0.00    +0.000 OA
ENDBRANCH  20  22
ENDBRANCH  17  20
ENDBRANCH   2  14
BRANCH   1  26
ATOM     26  C   UNL     1       3.528   2.489  18.038  0.00  0.00    +0.000 C 
BRANCH  26  27
ATOM     27  C   UNL     1       2.917   1.533  19.086  0.00  0.00    +0.000 C 
BRANCH  27  28
ATOM     28  N   UNL     1       3.410   1.695  20.485  0.00  0.00    +0.000 NA
BRANCH  28  30
ATOM     29  C   UNL     1       5.557   0.799  21.515  0.00  0.00    +0.000 C 
ATOM     30  C   UNL     1       4.890   1.689  20.469  0.00  0.00    +0.000 C 
ENDBRANCH  28  30
BRANCH  28  31
ATOM     31  C   UNL     1       2.838   2.836  21.216  0.00  0.00    +0.000 C 
ATOM     32  C   UNL     1       1.399   2.686  21.697  0.00  0.00    +0.000 C 
ENDBRANCH  28  31
ENDBRANCH  27  28
ENDBRANCH  26  27
ENDBRANCH   1  26
TORSDOF 9
ENDMDL
MODEL 3
REMARK VINA RESULT:      -6.2      2.139      2.974
REMARK  Name = 
REMARK  12 active torsions:
REMARK  status: ('A' for Active; 'I' for Inactive)
REMARK    1  A    between atoms: C_1  and  C_2
REMARK    2  A    between atoms: C_2  and  N_3
REMARK    3  A    between atoms: N_3  and  C_4
REMARK    4  A    between atoms: N_3  and  C_6
REMARK    5  A    between atoms: C_4  and  C_5
REMARK    6  A    between atoms: C_6  and  C_7
REMARK    7  A    between atoms: C_7  and  N_8
REMARK    8  A    between atoms: N_8  and  C_22
REMARK    9  A    between atoms: C_9  and  C_11
REMARK   10  A    between atoms: C_14  and  N_15
REMARK   11  A    between atoms: N_15  and  S_16
REMARK   12  A    between atoms: S_16  and  C_17
REMARK                            x       y       z     vdW  Elec       q    Type
REMARK                         _______ _______ _______ _____ _____    ______ ____
ROOT
ATOM      1  N   UNL     1      -1.339  12.438  20.227  0.00  0.00    +0.000 N 
ATOM      2  C   UNL     1      -0.629  13.644  20.032  0.00  0.00    +0.000 C 
ATOM      3  O   UNL     1      -1.131  14.586  19.412  0.00  0.00    +0.000 OA
ENDROOT
BRANCH   1   4
ATOM      4  C   UNL     1      -0.813  11.299  20.901  0.00  0.00    +0.000 A 
ATOM      5  C   UNL     1      -1.038  11.233  22.287  0.00  0.00    +0.000 A 
ATOM      6  C   UNL     1      -0.532  10.177  23.031  0.00  0.00    +0.000 A 
ATOM      7  C   UNL     1       0.307   9.251  22.419  0.00  0.00    +0.000 A 
ATOM      8  C   UNL     1       0.614   9.341  21.053  0.00  0.00    +0.000 A 
ATOM      9  C   UNL     1       1.552   8.462  20.489  0.00  0.00    +0.000 A 
ATOM     10  C   UNL     1       1.838   8.496  19.127  0.00  0.00    +0.000 A 
ATOM     11  C   UNL     1       1.141   9.370  18.301  0.00  0.00    +0.000 A 
ATOM     12  C   UNL     1       0.231  10.279  18.850  0.00  0.00    +0.000 A 
ATOM     13  C   UNL     1      -0.008  10.326  20.245  0.00  0.00    +0.000 A 
ENDBRANCH   1   4
BRANCH   2  14
ATOM     14  C   UNL     1       0.782  13.881  20.537  0.00  0.00    +0.000 A 
ATOM     15  C   UNL     1       1.950  13.447  19.919  0.00  0.00    +0.000 A 
ATOM     16  C   UNL     1       3.219  13.779  20.388  0.00  0.00    +0.000 A 
ATOM     17  C   UNL     1       3.358  14.594  21.497  0.00  0.00    +0.000 A 
ATOM     18  C   UNL     1       2.222  15.061  22.152  0.00  0.00    +0.000 A 
ATOM     19  C   UNL     1       0.943  14.701  21.679  0.00  0.00    +0.000 A 
BRANCH  17  20
ATOM     20  N   UNL     1       4.674  14.987  21.861  0.00  0.00    +0.000 N 
ATOM     21  H   UNL     1       5.368  15.033  21.115  0.00  0.00    +0.000 HD
BRANCH  20  22
ATOM     22  S   UNL     1       5.334  14.321  23.263  0.00  0.00    +0.000 S 
ATOM     23  C   UNL     1       7.060  14.741  23.111  0.00  0.00    +0.000 C 
ATOM     24  O   UNL     1       4.783  14.976  24.427  0.00  0.00    +0.000 OA
ATOM     25  O   UNL     1       5.221  12.882  23.088  0.00  0.00    +0.000 OA
ENDBRANCH  20  22
ENDBRANCH  17  20
ENDBRANCH   2  14
BRANCH   1  26
ATOM     26  C   UNL     1      -2.668  12.140  19.602  0.00  0.00    +0.000 C 
BRANCH  26  27
ATOM     27  C   UNL     1      -2.747  11.724  18.116  0.00  0.00    +0.000 C 
BRANCH  27  28
ATOM     28  N   UNL     1      -4.048  11.147  17.666  0.00  0.00    +0.000 NA
BRANCH  28  30
ATOM     29  C   UNL     1      -6.271  11.114  18.904  0.00  0.00    +0.000 C 
ATOM     30  C   UNL     1      -5.147  11.932  18.271  0.00  0.00    +0.000 C 
ENDBRANCH  28  30
BRANCH  28  31
ATOM     31  C   UNL     1      -4.181  10.978  16.211  0.00  0.00    +0.000 C 
ATOM     32  C   UNL     1      -2.887  10.815  15.422  0.00  0.00    +0.000 C 
ENDBRANCH  28  31
ENDBRANCH  27  28
ENDBRANCH  26  27
ENDBRANCH   1  26
TORSDOF 9
ENDMDL
MODEL 4
REMARK VINA RESULT:      -6.2      2.154      2.553
REMARK  Name = 
REMARK  12 active torsions:
REMARK  status: ('A' for Active; 'I' for Inactive)
REMARK    1  A    between atoms: C_1  and  C_2
REMARK    2  A    between atoms: C_2  and  N_3
REMARK    3  A    between atoms: N_3  and  C_4
REMARK    4  A    between atoms: N_3  and  C_6
REMARK    5  A    between atoms: C_4  and  C_5
REMARK    6  A    between atoms: C_6  and  C_7
REMARK    7  A    between atoms: C_7  and  N_8
REMARK    8  A    between atoms: N_8  and  C_22
REMARK    9  A    between atoms: C_9  and  C_11
REMARK   10  A    between atoms: C_14  and  N_15
REMARK   11  A    between atoms: N_15  and  S_16
REMARK   12  A    between atoms: S_16  and  C_17
REMARK                            x       y       z     vdW  Elec       q    Type
REMARK                         _______ _______ _______ _____ _____    ______ ____
ROOT
ATOM      1  N   UNL     1      -0.492  12.415  18.865  0.00  0.00    +0.000 N 
ATOM      2  C   UNL     1       0.031  13.719  19.024  0.00  0.00    +0.000 C 
ATOM      3  O   UNL     1      -0.539  14.698  18.535  0.00  0.00    +0.000 OA
ENDROOT
BRANCH   1   4
ATOM      4  C   UNL     1       0.128  11.237  19.372  0.00  0.00    +0.000 A 
ATOM      5  C   UNL     1       0.838  10.455  18.444  0.00  0.00    +0.000 A 
ATOM      6  C   UNL     1       1.444   9.272  18.841  0.00  0.00    +0.000 A 
ATOM      7  C   UNL     1       1.239   8.801  20.134  0.00  0.00    +0.000 A 
ATOM      8  C   UNL     1       0.466   9.523  21.057  0.00  0.00    +0.000 A 
ATOM      9  C   UNL     1       0.181   8.968  22.314  0.00  0.00    +0.000 A 
ATOM     10  C   UNL     1      -0.541   9.683  23.266  0.00  0.00    +0.000 A 
ATOM     11  C   UNL     1      -0.934  10.988  22.993  0.00  0.00    +0.000 A 
ATOM     12  C   UNL     1      -0.692  11.543  21.731  0.00  0.00    +0.000 A 
ATOM     13  C   UNL     1      -0.042  10.802  20.715  0.00  0.00    +0.000 A 
ENDBRANCH   1   4
BRANCH   2  14
ATOM     14  C   UNL     1       1.314  14.026  19.774  0.00  0.00    +0.000 A 
ATOM     15  C   UNL     1       2.600  13.949  19.249  0.00  0.00    +0.000 A 
ATOM     16  C   UNL     1       3.731  14.333  19.966  0.00  0.00    +0.000 A 
ATOM     17  C   UNL     1       3.601  14.842  21.246  0.00  0.00    +0.000 A 
ATOM     18  C   UNL     1       2.337  14.946  21.818  0.00  0.00    +0.000 A 
ATOM     19  C   UNL     1       1.202  14.533  21.090  0.00  0.00    +0.000 A 
BRANCH  17  20
ATOM     20  N   UNL     1       4.777  15.320  21.884  0.00  0.00    +0.000 N 
ATOM     21  H   UNL     1       5.563  15.571  21.282  0.00  0.00    +0.000 HD
BRANCH  20  22
ATOM     22  S   UNL     1       5.307  14.511  23.266  0.00  0.00    +0.000 S 
ATOM     23  C   UNL     1       7.053  14.870  23.274  0.00  0.00    +0.000 C 
ATOM     24  O   UNL     1       4.694  15.086  24.440  0.00  0.00    +0.000 OA
ATOM     25  O   UNL     1       5.157  13.098  22.958  0.00  0.00    +0.000 OA
ENDBRANCH  20  22
ENDBRANCH  17  20
ENDBRANCH   2  14
BRANCH   1  26
ATOM     26  C   UNL     1      -1.670  12.087  17.999  0.00  0.00    +0.000 C 
BRANCH  26  27
ATOM     27  C   UNL     1      -2.877  11.329  18.594  0.00  0.00    +0.000 C 
BRANCH  27  28
ATOM     28  N   UNL     1      -4.215  11.952  18.374  0.00  0.00    +0.000 NA
BRANCH  28  30
ATOM     29  C   UNL     1      -6.635  11.181  18.220  0.00  0.00    +0.000 C 
ATOM     30  C   UNL     1      -5.160  10.902  17.936  0.00  0.00    +0.000 C 
ENDBRANCH  28  30
BRANCH  28  31
ATOM     31  C   UNL     1      -4.716  12.759  19.497  0.00  0.00    +0.000 C 
ATOM     32  C   UNL     1      -3.972  12.620  20.821  0.00  0.00    +0.000 C 
ENDBRANCH  28  31
ENDBRANCH  27  28
ENDBRANCH  26  27
ENDBRANCH   1  26
TORSDOF 9
ENDMDL
MODEL 5
REMARK VINA RESULT:      -6.2      1.987      3.111
REMARK  Name = 
REMARK  12 active torsions:
REMARK  status: ('A' for Active; 'I' for Inactive)
REMARK    1  A    between atoms: C_1  and  C_2
REMARK    2  A    between atoms: C_2  and  N_3
REMARK    3  A    between atoms: N_3  and  C_4
REMARK    4  A    between atoms: N_3  and  C_6
REMARK    5  A    between atoms: C_4  and  C_5
REMARK    6  A    between atoms: C_6  and  C_7
REMARK    7  A    between atoms: C_7  and  N_8
REMARK    8  A    between atoms: N_8  and  C_22
REMARK    9  A    between atoms: C_9  and  C_11
REMARK   10  A    between atoms: C_14  and  N_15
REMARK   11  A    between atoms: N_15  and  S_16
REMARK   12  A    between atoms: S_16  and  C_17
REMARK                            x       y       z     vdW  Elec       q    Type
REMARK                         _______ _______ _______ _____ _____    ______ ____
ROOT
ATOM      1  N   UNL     1      -1.160  12.116  19.833  0.00  0.00    +0.000 N 
ATOM      2  C   UNL     1      -0.507  13.351  19.616  0.00  0.00    +0.000 C 
ATOM      3  O   UNL     1      -1.061  14.262  18.994  0.00  0.00    +0.000 OA
ENDROOT
BRANCH   1   4
ATOM      4  C   UNL     1      -0.572  11.009  20.511  0.00  0.00    +0.000 A 
ATOM      5  C   UNL     1      -0.758  10.957  21.903  0.00  0.00    +0.000 A 
ATOM      6  C   UNL     1      -0.192   9.934  22.650  0.00  0.00    +0.000 A 
ATOM      7  C   UNL     1       0.665   9.030  22.029  0.00  0.00    +0.000 A 
ATOM      8  C   UNL     1       0.932   9.109  20.654  0.00  0.00    +0.000 A 
ATOM      9  C   UNL     1       1.889   8.258  20.079  0.00  0.00    +0.000 A 
ATOM     10  C   UNL     1       2.137   8.281  18.709  0.00  0.00    +0.000 A 
ATOM     11  C   UNL     1       1.386   9.114  17.888  0.00  0.00    +0.000 A 
ATOM     12  C   UNL     1       0.456   9.997  18.449  0.00  0.00    +0.000 A 
ATOM     13  C   UNL     1       0.252  10.057  19.848  0.00  0.00    +0.000 A 
ENDBRANCH   1   4
BRANCH   2  14
ATOM     14  C   UNL     1       0.899  13.656  20.095  0.00  0.00    +0.000 A 
ATOM     15  C   UNL     1       2.071  13.411  19.386  0.00  0.00    +0.000 A 
ATOM     16  C   UNL     1       3.327  13.800  19.847  0.00  0.00    +0.000 A 
ATOM     17  C   UNL     1       3.445  14.484  21.043  0.00  0.00    +0.000 A 
ATOM     18  C   UNL     1       2.305  14.761  21.792  0.00  0.00    +0.000 A 
ATOM     19  C   UNL     1       1.041  14.343  21.324  0.00  0.00    +0.000 A 
BRANCH  17  20
ATOM     20  N   UNL     1       4.736  14.952  21.406  0.00  0.00    +0.000 N 
ATOM     21  H   UNL     1       5.428  15.032  20.660  0.00  0.00    +0.000 HD
BRANCH  20  22
ATOM     22  S   UNL     1       5.431  14.332  22.813  0.00  0.00    +0.000 S 
ATOM     23  C   UNL     1       7.160  14.255  22.384  0.00  0.00    +0.000 C 
ATOM     24  O   UNL     1       5.249  15.260  23.904  0.00  0.00    +0.000 OA
ATOM     25  O   UNL     1       4.946  12.964  22.903  0.00  0.00    +0.000 OA
ENDBRANCH  20  22
ENDBRANCH  17  20
ENDBRANCH   2  14
BRANCH   1  26
ATOM     26  C   UNL     1      -2.484  11.752  19.233  0.00  0.00    +0.000 C 
BRANCH  26  27
ATOM     27  C   UNL     1      -2.548  11.155  17.810  0.00  0.00    +0.000 C 
BRANCH  27  28
ATOM     28  N   UNL     1      -3.674  11.630  16.952  0.00  0.00    +0.000 NA
BRANCH  28  30
ATOM     29  C   UNL     1      -2.852   9.691  15.525  0.00  0.00    +0.000 C 
ATOM     30  C   UNL     1      -3.500  11.072  15.593  0.00  0.00    +0.000 C 
ENDBRANCH  28  30
BRANCH  28  31
ATOM     31  C   UNL     1      -5.016  11.405  17.510  0.00  0.00    +0.000 C 
ATOM     32  C   UNL     1      -6.018  12.544  17.359  0.00  0.00    +0.000 C 
ENDBRANCH  28  31
ENDBRANCH  27  28
ENDBRANCH  26  27
ENDBRANCH   1  26
TORSDOF 9
ENDMDL
MODEL 6
REMARK VINA RESULT:      -6.1      0.609      1.363
REMARK  Name = 
REMARK  12 active torsions:
REMARK  status: ('A' for Active; 'I' for Inactive)
REMARK    1  A    between atoms: C_1  and  C_2
REMARK    2  A    between atoms: C_2  and  N_3
REMARK    3  A    between atoms: N_3  and  C_4
REMARK    4  A    between atoms: N_3  and  C_6
REMARK    5  A    between atoms: C_4  and  C_5
REMARK    6  A    between atoms: C_6  and  C_7
REMARK    7  A    between atoms: C_7  and  N_8
REMARK    8  A    between atoms: N_8  and  C_22
REMARK    9  A    between atoms: C_9  and  C_11
REMARK   10  A    between atoms: C_14  and  N_15
REMARK   11  A    between atoms: N_15  and  S_16
REMARK   12  A    between atoms: S_16  and  C_17
REMARK                            x       y       z     vdW  Elec       q    Type
REMARK                         _______ _______ _______ _____ _____    ______ ____
ROOT
ATOM      1  N   UNL     1      -0.676  12.786  19.335  0.00  0.00    +0.000 N 
ATOM      2  C   UNL     1      -0.042  14.049  19.295  0.00  0.00    +0.000 C 
ATOM      3  O   UNL     1      -0.685  15.076  19.061  0.00  0.00    +0.000 OA
ENDROOT
BRANCH   1   4
ATOM      4  C   UNL     1       0.005  11.555  19.565  0.00  0.00    +0.000 A 
ATOM      5  C   UNL     1       0.652  10.982  18.457  0.00  0.00    +0.000 A 
ATOM      6  C   UNL     1       1.311   9.767  18.580  0.00  0.00    +0.000 A 
ATOM      7  C   UNL     1       1.220   9.060  19.774  0.00  0.00    +0.000 A 
ATOM      8  C   UNL     1       0.510   9.573  20.871  0.00  0.00    +0.000 A 
ATOM      9  C   UNL     1       0.339   8.787  22.021  0.00  0.00    +0.000 A 
ATOM     10  C   UNL     1      -0.317   9.290  23.142  0.00  0.00    +0.000 A 
ATOM     11  C   UNL     1      -0.755  10.610  23.147  0.00  0.00    +0.000 A 
ATOM     12  C   UNL     1      -0.627  11.395  21.996  0.00  0.00    +0.000 A 
ATOM     13  C   UNL     1      -0.047  10.875  20.814  0.00  0.00    +0.000 A 
ENDBRANCH   1   4
BRANCH   2  14
ATOM     14  C   UNL     1       1.446  14.251  19.512  0.00  0.00    +0.000 A 
ATOM     15  C   UNL     1       2.416  14.283  18.514  0.00  0.00    +0.000 A 
ATOM     16  C   UNL     1       3.755  14.565  18.774  0.00  0.00    +0.000 A 
ATOM     17  C   UNL     1       4.165  14.856  20.062  0.00  0.00    +0.000 A 
ATOM     18  C   UNL     1       3.236  14.844  21.098  0.00  0.00    +0.000 A 
ATOM     19  C   UNL     1       1.886  14.536  20.826  0.00  0.00    +0.000 A 
BRANCH  17  20
ATOM     20  N   UNL     1       5.519  15.245  20.247  0.00  0.00    +0.000 N 
ATOM     21  H   UNL     1       5.935  15.058  21.161  0.00  0.00    +0.000 HD
BRANCH  20  22
ATOM     22  S   UNL     1       5.991  16.755  19.664  0.00  0.00    +0.000 S 
ATOM     23  C   UNL     1       7.158  17.296  20.899  0.00  0.00    +0.000 C 
ATOM     24  O   UNL     1       6.669  16.605  18.398  0.00  0.00    +0.000 OA
ATOM     25  O   UNL     1       4.809  17.594  19.787  0.00  0.00    +0.000 OA
ENDBRANCH  20  22
ENDBRANCH  17  20
ENDBRANCH   2  14
BRANCH   1  26
ATOM     26  C   UNL     1      -2.112  12.559  18.972  0.00  0.00    +0.000 C 
BRANCH  26  27
ATOM     27  C   UNL     1      -2.536  11.241  18.286  0.00  0.00    +0.000 C 
BRANCH  27  28
ATOM     28  N   UNL     1      -3.030  11.363  16.883  0.00  0.00    +0.000 NA
BRANCH  28  30
ATOM     29  C   UNL     1      -3.070  10.071  14.691  0.00  0.00    +0.000 C 
ATOM     30  C   UNL     1      -2.478  10.243  16.088  0.00  0.00    +0.000 C 
ENDBRANCH  28  30
BRANCH  28  31
ATOM     31  C   UNL     1      -4.486  11.514  16.749  0.00  0.00    +0.000 C 
ATOM     32  C   UNL     1      -5.331  11.060  17.934  0.00  0.00    +0.000 C 
ENDBRANCH  28  31
ENDBRANCH  27  28
ENDBRANCH  26  27
ENDBRANCH   1  26
TORSDOF 9
ENDMDL
MODEL 7
REMARK VINA RESULT:      -6.1      2.059      2.321
REMARK  Name = 
REMARK  12 active torsions:
REMARK  status: ('A' for Active; 'I' for Inactive)
REMARK    1  A    between atoms: C_1  and  C_2
REMARK    2  A    between atoms: C_2  and  N_3
REMARK    3  A    between atoms: N_3  and  C_4
REMARK    4  A    between atoms: N_3  and  C_6
REMARK    5  A    between atoms: C_4  and  C_5
REMARK    6  A    between atoms: C_6  and  C_7
REMARK    7  A    between atoms: C_7  and  N_8
REMARK    8  A    between atoms: N_8  and  C_22
REMARK    9  A    between atoms: C_9  and  C_11
REMARK   10  A    between atoms: C_14  and  N_15
REMARK   11  A    between atoms: N_15  and  S_16
REMARK   12  A    between atoms: S_16  and  C_17
REMARK                            x       y       z     vdW  Elec       q    Type
REMARK                         _______ _______ _______ _____ _____    ______ ____
ROOT
ATOM      1  N   UNL     1      -0.453  12.021  18.662  0.00  0.00    +0.000 N 
ATOM      2  C   UNL     1       0.005  13.355  18.768  0.00  0.00    +0.000 C 
ATOM      3  O   UNL     1      -0.606  14.282  18.231  0.00  0.00    +0.000 OA
ENDROOT
BRANCH   1   4
ATOM      4  C   UNL     1       0.217  10.898  19.226  0.00  0.00    +0.000 A 
ATOM      5  C   UNL     1       0.960  10.102  18.338  0.00  0.00    +0.000 A 
ATOM      6  C   UNL     1       1.617   8.968  18.793  0.00  0.00    +0.000 A 
ATOM      7  C   UNL     1       1.432   8.553  20.108  0.00  0.00    +0.000 A 
ATOM      8  C   UNL     1       0.627   9.286  20.995  0.00  0.00    +0.000 A 
ATOM      9  C   UNL     1       0.366   8.783  22.278  0.00  0.00    +0.000 A 
ATOM     10  C   UNL     1      -0.386   9.513  23.195  0.00  0.00    +0.000 A 
ATOM     11  C   UNL     1      -0.835  10.785  22.857  0.00  0.00    +0.000 A 
ATOM     12  C   UNL     1      -0.617  11.286  21.569  0.00  0.00    +0.000 A 
ATOM     13  C   UNL     1       0.065  10.524  20.591  0.00  0.00    +0.000 A 
ENDBRANCH   1   4
BRANCH   2  14
ATOM     14  C   UNL     1       1.263  13.756  19.515  0.00  0.00    +0.000 A 
ATOM     15  C   UNL     1       2.549  13.783  18.985  0.00  0.00    +0.000 A 
ATOM     16  C   UNL     1       3.650  14.250  19.700  0.00  0.00    +0.000 A 
ATOM     17  C   UNL     1       3.486  14.738  20.984  0.00  0.00    +0.000 A 
ATOM     18  C   UNL     1       2.220  14.739  21.562  0.00  0.00    +0.000 A 
ATOM     19  C   UNL     1       1.117  14.243  20.835  0.00  0.00    +0.000 A 
BRANCH  17  20
ATOM     20  N   UNL     1       4.624  15.303  21.621  0.00  0.00    +0.000 N 
ATOM     21  H   UNL     1       5.433  15.503  21.032  0.00  0.00    +0.000 HD
BRANCH  20  22
ATOM     22  S   UNL     1       5.098  14.653  23.103  0.00  0.00    +0.000 S 
ATOM     23  C   UNL     1       6.819  15.111  23.189  0.00  0.00    +0.000 C 
ATOM     24  O   UNL     1       4.378  15.298  24.177  0.00  0.00    +0.000 OA
ATOM     25  O   UNL     1       5.041  13.212  22.921  0.00  0.00    +0.000 OA
ENDBRANCH  20  22
ENDBRANCH  17  20
ENDBRANCH   2  14
BRANCH   1  26
ATOM     26  C   UNL     1      -1.605  11.599  17.802  0.00  0.00    +0.000 C 
BRANCH  26  27
ATOM     27  C   UNL     1      -2.749  10.753  18.404  0.00  0.00    +0.000 C 
BRANCH  27  28
ATOM     28  N   UNL     1      -4.084  11.416  18.477  0.00  0.00    +0.000 NA
BRANCH  28  30
ATOM     29  C   UNL     1      -4.624  12.439  20.743  0.00  0.00    +0.000 C 
ATOM     30  C   UNL     1      -3.979  12.593  19.367  0.00  0.00    +0.000 C 
ENDBRANCH  28  30
BRANCH  28  31
ATOM     31  C   UNL     1      -4.698  11.719  17.176  0.00  0.00    +0.000 C 
ATOM     32  C   UNL     1      -5.972  12.556  17.201  0.00  0.00    +0.000 C 
ENDBRANCH  28  31
ENDBRANCH  27  28
ENDBRANCH  26  27
ENDBRANCH   1  26
TORSDOF 9
ENDMDL
MODEL 8
REMARK VINA RESULT:      -6.1      1.070      1.399
REMARK  Name = 
REMARK  12 active torsions:
REMARK  status: ('A' for Active; 'I' for Inactive)
REMARK    1  A    between atoms: C_1  and  C_2
REMARK    2  A    between atoms: C_2  and  N_3
REMARK    3  A    between atoms: N_3  and  C_4
REMARK    4  A    between atoms: N_3  and  C_6
REMARK    5  A    between atoms: C_4  and  C_5
REMARK    6  A    between atoms: C_6  and  C_7
REMARK    7  A    between atoms: C_7  and  N_8
REMARK    8  A    between atoms: N_8  and  C_22
REMARK    9  A    between atoms: C_9  and  C_11
REMARK   10  A    between atoms: C_14  and  N_15
REMARK   11  A    between atoms: N_15  and  S_16
REMARK   12  A    between atoms: S_16  and  C_17
REMARK                            x       y       z     vdW  Elec       q    Type
REMARK                         _______ _______ _______ _____ _____    ______ ____
ROOT
ATOM      1  N   UNL     1      -0.451  12.373  18.736  0.00  0.00    +0.000 N 
ATOM      2  C   UNL     1       0.066  13.685  18.841  0.00  0.00    +0.000 C 
ATOM      3  O   UNL     1      -0.492  14.636  18.287  0.00  0.00    +0.000 OA
ENDROOT
BRANCH   1   4
ATOM      4  C   UNL     1       0.157  11.224  19.318  0.00  0.00    +0.000 A 
ATOM      5  C   UNL     1       0.917  10.414  18.457  0.00  0.00    +0.000 A 
ATOM      6  C   UNL     1       1.516   9.256  18.930  0.00  0.00    +0.000 A 
ATOM      7  C   UNL     1       1.256   8.834  20.230  0.00  0.00    +0.000 A 
ATOM      8  C   UNL     1       0.433   9.584  21.086  0.00  0.00    +0.000 A 
ATOM      9  C   UNL     1       0.096   9.076  22.350  0.00  0.00    +0.000 A 
ATOM     10  C   UNL     1      -0.677   9.821  23.238  0.00  0.00    +0.000 A 
ATOM     11  C   UNL     1      -1.070  11.108  22.894  0.00  0.00    +0.000 A 
ATOM     12  C   UNL     1      -0.775  11.615  21.623  0.00  0.00    +0.000 A 
ATOM     13  C   UNL     1      -0.071  10.841  20.670  0.00  0.00    +0.000 A 
ENDBRANCH   1   4
BRANCH   2  14
ATOM     14  C   UNL     1       1.329  14.032  19.607  0.00  0.00    +0.000 A 
ATOM     15  C   UNL     1       1.409  14.279  20.974  0.00  0.00    +0.000 A 
ATOM     16  C   UNL     1       2.617  14.503  21.631  0.00  0.00    +0.000 A 
ATOM     17  C   UNL     1       3.807  14.458  20.927  0.00  0.00    +0.000 A 
ATOM     18  C   UNL     1       3.787  14.211  19.558  0.00  0.00    +0.000 A 
ATOM     19  C   UNL     1       2.555  14.007  18.901  0.00  0.00    +0.000 A 
BRANCH  17  20
ATOM     20  N   UNL     1       5.012  14.583  21.670  0.00  0.00    +0.000 N 
ATOM     21  H   UNL     1       4.955  14.431  22.677  0.00  0.00    +0.000 HD
BRANCH  20  22
ATOM     22  S   UNL     1       6.026  15.882  21.310  0.00  0.00    +0.000 S 
ATOM     23  C   UNL     1       6.915  16.110  22.839  0.00  0.00    +0.000 C 
ATOM     24  O   UNL     1       6.954  15.510  20.268  0.00  0.00    +0.000 OA
ATOM     25  O   UNL     1       5.138  17.023  21.151  0.00  0.00    +0.000 OA
ENDBRANCH  20  22
ENDBRANCH  17  20
ENDBRANCH   2  14
BRANCH   1  26
ATOM     26  C   UNL     1      -1.606  11.998  17.858  0.00  0.00    +0.000 C 
BRANCH  26  27
ATOM     27  C   UNL     1      -2.970  11.639  18.489  0.00  0.00    +0.000 C 
BRANCH  27  28
ATOM     28  N   UNL     1      -4.005  11.111  17.552  0.00  0.00    +0.000 NA
BRANCH  28  30
ATOM     29  C   UNL     1      -6.414  10.907  18.347  0.00  0.00    +0.000 C 
ATOM     30  C   UNL     1      -5.286  11.798  17.828  0.00  0.00    +0.000 C 
ENDBRANCH  28  30
BRANCH  28  31
ATOM     31  C   UNL     1      -3.624  11.132  16.132  0.00  0.00    +0.000 C 
ATOM     32  C   UNL     1      -3.221   9.797  15.514  0.00  0.00    +0.000 C 
ENDBRANCH  28  31
ENDBRANCH  27  28
ENDBRANCH  26  27
ENDBRANCH   1  26
TORSDOF 9
ENDMDL
MODEL 9
REMARK VINA RESULT:      -6.0      1.971      2.826
REMARK  Name = 
REMARK  12 active torsions:
REMARK  status: ('A' for Active; 'I' for Inactive)
REMARK    1  A    between atoms: C_1  and  C_2
REMARK    2  A    between atoms: C_2  and  N_3
REMARK    3  A    between atoms: N_3  and  C_4
REMARK    4  A    between atoms: N_3  and  C_6
REMARK    5  A    between atoms: C_4  and  C_5
REMARK    6  A    between atoms: C_6  and  C_7
REMARK    7  A    between atoms: C_7  and  N_8
REMARK    8  A    between atoms: N_8  and  C_22
REMARK    9  A    between atoms: C_9  and  C_11
REMARK   10  A    between atoms: C_14  and  N_15
REMARK   11  A    between atoms: N_15  and  S_16
REMARK   12  A    between atoms: S_16  and  C_17
REMARK                            x       y       z     vdW  Elec       q    Type
REMARK                         _______ _______ _______ _____ _____    ______ ____
ROOT
ATOM      1  N   UNL     1      -1.195  12.573  19.814  0.00  0.00    +0.000 N 
ATOM      2  C   UNL     1      -0.356  13.658  19.473  0.00  0.00    +0.000 C 
ATOM      3  O   UNL     1      -0.671  14.450  18.580  0.00  0.00    +0.000 OA
ENDROOT
BRANCH   1   4
ATOM      4  C   UNL     1      -0.883  11.601  20.808  0.00  0.00    +0.000 A 
ATOM      5  C   UNL     1      -1.327  11.876  22.113  0.00  0.00    +0.000 A 
ATOM      6  C   UNL     1      -1.038  11.002  23.151  0.00  0.00    +0.000 A 
ATOM      7  C   UNL     1      -0.199   9.918  22.917  0.00  0.00    +0.000 A 
ATOM      8  C   UNL     1       0.325   9.667  21.639  0.00  0.00    +0.000 A 
ATOM      9  C   UNL     1       1.260   8.636  21.458  0.00  0.00    +0.000 A 
ATOM     10  C   UNL     1       1.757   8.333  20.193  0.00  0.00    +0.000 A 
ATOM     11  C   UNL     1       1.277   9.020  19.084  0.00  0.00    +0.000 A 
ATOM     12  C   UNL     1       0.376  10.077  19.251  0.00  0.00    +0.000 A 
ATOM     13  C   UNL     1      -0.073  10.464  20.536  0.00  0.00    +0.000 A 
ENDBRANCH   1   4
BRANCH   2  14
ATOM     14  C   UNL     1       0.979  13.932  20.139  0.00  0.00    +0.000 A 
ATOM     15  C   UNL     1       2.229  13.627  19.610  0.00  0.00    +0.000 A 
ATOM     16  C   UNL     1       3.421  13.989  20.235  0.00  0.00    +0.000 A 
ATOM     17  C   UNL     1       3.394  14.706  21.417  0.00  0.00    +0.000 A 
ATOM     18  C   UNL     1       2.171  15.043  21.989  0.00  0.00    +0.000 A 
ATOM     19  C   UNL     1       0.971  14.651  21.357  0.00  0.00    +0.000 A 
BRANCH  17  20
ATOM     20  N   UNL     1       4.638  15.142  21.948  0.00  0.00    +0.000 N 
ATOM     21  H   UNL     1       5.241  15.686  21.329  0.00  0.00    +0.000 HD
BRANCH  20  22
ATOM     22  S   UNL     1       5.536  14.040  22.855  0.00  0.00    +0.000 S 
ATOM     23  C   UNL     1       5.465  14.744  24.492  0.00  0.00    +0.000 C 
ATOM     24  O   UNL     1       4.880  12.754  22.858  0.00  0.00    +0.000 OA
ATOM     25  O   UNL     1       6.903  14.184  22.381  0.00  0.00    +0.000 OA
ENDBRANCH  20  22
ENDBRANCH  17  20
ENDBRANCH   2  14
BRANCH   1  26
ATOM     26  C   UNL     1      -2.438  12.208  19.061  0.00  0.00    +0.000 C 
BRANCH  26  27
ATOM     27  C   UNL     1      -2.329  11.534  17.675  0.00  0.00    +0.000 C 
BRANCH  27  28
ATOM     28  N   UNL     1      -3.501  10.709  17.255  0.00  0.00    +0.000 NA
BRANCH  28  30
ATOM     29  C   UNL     1      -5.912  11.342  17.765  0.00  0.00    +0.000 C 
ATOM     30  C   UNL     1      -4.637  11.613  16.969  0.00  0.00    +0.000 C 
ENDBRANCH  28  30
BRANCH  28  31
ATOM     31  C   UNL     1      -3.229   9.751  16.173  0.00  0.00    +0.000 C 
ATOM     32  C   UNL     1      -2.975  10.339  14.789  0.00  0.00    +0.000 C 
ENDBRANCH  28  31
ENDBRANCH  27  28
ENDBRANCH  26  27
ENDBRANCH   1  26
TORSDOF 9
ENDMDL
