MODEL 1
REMARK VINA RESULT:      -7.1      0.000      0.000
REMARK  Name = 
REMARK  13 active torsions:
REMARK  status: ('A' for Active; 'I' for Inactive)
REMARK    1  A    between atoms: C_1  and  C_2
REMARK    2  A    between atoms: C_2  and  C_3
REMARK    3  A    between atoms: C_3  and  C_4
REMARK    4  A    between atoms: C_4  and  C_5
REMARK    5  A    between atoms: C_5  and  C_6
REMARK    6  A    between atoms: C_6  and  S_7
REMARK    7  A    between atoms: S_7  and  C_8
REMARK    8  A    between atoms: C_11  and  C_12
REMARK    9  A    between atoms: C_14  and  C_15
REMARK   10  A    between atoms: C_14  and  C_16
REMARK   11  A    between atoms: C_16  and  O_18
REMARK   12  A    between atoms: O_18  and  C_19
REMARK   13  A    between atoms: N_23  and  C_24
REMARK                            x       y       z     vdW  Elec       q    Type
REMARK                         _______ _______ _______ _____ _____    ______ ____
ROOT
ATOM      1  C   UNL     1       3.302   6.330  18.262  0.00  0.00    +0.000 C 
ATOM      2  N   UNL     1       4.285   5.801  19.237  0.00  0.00    +0.000 NA
ATOM      3  C   UNL     1       4.542   4.340  18.917  0.00  0.00    +0.000 C 
ATOM      4  C   UNL     1       6.039   4.176  18.615  0.00  0.00    +0.000 C 
ATOM      5  C   UNL     1       3.706   4.030  17.653  0.00  0.00    +0.000 C 
ATOM      6  C   UNL     1       2.854   2.775  17.639  0.00  0.00    +0.000 C 
ATOM      7  O   UNL     1       3.256   1.672  17.294  0.00  0.00    +0.000 OA
ATOM      8  N   UNL     1       1.615   3.090  18.120  0.00  0.00    +0.000 N 
ATOM      9  C   UNL     1       0.627   2.153  18.589  0.00  0.00    +0.000 C 
ATOM     10  C   UNL     1       1.602   4.385  18.549  0.00  0.00    +0.000 C 
ATOM     11  O   UNL     1       0.968   4.814  19.481  0.00  0.00    +0.000 OA
ATOM     12  C   UNL     1       2.631   5.099  17.699  0.00  0.00    +0.000 C 
ATOM     13  H   UNL     1       3.858   5.842  20.172  0.00  0.00    +0.000 HD
ENDROOT
BRANCH   1  17
ATOM     14  C   UNL     1       0.822   9.537  19.845  0.00  0.00    +0.000 A 
ATOM     15  C   UNL     1       1.041   9.431  18.467  0.00  0.00    +0.000 A 
ATOM     16  C   UNL     1       1.800   8.372  17.942  0.00  0.00    +0.000 A 
ATOM     17  C   UNL     1       2.362   7.408  18.785  0.00  0.00    +0.000 A 
ATOM     18  C   UNL     1       2.024   7.469  20.151  0.00  0.00    +0.000 A 
ATOM     19  C   UNL     1       1.334   8.561  20.685  0.00  0.00    +0.000 A 
BRANCH  14  20
ATOM     20  S   UNL     1      -0.139  10.850  20.558  0.00  0.00    +0.000 S 
BRANCH  20  21
ATOM     21  C   UNL     1      -0.698  11.715  19.042  0.00  0.00    +0.000 C 
BRANCH  21  22
ATOM     22  C   UNL     1      -2.197  11.971  19.198  0.00  0.00    +0.000 C 
BRANCH  22  23
ATOM     23  C   UNL     1      -3.019  11.448  18.021  0.00  0.00    +0.000 C 
BRANCH  23  24
ATOM     24  C   UNL     1      -2.630  10.001  17.701  0.00  0.00    +0.000 C 
BRANCH  24  26
ATOM     25  C   UNL     1      -3.144  10.897  15.406  0.00  0.00    +0.000 C 
ATOM     26  C   UNL     1      -2.507   9.766  16.197  0.00  0.00    +0.000 C 
ENDBRANCH  24  26
ENDBRANCH  23  24
ENDBRANCH  22  23
ENDBRANCH  21  22
ENDBRANCH  20  21
ENDBRANCH  14  20
ENDBRANCH   1  17
BRANCH   3  27
ATOM     27  C   UNL     1       4.214   3.424  20.142  0.00  0.00    +0.000 C 
ATOM     28  O   UNL     1       4.713   2.328  20.334  0.00  0.00    +0.000 OA
BRANCH  27  29
ATOM     29  O   UNL     1       3.284   3.987  20.975  0.00  0.00    +0.000 OA
ATOM     30  C   UNL     1       2.537   3.005  21.698  0.00  0.00    +0.000 C 
ENDBRANCH  27  29
ENDBRANCH   3  27
TORSDOF 9
ENDMDL
MODEL 2
REMARK VINA RESULT:      -7.0      4.415      8.800
REMARK  Name = 
REMARK  13 active torsions:
REMARK  status: ('A' for Active; 'I' for Inactive)
REMARK    1  A    between atoms: C_1  and  C_2
REMARK    2  A    between atoms: C_2  and  C_3
REMARK    3  A    between atoms: C_3  and  C_4
REMARK    4  A    between atoms: C_4  and  C_5
REMARK    5  A    between atoms: C_5  and  C_6
REMARK    6  A    between atoms: C_6  and  S_7
REMARK    7  A    between atoms: S_7  and  C_8
REMARK    8  A    between atoms: C_11  and  C_12
REMARK    9  A    between atoms: C_14  and  C_15
REMARK   10  A    between atoms: C_14  and  C_16
REMARK   11  A    between atoms: C_16  and  O_18
REMARK   12  A    between atoms: O_18  and  C_19
REMARK   13  A    between atoms: N_23  and  C_24
REMARK                            x       y       z     vdW  Elec       q    Type
REMARK                         _______ _______ _______ _____ _____    ______ ____
ROOT
ATOM      1  C   UNL     1      -0.154  10.655  18.624  0.00  0.00    +0.000 C 
ATOM      2  N   UNL     1      -1.198  10.726  19.674  0.00  0.00    +0.000 NA
ATOM      3  C   UNL     1      -1.602  12.177  19.854  0.00  0.00    +0.000 C 
ATOM      4  C   UNL     1      -3.105  12.292  19.556  0.00  0.00    +0.000 C 
ATOM      5  C   UNL     1      -0.788  12.975  18.808  0.00  0.00    +0.000 C 
ATOM      6  C   UNL     1      -0.071  14.235  19.258  0.00  0.00    +0.000 C 
ATOM      7  O   UNL     1      -0.583  15.347  19.286  0.00  0.00    +0.000 OA
ATOM      8  N   UNL     1       1.188  13.893  19.660  0.00  0.00    +0.000 N 
ATOM      9  C   UNL     1       2.068  14.703  20.462  0.00  0.00    +0.000 C 
ATOM     10  C   UNL     1       1.331  12.537  19.627  0.00  0.00    +0.000 C 
ATOM     11  O   UNL     1       1.996  11.878  20.388  0.00  0.00    +0.000 OA
ATOM     12  C   UNL     1       0.391  12.061  18.540  0.00  0.00    +0.000 C 
ATOM     13  H   UNL     1      -0.779  10.409  20.559  0.00  0.00    +0.000 HD
ENDROOT
BRANCH   1  17
ATOM     14  C   UNL     1       2.634   7.343  19.077  0.00  0.00    +0.000 A 
ATOM     15  C   UNL     1       2.636   8.110  17.907  0.00  0.00    +0.000 A 
ATOM     16  C   UNL     1       1.774   9.211  17.770  0.00  0.00    +0.000 A 
ATOM     17  C   UNL     1       0.888   9.557  18.795  0.00  0.00    +0.000 A 
ATOM     18  C   UNL     1       0.992   8.846  20.006  0.00  0.00    +0.000 A 
ATOM     19  C   UNL     1       1.794   7.705  20.118  0.00  0.00    +0.000 A 
BRANCH  14  20
ATOM     20  S   UNL     1       3.712   5.950  19.303  0.00  0.00    +0.000 S 
BRANCH  20  21
ATOM     21  C   UNL     1       3.739   5.269  17.602  0.00  0.00    +0.000 C 
BRANCH  21  22
ATOM     22  C   UNL     1       3.040   3.911  17.651  0.00  0.00    +0.000 C 
BRANCH  22  23
ATOM     23  C   UNL     1       1.532   4.022  17.870  0.00  0.00    +0.000 C 
BRANCH  23  24
ATOM     24  C   UNL     1       1.076   3.033  18.949  0.00  0.00    +0.000 C 
BRANCH  24  26
ATOM     25  C   UNL     1       1.829   3.118  21.349  0.00  0.00    +0.000 C 
ATOM     26  C   UNL     1       0.898   3.713  20.304  0.00  0.00    +0.000 C 
ENDBRANCH  24  26
ENDBRANCH  23  24
ENDBRANCH  22  23
ENDBRANCH  21  22
ENDBRANCH  20  21
ENDBRANCH  14  20
ENDBRANCH   1  17
BRANCH   3  27
ATOM     27  C   UNL     1      -1.384  12.648  21.330  0.00  0.00    +0.000 C 
ATOM     28  O   UNL     1      -1.747  13.727  21.767  0.00  0.00    +0.000 OA
BRANCH  27  29
ATOM     29  O   UNL     1      -0.721  11.713  22.079  0.00  0.00    +0.000 OA
ATOM     30  C   UNL     1      -1.485  11.284  23.210  0.00  0.00    +0.000 C 
ENDBRANCH  27  29
ENDBRANCH   3  27
TORSDOF 9
ENDMDL
MODEL 3
REMARK VINA RESULT:      -7.0      1.229      1.961
REMARK  Name = 
REMARK  13 active torsions:
REMARK  status: ('A' for Active; 'I' for Inactive)
REMARK    1  A    between atoms: C_1  and  C_2
REMARK    2  A    between atoms: C_2  and  C_3
REMARK    3  A    between atoms: C_3  and  C_4
REMARK    4  A    between atoms: C_4  and  C_5
REMARK    5  A    between atoms: C_5  and  C_6
REMARK    6  A    between atoms: C_6  and  S_7
REMARK    7  A    between atoms: S_7  and  C_8
REMARK    8  A    between atoms: C_11  and  C_12
REMARK    9  A    between atoms: C_14  and  C_15
REMARK   10  A    between atoms: C_14  and  C_16
REMARK   11  A    between atoms: C_16  and  O_18
REMARK   12  A    between atoms: O_18  and  C_19
REMARK   13  A    between atoms: N_23  and  C_24
REMARK                            x       y       z     vdW  Elec       q    Type
REMARK                         _______ _______ _______ _____ _____    ______ ____
ROOT
ATOM      1  C   UNL     1       2.589   6.320  17.777  0.00  0.00    +0.000 C 
ATOM      2  N   UNL     1       4.055   6.104  17.740  0.00  0.00    +0.000 NA
ATOM      3  C   UNL     1       4.323   4.612  17.800  0.00  0.00    +0.000 C 
ATOM      4  C   UNL     1       5.095   4.216  16.532  0.00  0.00    +0.000 C 
ATOM      5  C   UNL     1       2.933   3.933  17.812  0.00  0.00    +0.000 C 
ATOM      6  C   UNL     1       2.671   2.841  18.833  0.00  0.00    +0.000 C 
ATOM      7  O   UNL     1       2.930   1.658  18.660  0.00  0.00    +0.000 OA
ATOM      8  N   UNL     1       2.160   3.419  19.960  0.00  0.00    +0.000 N 
ATOM      9  C   UNL     1       2.091   2.813  21.264  0.00  0.00    +0.000 C 
ATOM     10  C   UNL     1       2.165   4.777  19.825  0.00  0.00    +0.000 C 
ATOM     11  O   UNL     1       2.346   5.574  20.712  0.00  0.00    +0.000 OA
ATOM     12  C   UNL     1       2.033   5.033  18.339  0.00  0.00    +0.000 C 
ATOM     13  H   UNL     1       4.459   6.525  18.587  0.00  0.00    +0.000 HD
ENDROOT
BRANCH   1  17
ATOM     14  C   UNL     1       1.020   9.916  19.662  0.00  0.00    +0.000 A 
ATOM     15  C   UNL     1       1.310   8.785  20.434  0.00  0.00    +0.000 A 
ATOM     16  C   UNL     1       1.862   7.637  19.843  0.00  0.00    +0.000 A 
ATOM     17  C   UNL     1       2.122   7.594  18.470  0.00  0.00    +0.000 A 
ATOM     18  C   UNL     1       1.936   8.784  17.740  0.00  0.00    +0.000 A 
ATOM     19  C   UNL     1       1.318   9.902  18.309  0.00  0.00    +0.000 A 
BRANCH  14  20
ATOM     20  S   UNL     1       0.332  11.396  20.364  0.00  0.00    +0.000 S 
BRANCH  20  21
ATOM     21  C   UNL     1      -0.438  12.143  18.878  0.00  0.00    +0.000 C 
BRANCH  21  22
ATOM     22  C   UNL     1      -1.926  11.796  18.921  0.00  0.00    +0.000 C 
BRANCH  22  23
ATOM     23  C   UNL     1      -2.276  10.559  18.094  0.00  0.00    +0.000 C 
BRANCH  23  24
ATOM     24  C   UNL     1      -2.548  10.951  16.638  0.00  0.00    +0.000 C 
BRANCH  24  26
ATOM     25  C   UNL     1      -3.168  10.138  14.338  0.00  0.00    +0.000 C 
ATOM     26  C   UNL     1      -2.926   9.742  15.786  0.00  0.00    +0.000 C 
ENDBRANCH  24  26
ENDBRANCH  23  24
ENDBRANCH  22  23
ENDBRANCH  21  22
ENDBRANCH  20  21
ENDBRANCH  14  20
ENDBRANCH   1  17
BRANCH   3  27
ATOM     27  C   UNL     1       5.225   4.246  19.025  0.00  0.00    +0.000 C 
ATOM     28  O   UNL     1       5.463   3.106  19.386  0.00  0.00    +0.000 OA
BRANCH  27  29
ATOM     29  O   UNL     1       5.710   5.357  19.661  0.00  0.00    +0.000 OA
ATOM     30  C   UNL     1       7.113   5.535  19.449  0.00  0.00    +0.000 C 
ENDBRANCH  27  29
ENDBRANCH   3  27
TORSDOF 9
ENDMDL
MODEL 4
REMARK VINA RESULT:      -7.0      4.589      9.116
REMARK  Name = 
REMARK  13 active torsions:
REMARK  status: ('A' for Active; 'I' for Inactive)
REMARK    1  A    between atoms: C_1  and  C_2
REMARK    2  A    between atoms: C_2  and  C_3
REMARK    3  A    between atoms: C_3  and  C_4
REMARK    4  A    between atoms: C_4  and  C_5
REMARK    5  A    between atoms: C_5  and  C_6
REMARK    6  A    between atoms: C_6  and  S_7
REMARK    7  A    between atoms: S_7  and  C_8
REMARK    8  A    between atoms: C_11  and  C_12
REMARK    9  A    between atoms: C_14  and  C_15
REMARK   10  A    between atoms: C_14  and  C_16
REMARK   11  A    between atoms: C_16  and  O_18
REMARK   12  A    between atoms: O_18  and  C_19
REMARK   13  A    between atoms: N_23  and  C_24
REMARK                            x       y       z     vdW  Elec       q    Type
REMARK                         _______ _______ _______ _____ _____    ______ ____
ROOT
ATOM      1  C   UNL     1      -0.352  10.818  18.913  0.00  0.00    +0.000 C 
ATOM      2  N   UNL     1      -1.078  11.122  20.170  0.00  0.00    +0.000 NA
ATOM      3  C   UNL     1      -1.402  12.604  20.192  0.00  0.00    +0.000 C 
ATOM      4  C   UNL     1      -2.928  12.755  20.281  0.00  0.00    +0.000 C 
ATOM      5  C   UNL     1      -0.887  13.170  18.848  0.00  0.00    +0.000 C 
ATOM      6  C   UNL     1      -0.060  14.443  18.868  0.00  0.00    +0.000 C 
ATOM      7  O   UNL     1      -0.532  15.571  18.834  0.00  0.00    +0.000 OA
ATOM      8  N   UNL     1       1.256  14.100  18.982  0.00  0.00    +0.000 N 
ATOM      9  C   UNL     1       2.328  14.978  19.373  0.00  0.00    +0.000 C 
ATOM     10  C   UNL     1       1.369  12.750  19.150  0.00  0.00    +0.000 C 
ATOM     11  O   UNL     1       2.204  12.189  19.815  0.00  0.00    +0.000 OA
ATOM     12  C   UNL     1       0.168  12.157  18.446  0.00  0.00    +0.000 C 
ATOM     13  H   UNL     1      -0.442  10.932  20.956  0.00  0.00    +0.000 HD
ENDROOT
BRANCH   1  17
ATOM     14  C   UNL     1       2.413   7.465  19.148  0.00  0.00    +0.000 A 
ATOM     15  C   UNL     1       2.273   8.180  17.953  0.00  0.00    +0.000 A 
ATOM     16  C   UNL     1       1.420   9.293  17.880  0.00  0.00    +0.000 A 
ATOM     17  C   UNL     1       0.683   9.705  18.996  0.00  0.00    +0.000 A 
ATOM     18  C   UNL     1       0.936   9.045  20.215  0.00  0.00    +0.000 A 
ATOM     19  C   UNL     1       1.725   7.892  20.272  0.00  0.00    +0.000 A 
BRANCH  14  20
ATOM     20  S   UNL     1       3.488   6.059  19.295  0.00  0.00    +0.000 S 
BRANCH  20  21
ATOM     21  C   UNL     1       3.057   5.148  17.763  0.00  0.00    +0.000 C 
BRANCH  21  22
ATOM     22  C   UNL     1       1.658   4.567  17.966  0.00  0.00    +0.000 C 
BRANCH  22  23
ATOM     23  C   UNL     1       1.639   3.038  17.959  0.00  0.00    +0.000 C 
BRANCH  23  24
ATOM     24  C   UNL     1       2.090   2.494  19.318  0.00  0.00    +0.000 C 
BRANCH  24  26
ATOM     25  C   UNL     1       1.967   3.105  21.757  0.00  0.00    +0.000 C 
ATOM     26  C   UNL     1       1.195   2.989  20.452  0.00  0.00    +0.000 C 
ENDBRANCH  24  26
ENDBRANCH  23  24
ENDBRANCH  22  23
ENDBRANCH  21  22
ENDBRANCH  20  21
ENDBRANCH  14  20
ENDBRANCH   1  17
BRANCH   3  27
ATOM     27  C   UNL     1      -0.793  13.299  21.454  0.00  0.00    +0.000 C 
ATOM     28  O   UNL     1       0.156  12.866  22.087  0.00  0.00    +0.000 OA
BRANCH  27  29
ATOM     29  O   UNL     1      -1.459  14.449  21.784  0.00  0.00    +0.000 OA
ATOM     30  C   UNL     1      -0.978  15.025  23.002  0.00  0.00    +0.000 C 
ENDBRANCH  27  29
ENDBRANCH   3  27
TORSDOF 9
ENDMDL
MODEL 5
REMARK VINA RESULT:      -6.9      0.677      1.332
REMARK  Name = 
REMARK  13 active torsions:
REMARK  status: ('A' for Active; 'I' for Inactive)
REMARK    1  A    between atoms: C_1  and  C_2
REMARK    2  A    between atoms: C_2  and  C_3
REMARK    3  A    between atoms: C_3  and  C_4
REMARK    4  A    between atoms: C_4  and  C_5
REMARK    5  A    between atoms: C_5  and  C_6
REMARK    6  A    between atoms: C_6  and  S_7
REMARK    7  A    between atoms: S_7  and  C_8
REMARK    8  A    between atoms: C_11  and  C_12
REMARK    9  A    between atoms: C_14  and  C_15
REMARK   10  A    between atoms: C_14  and  C_16
REMARK   11  A    between atoms: C_16  and  O_18
REMARK   12  A    between atoms: O_18  and  C_19
REMARK   13  A    between atoms: N_23  and  C_24
REMARK                            x       y       z     vdW  Elec       q    Type
REMARK                         _______ _______ _______ _____ _____    ______ ____
ROOT
ATOM      1  C   UNL     1       3.240   6.457  18.076  0.00  0.00    +0.000 C 
ATOM      2  N   UNL     1       4.344   5.934  18.916  0.00  0.00    +0.000 NA
ATOM      3  C   UNL     1       4.530   4.461  18.603  0.00  0.00    +0.000 C 
ATOM      4  C   UNL     1       5.966   4.261  18.096  0.00  0.00    +0.000 C 
ATOM      5  C   UNL     1       3.518   4.136  17.479  0.00  0.00    +0.000 C 
ATOM      6  C   UNL     1       2.653   2.897  17.620  0.00  0.00    +0.000 C 
ATOM      7  O   UNL     1       2.985   1.779  17.252  0.00  0.00    +0.000 OA
ATOM      8  N   UNL     1       1.501   3.248  18.263  0.00  0.00    +0.000 N 
ATOM      9  C   UNL     1       0.575   2.342  18.892  0.00  0.00    +0.000 C 
ATOM     10  C   UNL     1       1.568   4.554  18.653  0.00  0.00    +0.000 C 
ATOM     11  O   UNL     1       1.080   5.018  19.654  0.00  0.00    +0.000 OA
ATOM     12  C   UNL     1       2.477   5.226  17.647  0.00  0.00    +0.000 C 
ATOM     13  H   UNL     1       4.054   6.007  19.900  0.00  0.00    +0.000 HD
ENDROOT
BRANCH   1  17
ATOM     14  C   UNL     1       0.630   9.502  19.768  0.00  0.00    +0.000 A 
ATOM     15  C   UNL     1       1.278   8.586  20.604  0.00  0.00    +0.000 A 
ATOM     16  C   UNL     1       2.160   7.630  20.073  0.00  0.00    +0.000 A 
ATOM     17  C   UNL     1       2.401   7.566  18.697  0.00  0.00    +0.000 A 
ATOM     18  C   UNL     1       1.833   8.575  17.894  0.00  0.00    +0.000 A 
ATOM     19  C   UNL     1       0.898   9.479  18.409  0.00  0.00    +0.000 A 
BRANCH  14  20
ATOM     20  S   UNL     1      -0.484  10.736  20.392  0.00  0.00    +0.000 S 
BRANCH  20  21
ATOM     21  C   UNL     1       0.038  12.188  19.402  0.00  0.00    +0.000 C 
BRANCH  21  22
ATOM     22  C   UNL     1      -1.158  12.598  18.542  0.00  0.00    +0.000 C 
BRANCH  22  23
ATOM     23  C   UNL     1      -2.384  11.712  18.761  0.00  0.00    +0.000 C 
BRANCH  23  24
ATOM     24  C   UNL     1      -3.038  11.367  17.419  0.00  0.00    +0.000 C 
BRANCH  24  26
ATOM     25  C   UNL     1      -2.890   9.779  15.472  0.00  0.00    +0.000 C 
ATOM     26  C   UNL     1      -2.697   9.948  16.971  0.00  0.00    +0.000 C 
ENDBRANCH  24  26
ENDBRANCH  23  24
ENDBRANCH  22  23
ENDBRANCH  21  22
ENDBRANCH  20  21
ENDBRANCH  14  20
ENDBRANCH   1  17
BRANCH   3  27
ATOM     27  C   UNL     1       4.365   3.583  19.887  0.00  0.00    +0.000 C 
ATOM     28  O   UNL     1       3.614   3.849  20.810  0.00  0.00    +0.000 OA
BRANCH  27  29
ATOM     29  O   UNL     1       5.176   2.479  19.867  0.00  0.00    +0.000 OA
ATOM     30  C   UNL     1       4.791   1.505  20.841  0.00  0.00    +0.000 C 
ENDBRANCH  27  29
ENDBRANCH   3  27
TORSDOF 9
ENDMDL
MODEL 6
REMARK VINA RESULT:      -6.7      4.124      8.599
REMARK  Name = 
REMARK  13 active torsions:
REMARK  status: ('A' for Active; 'I' for Inactive)
REMARK    1  A    between atoms: C_1  and  C_2
REMARK    2  A    between atoms: C_2  and  C_3
REMARK    3  A    between atoms: C_3  and  C_4
REMARK    4  A    between atoms: C_4  and  C_5
REMARK    5  A    between atoms: C_5  and  C_6
REMARK    6  A    between atoms: C_6  and  S_7
REMARK    7  A    between atoms: S_7  and  C_8
REMARK    8  A    between atoms: C_11  and  C_12
REMARK    9  A    between atoms: C_14  and  C_15
REMARK   10  A    between atoms: C_14  and  C_16
REMARK   11  A    between atoms: C_16  and  O_18
REMARK   12  A    between atoms: O_18  and  C_19
REMARK   13  A    between atoms: N_23  and  C_24
REMARK                            x       y       z     vdW  Elec       q    Type
REMARK                         _______ _______ _______ _____ _____    ______ ____
ROOT
ATOM      1  C   UNL     1       0.707  10.135  20.587  0.00  0.00    +0.000 C 
ATOM      2  N   UNL     1       1.349  11.452  20.359  0.00  0.00    +0.000 NA
ATOM      3  C   UNL     1       0.274  12.522  20.391  0.00  0.00    +0.000 C 
ATOM      4  C   UNL     1       0.620  13.509  21.516  0.00  0.00    +0.000 C 
ATOM      5  C   UNL     1      -1.047  11.786  20.714  0.00  0.00    +0.000 C 
ATOM      6  C   UNL     1      -2.272  12.094  19.873  0.00  0.00    +0.000 C 
ATOM      7  O   UNL     1      -3.057  13.004  20.105  0.00  0.00    +0.000 OA
ATOM      8  N   UNL     1      -2.298  11.229  18.818  0.00  0.00    +0.000 N 
ATOM      9  C   UNL     1      -3.076  11.384  17.616  0.00  0.00    +0.000 C 
ATOM     10  C   UNL     1      -1.167  10.465  18.818  0.00  0.00    +0.000 C 
ATOM     11  O   UNL     1      -0.589  10.059  17.841  0.00  0.00    +0.000 OA
ATOM     12  C   UNL     1      -0.751  10.367  20.270  0.00  0.00    +0.000 C 
ATOM     13  H   UNL     1       1.753  11.447  19.413  0.00  0.00    +0.000 HD
ENDROOT
BRANCH   1  17
ATOM     14  C   UNL     1       2.781   6.845  18.632  0.00  0.00    +0.000 A 
ATOM     15  C   UNL     1       2.124   6.639  19.850  0.00  0.00    +0.000 A 
ATOM     16  C   UNL     1       1.412   7.681  20.466  0.00  0.00    +0.000 A 
ATOM     17  C   UNL     1       1.352   8.950  19.880  0.00  0.00    +0.000 A 
ATOM     18  C   UNL     1       1.916   9.097  18.598  0.00  0.00    +0.000 A 
ATOM     19  C   UNL     1       2.689   8.085  18.019  0.00  0.00    +0.000 A 
BRANCH  14  20
ATOM     20  S   UNL     1       3.685   5.557  17.808  0.00  0.00    +0.000 S 
BRANCH  20  21
ATOM     21  C   UNL     1       2.346   4.338  17.525  0.00  0.00    +0.000 C 
BRANCH  21  22
ATOM     22  C   UNL     1       2.949   2.951  17.742  0.00  0.00    +0.000 C 
BRANCH  22  23
ATOM     23  C   UNL     1       2.578   2.343  19.094  0.00  0.00    +0.000 C 
BRANCH  23  24
ATOM     24  C   UNL     1       1.122   2.667  19.443  0.00  0.00    +0.000 C 
BRANCH  24  26
ATOM     25  C   UNL     1       2.326   3.274  21.568  0.00  0.00    +0.000 C 
ATOM     26  C   UNL     1       0.972   3.113  20.895  0.00  0.00    +0.000 C 
ENDBRANCH  24  26
ENDBRANCH  23  24
ENDBRANCH  22  23
ENDBRANCH  21  22
ENDBRANCH  20  21
ENDBRANCH  14  20
ENDBRANCH   1  17
BRANCH   3  27
ATOM     27  C   UNL     1       0.243  13.335  19.054  0.00  0.00    +0.000 C 
ATOM     28  O   UNL     1      -0.498  14.280  18.842  0.00  0.00    +0.000 OA
BRANCH  27  29
ATOM     29  O   UNL     1       1.137  12.855  18.135  0.00  0.00    +0.000 OA
ATOM     30  C   UNL     1       2.304  13.676  18.032  0.00  0.00    +0.000 C 
ENDBRANCH  27  29
ENDBRANCH   3  27
TORSDOF 9
ENDMDL
MODEL 7
REMARK VINA RESULT:      -6.7      2.396      3.894
REMARK  Name = 
REMARK  13 active torsions:
REMARK  status: ('A' for Active; 'I' for Inactive)
REMARK    1  A    between atoms: C_1  and  C_2
REMARK    2  A    between atoms: C_2  and  C_3
REMARK    3  A    between atoms: C_3  and  C_4
REMARK    4  A    between atoms: C_4  and  C_5
REMARK    5  A    between atoms: C_5  and  C_6
REMARK    6  A    between atoms: C_6  and  S_7
REMARK    7  A    between atoms: S_7  and  C_8
REMARK    8  A    between atoms: C_11  and  C_12
REMARK    9  A    between atoms: C_14  and  C_15
REMARK   10  A    between atoms: C_14  and  C_16
REMARK   11  A    between atoms: C_16  and  O_18
REMARK   12  A    between atoms: O_18  and  C_19
REMARK   13  A    between atoms: N_23  and  C_24
REMARK                            x       y       z     vdW  Elec       q    Type
REMARK                         _______ _______ _______ _____ _____    ______ ____
ROOT
ATOM      1  C   UNL     1       3.388   5.506  18.781  0.00  0.00    +0.000 C 
ATOM      2  N   UNL     1       3.291   4.863  17.448  0.00  0.00    +0.000 NA
ATOM      3  C   UNL     1       4.629   4.224  17.125  0.00  0.00    +0.000 C 
ATOM      4  C   UNL     1       4.399   2.719  16.919  0.00  0.00    +0.000 C 
ATOM      5  C   UNL     1       5.523   4.462  18.363  0.00  0.00    +0.000 C 
ATOM      6  C   UNL     1       6.932   4.985  18.149  0.00  0.00    +0.000 C 
ATOM      7  O   UNL     1       7.906   4.275  17.939  0.00  0.00    +0.000 OA
ATOM      8  N   UNL     1       6.894   6.349  18.180  0.00  0.00    +0.000 N 
ATOM      9  C   UNL     1       7.919   7.235  17.693  0.00  0.00    +0.000 C 
ATOM     10  C   UNL     1       5.601   6.774  18.280  0.00  0.00    +0.000 C 
ATOM     11  O   UNL     1       5.146   7.775  17.785  0.00  0.00    +0.000 OA
ATOM     12  C   UNL     1       4.872   5.668  19.013  0.00  0.00    +0.000 C 
ATOM     13  H   UNL     1       3.124   5.601  16.752  0.00  0.00    +0.000 HD
ENDROOT
BRANCH   1  17
ATOM     14  C   UNL     1       1.212   9.220  19.425  0.00  0.00    +0.000 A 
ATOM     15  C   UNL     1       1.567   8.827  18.129  0.00  0.00    +0.000 A 
ATOM     16  C   UNL     1       2.228   7.608  17.906  0.00  0.00    +0.000 A 
ATOM     17  C   UNL     1       2.553   6.765  18.974  0.00  0.00    +0.000 A 
ATOM     18  C   UNL     1       2.075   7.124  20.249  0.00  0.00    +0.000 A 
ATOM     19  C   UNL     1       1.486   8.370  20.485  0.00  0.00    +0.000 A 
BRANCH  14  20
ATOM     20  S   UNL     1       0.366  10.746  19.758  0.00  0.00    +0.000 S 
BRANCH  20  21
ATOM     21  C   UNL     1      -0.541  10.976  18.182  0.00  0.00    +0.000 C 
BRANCH  21  22
ATOM     22  C   UNL     1      -2.032  10.936  18.513  0.00  0.00    +0.000 C 
BRANCH  22  23
ATOM     23  C   UNL     1      -2.771   9.800  17.805  0.00  0.00    +0.000 C 
BRANCH  23  24
ATOM     24  C   UNL     1      -3.599  10.349  16.638  0.00  0.00    +0.000 C 
BRANCH  24  26
ATOM     25  C   UNL     1      -3.498  10.105  14.135  0.00  0.00    +0.000 C 
ATOM     26  C   UNL     1      -2.751  10.545  15.384  0.00  0.00    +0.000 C 
ENDBRANCH  24  26
ENDBRANCH  23  24
ENDBRANCH  22  23
ENDBRANCH  21  22
ENDBRANCH  20  21
ENDBRANCH  14  20
ENDBRANCH   1  17
BRANCH   3  27
ATOM     27  C   UNL     1       5.219   4.789  15.790  0.00  0.00    +0.000 C 
ATOM     28  O   UNL     1       4.976   5.899  15.348  0.00  0.00    +0.000 OA
BRANCH  27  29
ATOM     29  O   UNL     1       6.033   3.886  15.161  0.00  0.00    +0.000 OA
ATOM     30  C   UNL     1       7.074   4.522  14.414  0.00  0.00    +0.000 C 
ENDBRANCH  27  29
ENDBRANCH   3  27
TORSDOF 9
ENDMDL
MODEL 8
REMARK VINA RESULT:      -6.6      4.855      9.303
REMARK  Name = 
REMARK  13 active torsions:
REMARK  status: ('A' for Active; 'I' for Inactive)
REMARK    1  A    between atoms: C_1  and  C_2
REMARK    2  A    between atoms: C_2  and  C_3
REMARK    3  A    between atoms: C_3  and  C_4
REMARK    4  A    between atoms: C_4  and  C_5
REMARK    5  A    between atoms: C_5  and  C_6
REMARK    6  A    between atoms: C_6  and  S_7
REMARK    7  A    between atoms: S_7  and  C_8
REMARK    8  A    between atoms: C_11  and  C_12
REMARK    9  A    between atoms: C_14  and  C_15
REMARK   10  A    between atoms: C_14  and  C_16
REMARK   11  A    between atoms: C_16  and  O_18
REMARK   12  A    between atoms: O_18  and  C_19
REMARK   13  A    between atoms: N_23  and  C_24
REMARK                            x       y       z     vdW  Elec       q    Type
REMARK                         _______ _______ _______ _____ _____    ______ ____
ROOT
ATOM      1  C   UNL     1      -0.498  11.240  19.387  0.00  0.00    +0.000 C 
ATOM      2  N   UNL     1      -0.891  11.740  20.726  0.00  0.00    +0.000 NA
ATOM      3  C   UNL     1      -1.118  13.237  20.632  0.00  0.00    +0.000 C 
ATOM      4  C   UNL     1      -2.570  13.524  21.044  0.00  0.00    +0.000 C 
ATOM      5  C   UNL     1      -0.901  13.606  19.146  0.00  0.00    +0.000 C 
ATOM      6  C   UNL     1      -0.025  14.801  18.817  0.00  0.00    +0.000 C 
ATOM      7  O   UNL     1      -0.428  15.954  18.747  0.00  0.00    +0.000 OA
ATOM      8  N   UNL     1       1.261  14.364  18.673  0.00  0.00    +0.000 N 
ATOM      9  C   UNL     1       2.441  15.188  18.697  0.00  0.00    +0.000 C 
ATOM     10  C   UNL     1       1.335  13.036  18.982  0.00  0.00    +0.000 C 
ATOM     11  O   UNL     1       2.271  12.485  19.506  0.00  0.00    +0.000 OA
ATOM     12  C   UNL     1      -0.028  12.471  18.648  0.00  0.00    +0.000 C 
ATOM     13  H   UNL     1      -0.100  11.586  21.366  0.00  0.00    +0.000 HD
ENDROOT
BRANCH   1  17
ATOM     14  C   UNL     1       2.051   7.711  19.373  0.00  0.00    +0.000 A 
ATOM     15  C   UNL     1       1.828   8.424  18.189  0.00  0.00    +0.000 A 
ATOM     16  C   UNL     1       1.046   9.591  18.192  0.00  0.00    +0.000 A 
ATOM     17  C   UNL     1       0.465  10.060  19.374  0.00  0.00    +0.000 A 
ATOM     18  C   UNL     1       0.806   9.396  20.569  0.00  0.00    +0.000 A 
ATOM     19  C   UNL     1       1.519   8.193  20.558  0.00  0.00    +0.000 A 
BRANCH  14  20
ATOM     20  S   UNL     1       3.040   6.237  19.424  0.00  0.00    +0.000 S 
BRANCH  20  21
ATOM     21  C   UNL     1       2.214   5.328  20.784  0.00  0.00    +0.000 C 
BRANCH  21  22
ATOM     22  C   UNL     1       1.150   4.435  20.146  0.00  0.00    +0.000 C 
BRANCH  22  23
ATOM     23  C   UNL     1       1.235   2.981  20.609  0.00  0.00    +0.000 C 
BRANCH  23  24
ATOM     24  C   UNL     1       1.475   2.054  19.412  0.00  0.00    +0.000 C 
BRANCH  24  26
ATOM     25  C   UNL     1       3.165   2.633  17.639  0.00  0.00    +0.000 C 
ATOM     26  C   UNL     1       1.741   2.840  18.131  0.00  0.00    +0.000 C 
ENDBRANCH  24  26
ENDBRANCH  23  24
ENDBRANCH  22  23
ENDBRANCH  21  22
ENDBRANCH  20  21
ENDBRANCH  14  20
ENDBRANCH   1  17
BRANCH   3  27
ATOM     27  C   UNL     1      -0.192  14.015  21.626  0.00  0.00    +0.000 C 
ATOM     28  O   UNL     1       0.831  13.561  22.110  0.00  0.00    +0.000 OA
BRANCH  27  29
ATOM     29  O   UNL     1      -0.671  15.267  21.907  0.00  0.00    +0.000 OA
ATOM     30  C   UNL     1      -0.077  15.824  23.083  0.00  0.00    +0.000 C 
ENDBRANCH  27  29
ENDBRANCH   3  27
TORSDOF 9
ENDMDL
MODEL 9
REMARK VINA RESULT:      -6.6      4.722      9.246
REMARK  Name = 
REMARK  13 active torsions:
REMARK  status: ('A' for Active; 'I' for Inactive)
REMARK    1  A    between atoms: C_1  and  C_2
REMARK    2  A    between atoms: C_2  and  C_3
REMARK    3  A    between atoms: C_3  and  C_4
REMARK    4  A    between atoms: C_4  and  C_5
REMARK    5  A    between atoms: C_5  and  C_6
REMARK    6  A    between atoms: C_6  and  S_7
REMARK    7  A    between atoms: S_7  and  C_8
REMARK    8  A    between atoms: C_11  and  C_12
REMARK    9  A    between atoms: C_14  and  C_15
REMARK   10  A    between atoms: C_14  and  C_16
REMARK   11  A    between atoms: C_16  and  O_18
REMARK   12  A    between atoms: O_18  and  C_19
REMARK   13  A    between atoms: N_23  and  C_24
REMARK                            x       y       z     vdW  Elec       q    Type
REMARK                         _______ _______ _______ _____ _____    ______ ____
ROOT
ATOM      1  C   UNL     1      -0.397  10.848  19.026  0.00  0.00    +0.000 C 
ATOM      2  N   UNL     1      -1.073  11.199  20.299  0.00  0.00    +0.000 NA
ATOM      3  C   UNL     1      -1.369  12.687  20.291  0.00  0.00    +0.000 C 
ATOM      4  C   UNL     1      -2.888  12.870  20.428  0.00  0.00    +0.000 C 
ATOM      5  C   UNL     1      -0.891  13.207  18.915  0.00  0.00    +0.000 C 
ATOM      6  C   UNL     1      -0.042  14.464  18.872  0.00  0.00    +0.000 C 
ATOM      7  O   UNL     1      -0.494  15.600  18.823  0.00  0.00    +0.000 OA
ATOM      8  N   UNL     1       1.272  14.099  18.950  0.00  0.00    +0.000 N 
ATOM      9  C   UNL     1       2.372  14.968  19.280  0.00  0.00    +0.000 C 
ATOM     10  C   UNL     1       1.366  12.753  19.151  0.00  0.00    +0.000 C 
ATOM     11  O   UNL     1       2.213  12.194  19.803  0.00  0.00    +0.000 OA
ATOM     12  C   UNL     1       0.130  12.164  18.505  0.00  0.00    +0.000 C 
ATOM     13  H   UNL     1      -0.414  11.019  21.068  0.00  0.00    +0.000 HD
ENDROOT
BRANCH   1  17
ATOM     14  C   UNL     1       2.314   7.451  19.250  0.00  0.00    +0.000 A 
ATOM     15  C   UNL     1       2.175   8.163  18.053  0.00  0.00    +0.000 A 
ATOM     16  C   UNL     1       1.339   9.290  17.984  0.00  0.00    +0.000 A 
ATOM     17  C   UNL     1       0.620   9.718  19.104  0.00  0.00    +0.000 A 
ATOM     18  C   UNL     1       0.873   9.059  20.324  0.00  0.00    +0.000 A 
ATOM     19  C   UNL     1       1.644   7.894  20.379  0.00  0.00    +0.000 A 
BRANCH  14  20
ATOM     20  S   UNL     1       3.366   6.027  19.393  0.00  0.00    +0.000 S 
BRANCH  20  21
ATOM     21  C   UNL     1       2.413   4.808  18.410  0.00  0.00    +0.000 C 
BRANCH  21  22
ATOM     22  C   UNL     1       3.358   4.253  17.344  0.00  0.00    +0.000 C 
BRANCH  22  23
ATOM     23  C   UNL     1       4.751   4.882  17.394  0.00  0.00    +0.000 C 
BRANCH  23  24
ATOM     24  C   UNL     1       5.096   5.519  16.044  0.00  0.00    +0.000 C 
BRANCH  24  26
ATOM     25  C   UNL     1       6.864   4.767  14.419  0.00  0.00    +0.000 C 
ATOM     26  C   UNL     1       5.494   4.471  15.007  0.00  0.00    +0.000 C 
ENDBRANCH  24  26
ENDBRANCH  23  24
ENDBRANCH  22  23
ENDBRANCH  21  22
ENDBRANCH  20  21
ENDBRANCH  14  20
ENDBRANCH   1  17
BRANCH   3  27
ATOM     27  C   UNL     1      -0.704  13.404  21.513  0.00  0.00    +0.000 C 
ATOM     28  O   UNL     1       0.275  12.984  22.106  0.00  0.00    +0.000 OA
BRANCH  27  29
ATOM     29  O   UNL     1      -1.358  14.558  21.854  0.00  0.00    +0.000 OA
ATOM     30  C   UNL     1      -1.432  14.740  23.271  0.00  0.00    +0.000 C 
ENDBRANCH  27  29
ENDBRANCH   3  27
TORSDOF 9
ENDMDL
