MODEL 1
REMARK VINA RESULT:      -7.8      0.000      0.000
REMARK  Name = 
REMARK  5 active torsions:
REMARK  status: ('A' for Active; 'I' for Inactive)
REMARK    1  A    between atoms: C_1  and  C_2
REMARK    2  A    between atoms: C_4  and  C_5
REMARK    3  A    between atoms: C_5  and  N_6
REMARK    4  A    between atoms: N_9  and  C_10
REMARK    5  A    between atoms: C_19  and  C_20
REMARK                            x       y       z     vdW  Elec       q    Type
REMARK                         _______ _______ _______ _____ _____    ______ ____
ROOT
ATOM      1  N   UNL     1       5.086   4.981  16.899  0.00  0.00    +0.000 NA
ATOM      2  C   UNL     1       5.338   6.344  17.435  0.00  0.00    +0.000 C 
ATOM      3  C   UNL     1       4.035   7.178  17.445  0.00  0.00    +0.000 C 
ATOM      4  N   UNL     1       3.042   6.450  18.245  0.00  0.00    +0.000 N 
ATOM      5  C   UNL     1       2.771   5.098  17.747  0.00  0.00    +0.000 C 
ATOM      6  C   UNL     1       4.100   4.298  17.758  0.00  0.00    +0.000 C 
ENDROOT
BRANCH   4   7
ATOM      7  C   UNL     1       2.232   7.159  19.099  0.00  0.00    +0.000 A 
ATOM      8  N   UNL     1       1.931   8.436  18.751  0.00  0.00    +0.000 NA
ATOM      9  C   UNL     1       1.251   9.209  19.616  0.00  0.00    +0.000 A 
ATOM     10  C   UNL     1       0.944  10.526  19.299  0.00  0.00    +0.000 A 
ATOM     11  C   UNL     1       0.271  11.355  20.193  0.00  0.00    +0.000 A 
ATOM     12  C   UNL     1      -0.103  10.864  21.437  0.00  0.00    +0.000 A 
ATOM     13  C   UNL     1       0.189   9.542  21.766  0.00  0.00    +0.000 A 
ATOM     14  C   UNL     1       0.852   8.713  20.877  0.00  0.00    +0.000 A 
ATOM     15  N   UNL     1       1.118   7.453  21.240  0.00  0.00    +0.000 NA
ATOM     16  C   UNL     1       1.822   6.685  20.360  0.00  0.00    +0.000 A 
ATOM     17  C   UNL     1       2.193   5.340  20.904  0.00  0.00    +0.000 C 
ENDBRANCH   4   7
BRANCH   1  18
ATOM     18  C   UNL     1       6.319   4.220  16.705  0.00  0.00    +0.000 C 
BRANCH  18  22
ATOM     19  C   UNL     1       7.152   4.536  11.684  0.00  0.00    +0.000 C 
ATOM     20  C   UNL     1       7.180   4.643  13.159  0.00  0.00    +0.000 A 
ATOM     21  C   UNL     1       6.442   3.898  14.100  0.00  0.00    +0.000 A 
ATOM     22  C   UNL     1       6.804   4.432  15.314  0.00  0.00    +0.000 A 
ATOM     23  O   UNL     1       7.721   5.415  15.117  0.00  0.00    +0.000 OA
ATOM     24  N   UNL     1       7.963   5.550  13.760  0.00  0.00    +0.000 NA
ENDBRANCH  18  22
ENDBRANCH   1  18
TORSDOF 3
ENDMDL
MODEL 2
REMARK VINA RESULT:      -7.6      0.950      1.040
REMARK  Name = 
REMARK  5 active torsions:
REMARK  status: ('A' for Active; 'I' for Inactive)
REMARK    1  A    between atoms: C_1  and  C_2
REMARK    2  A    between atoms: C_4  and  C_5
REMARK    3  A    between atoms: C_5  and  N_6
REMARK    4  A    between atoms: N_9  and  C_10
REMARK    5  A    between atoms: C_19  and  C_20
REMARK                            x       y       z     vdW  Elec       q    Type
REMARK                         _______ _______ _______ _____ _____    ______ ____
ROOT
ATOM      1  N   UNL     1       5.795   5.117  17.463  0.00  0.00    +0.000 NA
ATOM      2  C   UNL     1       4.895   6.150  16.888  0.00  0.00    +0.000 C 
ATOM      3  C   UNL     1       3.448   5.962  17.403  0.00  0.00    +0.000 C 
ATOM      4  N   UNL     1       3.482   6.021  18.870  0.00  0.00    +0.000 N 
ATOM      5  C   UNL     1       4.365   5.018  19.472  0.00  0.00    +0.000 C 
ATOM      6  C   UNL     1       5.802   5.245  18.933  0.00  0.00    +0.000 C 
ENDROOT
BRANCH   4   7
ATOM      7  C   UNL     1       2.484   6.698  19.529  0.00  0.00    +0.000 A 
ATOM      8  N   UNL     1       2.280   7.994  19.181  0.00  0.00    +0.000 NA
ATOM      9  C   UNL     1       1.406   8.733  19.886  0.00  0.00    +0.000 A 
ATOM     10  C   UNL     1       1.187  10.067  19.568  0.00  0.00    +0.000 A 
ATOM     11  C   UNL     1       0.312  10.861  20.305  0.00  0.00    +0.000 A 
ATOM     12  C   UNL     1      -0.360  10.316  21.392  0.00  0.00    +0.000 A 
ATOM     13  C   UNL     1      -0.159   8.976  21.717  0.00  0.00    +0.000 A 
ATOM     14  C   UNL     1       0.705   8.182  20.982  0.00  0.00    +0.000 A 
ATOM     15  N   UNL     1       0.872   6.904  21.337  0.00  0.00    +0.000 NA
ATOM     16  C   UNL     1       1.773   6.170  20.623  0.00  0.00    +0.000 A 
ATOM     17  C   UNL     1       1.997   4.795  21.175  0.00  0.00    +0.000 C 
ENDBRANCH   4   7
BRANCH   1  18
ATOM     18  C   UNL     1       7.130   5.146  16.867  0.00  0.00    +0.000 C 
BRANCH  18  22
ATOM     19  C   UNL     1       5.967   3.381  12.227  0.00  0.00    +0.000 C 
ATOM     20  C   UNL     1       6.539   4.065  13.407  0.00  0.00    +0.000 A 
ATOM     21  C   UNL     1       6.291   3.805  14.769  0.00  0.00    +0.000 A 
ATOM     22  C   UNL     1       7.029   4.755  15.435  0.00  0.00    +0.000 A 
ATOM     23  O   UNL     1       7.699   5.518  14.533  0.00  0.00    +0.000 OA
ATOM     24  N   UNL     1       7.395   5.085  13.252  0.00  0.00    +0.000 NA
ENDBRANCH  18  22
ENDBRANCH   1  18
TORSDOF 3
ENDMDL
MODEL 3
REMARK VINA RESULT:      -7.6      1.360      2.341
REMARK  Name = 
REMARK  5 active torsions:
REMARK  status: ('A' for Active; 'I' for Inactive)
REMARK    1  A    between atoms: C_1  and  C_2
REMARK    2  A    between atoms: C_4  and  C_5
REMARK    3  A    between atoms: C_5  and  N_6
REMARK    4  A    between atoms: N_9  and  C_10
REMARK    5  A    between atoms: C_19  and  C_20
REMARK                            x       y       z     vdW  Elec       q    Type
REMARK                         _______ _______ _______ _____ _____    ______ ____
ROOT
ATOM      1  N   UNL     1       4.488   5.177  18.411  0.00  0.00    +0.000 NA
ATOM      2  C   UNL     1       4.605   6.592  17.973  0.00  0.00    +0.000 C 
ATOM      3  C   UNL     1       3.209   7.256  17.892  0.00  0.00    +0.000 C 
ATOM      4  N   UNL     1       2.580   7.142  19.214  0.00  0.00    +0.000 N 
ATOM      5  C   UNL     1       2.454   5.758  19.681  0.00  0.00    +0.000 C 
ATOM      6  C   UNL     1       3.872   5.134  19.751  0.00  0.00    +0.000 C 
ENDROOT
BRANCH   4   7
ATOM      7  C   UNL     1       1.875   8.214  19.706  0.00  0.00    +0.000 A 
ATOM      8  N   UNL     1       1.468   8.147  20.999  0.00  0.00    +0.000 NA
ATOM      9  C   UNL     1       0.665   9.109  21.485  0.00  0.00    +0.000 A 
ATOM     10  C   UNL     1       0.215   9.061  22.798  0.00  0.00    +0.000 A 
ATOM     11  C   UNL     1      -0.643  10.029  23.313  0.00  0.00    +0.000 A 
ATOM     12  C   UNL     1      -1.071  11.070  22.499  0.00  0.00    +0.000 A 
ATOM     13  C   UNL     1      -0.621  11.138  21.183  0.00  0.00    +0.000 A 
ATOM     14  C   UNL     1       0.239  10.182  20.670  0.00  0.00    +0.000 A 
ATOM     15  N   UNL     1       0.639  10.284  19.398  0.00  0.00    +0.000 NA
ATOM     16  C   UNL     1       1.439   9.292  18.913  0.00  0.00    +0.000 A 
ATOM     17  C   UNL     1       1.723   9.415  17.448  0.00  0.00    +0.000 C 
ENDBRANCH   4   7
BRANCH   1  18
ATOM     18  C   UNL     1       5.760   4.461  18.329  0.00  0.00    +0.000 C 
BRANCH  18  22
ATOM     19  C   UNL     1       6.344   4.033  13.282  0.00  0.00    +0.000 C 
ATOM     20  C   UNL     1       6.480   4.295  14.731  0.00  0.00    +0.000 A 
ATOM     21  C   UNL     1       5.662   3.831  15.780  0.00  0.00    +0.000 A 
ATOM     22  C   UNL     1       6.195   4.409  16.907  0.00  0.00    +0.000 A 
ATOM     23  O   UNL     1       7.281   5.150  16.561  0.00  0.00    +0.000 OA
ATOM     24  N   UNL     1       7.466   5.079  15.190  0.00  0.00    +0.000 NA
ENDBRANCH  18  22
ENDBRANCH   1  18
TORSDOF 3
ENDMDL
MODEL 4
REMARK VINA RESULT:      -7.2      1.441      2.610
REMARK  Name = 
REMARK  5 active torsions:
REMARK  status: ('A' for Active; 'I' for Inactive)
REMARK    1  A    between atoms: C_1  and  C_2
REMARK    2  A    between atoms: C_4  and  C_5
REMARK    3  A    between atoms: C_5  and  N_6
REMARK    4  A    between atoms: N_9  and  C_10
REMARK    5  A    between atoms: C_19  and  C_20
REMARK                            x       y       z     vdW  Elec       q    Type
REMARK                         _______ _______ _______ _____ _____    ______ ____
ROOT
ATOM      1  N   UNL     1       3.684   4.731  17.980  0.00  0.00    +0.000 NA
ATOM      2  C   UNL     1       2.322   4.700  18.575  0.00  0.00    +0.000 C 
ATOM      3  C   UNL     1       2.228   5.670  19.776  0.00  0.00    +0.000 C 
ATOM      4  N   UNL     1       2.587   7.012  19.299  0.00  0.00    +0.000 N 
ATOM      5  C   UNL     1       3.924   7.079  18.701  0.00  0.00    +0.000 C 
ATOM      6  C   UNL     1       3.972   6.096  17.501  0.00  0.00    +0.000 C 
ENDROOT
BRANCH   4   7
ATOM      7  C   UNL     1       1.864   8.090  19.750  0.00  0.00    +0.000 A 
ATOM      8  N   UNL     1       1.507   8.094  21.059  0.00  0.00    +0.000 NA
ATOM      9  C   UNL     1       0.691   9.060  21.514  0.00  0.00    +0.000 A 
ATOM     10  C   UNL     1       0.291   9.082  22.844  0.00  0.00    +0.000 A 
ATOM     11  C   UNL     1      -0.581  10.053  23.330  0.00  0.00    +0.000 A 
ATOM     12  C   UNL     1      -1.074  11.025  22.469  0.00  0.00    +0.000 A 
ATOM     13  C   UNL     1      -0.675  11.023  21.135  0.00  0.00    +0.000 A 
ATOM     14  C   UNL     1       0.198  10.063  20.650  0.00  0.00    +0.000 A 
ATOM     15  N   UNL     1       0.547  10.096  19.359  0.00  0.00    +0.000 NA
ATOM     16  C   UNL     1       1.363   9.101  18.907  0.00  0.00    +0.000 A 
ATOM     17  C   UNL     1       1.588   9.138  17.427  0.00  0.00    +0.000 C 
ENDBRANCH   4   7
BRANCH   1  18
ATOM     18  C   UNL     1       3.870   3.702  16.959  0.00  0.00    +0.000 C 
BRANCH  18  22
ATOM     19  C   UNL     1       7.536   5.045  13.680  0.00  0.00    +0.000 C 
ATOM     20  C   UNL     1       6.730   4.612  14.841  0.00  0.00    +0.000 A 
ATOM     21  C   UNL     1       5.366   4.263  14.872  0.00  0.00    +0.000 A 
ATOM     22  C   UNL     1       5.114   3.995  16.197  0.00  0.00    +0.000 A 
ATOM     23  O   UNL     1       6.260   4.145  16.911  0.00  0.00    +0.000 OA
ATOM     24  N   UNL     1       7.283   4.531  16.060  0.00  0.00    +0.000 NA
ENDBRANCH  18  22
ENDBRANCH   1  18
TORSDOF 3
ENDMDL
MODEL 5
REMARK VINA RESULT:      -7.1      2.467      8.631
REMARK  Name = 
REMARK  5 active torsions:
REMARK  status: ('A' for Active; 'I' for Inactive)
REMARK    1  A    between atoms: C_1  and  C_2
REMARK    2  A    between atoms: C_4  and  C_5
REMARK    3  A    between atoms: C_5  and  N_6
REMARK    4  A    between atoms: N_9  and  C_10
REMARK    5  A    between atoms: C_19  and  C_20
REMARK                            x       y       z     vdW  Elec       q    Type
REMARK                         _______ _______ _______ _____ _____    ______ ____
ROOT
ATOM      1  N   UNL     1       2.650   6.630  19.864  0.00  0.00    +0.000 NA
ATOM      2  C   UNL     1       2.575   7.317  18.548  0.00  0.00    +0.000 C 
ATOM      3  C   UNL     1       3.990   7.525  17.958  0.00  0.00    +0.000 C 
ATOM      4  N   UNL     1       4.631   6.209  17.852  0.00  0.00    +0.000 N 
ATOM      5  C   UNL     1       4.718   5.500  19.132  0.00  0.00    +0.000 C 
ATOM      6  C   UNL     1       3.281   5.309  19.684  0.00  0.00    +0.000 C 
ENDROOT
BRANCH   4   7
ATOM      7  C   UNL     1       5.377   5.924  16.734  0.00  0.00    +0.000 A 
ATOM      8  N   UNL     1       4.790   5.164  15.774  0.00  0.00    +0.000 NA
ATOM      9  C   UNL     1       5.522   4.751  14.725  0.00  0.00    +0.000 A 
ATOM     10  C   UNL     1       4.958   3.957  13.735  0.00  0.00    +0.000 A 
ATOM     11  C   UNL     1       5.706   3.490  12.658  0.00  0.00    +0.000 A 
ATOM     12  C   UNL     1       7.052   3.815  12.564  0.00  0.00    +0.000 A 
ATOM     13  C   UNL     1       7.631   4.619  13.543  0.00  0.00    +0.000 A 
ATOM     14  C   UNL     1       6.889   5.092  14.612  0.00  0.00    +0.000 A 
ATOM     15  N   UNL     1       7.489   5.854  15.533  0.00  0.00    +0.000 NA
ATOM     16  C   UNL     1       6.739   6.253  16.599  0.00  0.00    +0.000 A 
ATOM     17  C   UNL     1       7.526   6.983  17.644  0.00  0.00    +0.000 C 
ENDBRANCH   4   7
BRANCH   1  18
ATOM     18  C   UNL     1       1.355   6.573  20.538  0.00  0.00    +0.000 C 
BRANCH  18  22
ATOM     19  C   UNL     1      -0.566  10.954  22.304  0.00  0.00    +0.000 C 
ATOM     20  C   UNL     1       0.266   9.781  21.958  0.00  0.00    +0.000 A 
ATOM     21  C   UNL     1      -0.003   8.772  21.012  0.00  0.00    +0.000 A 
ATOM     22  C   UNL     1       1.058   7.906  21.129  0.00  0.00    +0.000 A 
ATOM     23  O   UNL     1       1.923   8.379  22.064  0.00  0.00    +0.000 OA
ATOM     24  N   UNL     1       1.429   9.562  22.588  0.00  0.00    +0.000 NA
ENDBRANCH  18  22
ENDBRANCH   1  18
TORSDOF 3
ENDMDL
MODEL 6
REMARK VINA RESULT:      -7.0      3.164      8.922
REMARK  Name = 
REMARK  5 active torsions:
REMARK  status: ('A' for Active; 'I' for Inactive)
REMARK    1  A    between atoms: C_1  and  C_2
REMARK    2  A    between atoms: C_4  and  C_5
REMARK    3  A    between atoms: C_5  and  N_6
REMARK    4  A    between atoms: N_9  and  C_10
REMARK    5  A    between atoms: C_19  and  C_20
REMARK                            x       y       z     vdW  Elec       q    Type
REMARK                         _______ _______ _______ _____ _____    ______ ____
ROOT
ATOM      1  N   UNL     1       0.225  10.112  19.710  0.00  0.00    +0.000 NA
ATOM      2  C   UNL     1       0.523   9.774  18.294  0.00  0.00    +0.000 C 
ATOM      3  C   UNL     1       1.972   9.249  18.150  0.00  0.00    +0.000 C 
ATOM      4  N   UNL     1       2.118   8.085  19.033  0.00  0.00    +0.000 N 
ATOM      5  C   UNL     1       1.826   8.381  20.439  0.00  0.00    +0.000 C 
ATOM      6  C   UNL     1       0.367   8.898  20.537  0.00  0.00    +0.000 C 
ENDROOT
BRANCH   4   7
ATOM      7  C   UNL     1       2.821   6.995  18.581  0.00  0.00    +0.000 A 
ATOM      8  N   UNL     1       3.699   7.201  17.567  0.00  0.00    +0.000 NA
ATOM      9  C   UNL     1       4.312   6.145  17.004  0.00  0.00    +0.000 A 
ATOM     10  C   UNL     1       5.202   6.319  15.953  0.00  0.00    +0.000 A 
ATOM     11  C   UNL     1       5.823   5.238  15.333  0.00  0.00    +0.000 A 
ATOM     12  C   UNL     1       5.548   3.947  15.766  0.00  0.00    +0.000 A 
ATOM     13  C   UNL     1       4.665   3.757  16.827  0.00  0.00    +0.000 A 
ATOM     14  C   UNL     1       4.052   4.830  17.451  0.00  0.00    +0.000 A 
ATOM     15  N   UNL     1       3.205   4.598  18.460  0.00  0.00    +0.000 NA
ATOM     16  C   UNL     1       2.578   5.676  19.010  0.00  0.00    +0.000 A 
ATOM     17  C   UNL     1       1.549   5.311  20.035  0.00  0.00    +0.000 C 
ENDBRANCH   4   7
BRANCH   1  18
ATOM     18  C   UNL     1      -1.068  10.777  19.865  0.00  0.00    +0.000 C 
BRANCH  18  22
ATOM     19  C   UNL     1      -1.371  14.123  23.700  0.00  0.00    +0.000 C 
ATOM     20  C   UNL     1      -0.987  13.302  22.532  0.00  0.00    +0.000 A 
ATOM     21  C   UNL     1      -1.787  12.401  21.801  0.00  0.00    +0.000 A 
ATOM     22  C   UNL     1      -0.932  11.871  20.864  0.00  0.00    +0.000 A 
ATOM     23  O   UNL     1       0.295  12.437  21.005  0.00  0.00    +0.000 OA
ATOM     24  N   UNL     1       0.264  13.342  22.053  0.00  0.00    +0.000 NA
ENDBRANCH  18  22
ENDBRANCH   1  18
TORSDOF 3
ENDMDL
MODEL 7
REMARK VINA RESULT:      -7.0      3.429      8.008
REMARK  Name = 
REMARK  5 active torsions:
REMARK  status: ('A' for Active; 'I' for Inactive)
REMARK    1  A    between atoms: C_1  and  C_2
REMARK    2  A    between atoms: C_4  and  C_5
REMARK    3  A    between atoms: C_5  and  N_6
REMARK    4  A    between atoms: N_9  and  C_10
REMARK    5  A    between atoms: C_19  and  C_20
REMARK                            x       y       z     vdW  Elec       q    Type
REMARK                         _______ _______ _______ _____ _____    ______ ____
ROOT
ATOM      1  N   UNL     1       0.005  10.495  19.547  0.00  0.00    +0.000 NA
ATOM      2  C   UNL     1       0.432  10.124  18.173  0.00  0.00    +0.000 C 
ATOM      3  C   UNL     1       1.885   9.592  18.177  0.00  0.00    +0.000 C 
ATOM      4  N   UNL     1       1.942   8.448  19.096  0.00  0.00    +0.000 N 
ATOM      5  C   UNL     1       1.522   8.777  20.461  0.00  0.00    +0.000 C 
ATOM      6  C   UNL     1       0.062   9.300  20.411  0.00  0.00    +0.000 C 
ENDROOT
BRANCH   4   7
ATOM      7  C   UNL     1       2.679   7.346  18.735  0.00  0.00    +0.000 A 
ATOM      8  N   UNL     1       3.489   7.468  17.653  0.00  0.00    +0.000 NA
ATOM      9  C   UNL     1       4.128   6.382  17.185  0.00  0.00    +0.000 A 
ATOM     10  C   UNL     1       4.949   6.469  16.069  0.00  0.00    +0.000 A 
ATOM     11  C   UNL     1       5.595   5.351  15.547  0.00  0.00    +0.000 A 
ATOM     12  C   UNL     1       5.414   4.112  16.147  0.00  0.00    +0.000 A 
ATOM     13  C   UNL     1       4.602   4.010  17.273  0.00  0.00    +0.000 A 
ATOM     14  C   UNL     1       3.964   5.121  17.800  0.00  0.00    +0.000 A 
ATOM     15  N   UNL     1       3.187   4.973  18.878  0.00  0.00    +0.000 NA
ATOM     16  C   UNL     1       2.532   6.079  19.333  0.00  0.00    +0.000 A 
ATOM     17  C   UNL     1       1.581   5.793  20.454  0.00  0.00    +0.000 C 
ENDBRANCH   4   7
BRANCH   1  18
ATOM     18  C   UNL     1      -1.293  11.168  19.565  0.00  0.00    +0.000 C 
BRANCH  18  22
ATOM     19  C   UNL     1      -3.238  10.629  14.883  0.00  0.00    +0.000 C 
ATOM     20  C   UNL     1      -2.864  10.517  16.309  0.00  0.00    +0.000 A 
ATOM     21  C   UNL     1      -2.153  11.443  17.098  0.00  0.00    +0.000 A 
ATOM     22  C   UNL     1      -2.033  10.827  18.320  0.00  0.00    +0.000 A 
ATOM     23  O   UNL     1      -2.656   9.620  18.278  0.00  0.00    +0.000 OA
ATOM     24  N   UNL     1      -3.184   9.422  17.012  0.00  0.00    +0.000 NA
ENDBRANCH  18  22
ENDBRANCH   1  18
TORSDOF 3
ENDMDL
MODEL 8
REMARK VINA RESULT:      -6.8      0.776      1.107
REMARK  Name = 
REMARK  5 active torsions:
REMARK  status: ('A' for Active; 'I' for Inactive)
REMARK    1  A    between atoms: C_1  and  C_2
REMARK    2  A    between atoms: C_4  and  C_5
REMARK    3  A    between atoms: C_5  and  N_6
REMARK    4  A    between atoms: N_9  and  C_10
REMARK    5  A    between atoms: C_19  and  C_20
REMARK                            x       y       z     vdW  Elec       q    Type
REMARK                         _______ _______ _______ _____ _____    ______ ____
ROOT
ATOM      1  N   UNL     1       5.341   4.592  17.153  0.00  0.00    +0.000 NA
ATOM      2  C   UNL     1       4.716   4.090  18.405  0.00  0.00    +0.000 C 
ATOM      3  C   UNL     1       4.446   5.256  19.386  0.00  0.00    +0.000 C 
ATOM      4  N   UNL     1       3.590   6.232  18.699  0.00  0.00    +0.000 N 
ATOM      5  C   UNL     1       4.173   6.744  17.456  0.00  0.00    +0.000 C 
ATOM      6  C   UNL     1       4.422   5.546  16.503  0.00  0.00    +0.000 C 
ENDROOT
BRANCH   4   7
ATOM      7  C   UNL     1       2.568   6.825  19.401  0.00  0.00    +0.000 A 
ATOM      8  N   UNL     1       2.281   8.118  19.104  0.00  0.00    +0.000 NA
ATOM      9  C   UNL     1       1.381   8.779  19.851  0.00  0.00    +0.000 A 
ATOM     10  C   UNL     1       1.078  10.108  19.587  0.00  0.00    +0.000 A 
ATOM     11  C   UNL     1       0.173  10.822  20.368  0.00  0.00    +0.000 A 
ATOM     12  C   UNL     1      -0.443  10.201  21.447  0.00  0.00    +0.000 A 
ATOM     13  C   UNL     1      -0.157   8.865  21.719  0.00  0.00    +0.000 A 
ATOM     14  C   UNL     1       0.736   8.149  20.939  0.00  0.00    +0.000 A 
ATOM     15  N   UNL     1       0.985   6.871  21.245  0.00  0.00    +0.000 NA
ATOM     16  C   UNL     1       1.912   6.218  20.488  0.00  0.00    +0.000 A 
ATOM     17  C   UNL     1       2.227   4.840  20.986  0.00  0.00    +0.000 C 
ENDBRANCH   4   7
BRANCH   1  18
ATOM     18  C   UNL     1       5.776   3.507  16.274  0.00  0.00    +0.000 C 
BRANCH  18  22
ATOM     19  C   UNL     1       7.554   5.261  11.829  0.00  0.00    +0.000 C 
ATOM     20  C   UNL     1       7.307   4.909  13.243  0.00  0.00    +0.000 A 
ATOM     21  C   UNL     1       6.377   3.986  13.761  0.00  0.00    +0.000 A 
ATOM     22  C   UNL     1       6.522   4.086  15.124  0.00  0.00    +0.000 A 
ATOM     23  O   UNL     1       7.497   4.990  15.407  0.00  0.00    +0.000 OA
ATOM     24  N   UNL     1       7.996   5.509  14.224  0.00  0.00    +0.000 NA
ENDBRANCH  18  22
ENDBRANCH   1  18
TORSDOF 3
ENDMDL
MODEL 9
REMARK VINA RESULT:      -6.8      3.055      4.796
REMARK  Name = 
REMARK  5 active torsions:
REMARK  status: ('A' for Active; 'I' for Inactive)
REMARK    1  A    between atoms: C_1  and  C_2
REMARK    2  A    between atoms: C_4  and  C_5
REMARK    3  A    between atoms: C_5  and  N_6
REMARK    4  A    between atoms: N_9  and  C_10
REMARK    5  A    between atoms: C_19  and  C_20
REMARK                            x       y       z     vdW  Elec       q    Type
REMARK                         _______ _______ _______ _____ _____    ______ ____
ROOT
ATOM      1  N   UNL     1       2.588   7.226  18.674  0.00  0.00    +0.000 NA
ATOM      2  C   UNL     1       1.654   7.168  19.829  0.00  0.00    +0.000 C 
ATOM      3  C   UNL     1       1.501   8.564  20.478  0.00  0.00    +0.000 C 
ATOM      4  N   UNL     1       1.034   9.494  19.441  0.00  0.00    +0.000 N 
ATOM      5  C   UNL     1       1.930   9.572  18.284  0.00  0.00    +0.000 C 
ATOM      6  C   UNL     1       2.051   8.155  17.663  0.00  0.00    +0.000 C 
ENDROOT
BRANCH   4   7
ATOM      7  C   UNL     1       0.076  10.423  19.768  0.00  0.00    +0.000 A 
ATOM      8  N   UNL     1       0.148  10.980  21.003  0.00  0.00    +0.000 NA
ATOM      9  C   UNL     1      -0.839  11.794  21.415  0.00  0.00    +0.000 A 
ATOM     10  C   UNL     1      -0.806  12.366  22.680  0.00  0.00    +0.000 A 
ATOM     11  C   UNL     1      -1.834  13.185  23.140  0.00  0.00    +0.000 A 
ATOM     12  C   UNL     1      -2.927  13.438  22.323  0.00  0.00    +0.000 A 
ATOM     13  C   UNL     1      -2.971  12.881  21.047  0.00  0.00    +0.000 A 
ATOM     14  C   UNL     1      -1.947  12.072  20.584  0.00  0.00    +0.000 A 
ATOM     15  N   UNL     1      -2.037  11.552  19.355  0.00  0.00    +0.000 NA
ATOM     16  C   UNL     1      -1.037  10.715  18.956  0.00  0.00    +0.000 A 
ATOM     17  C   UNL     1      -1.288  10.073  17.626  0.00  0.00    +0.000 C 
ENDBRANCH   4   7
BRANCH   1  18
ATOM     18  C   UNL     1       2.900   5.900  18.143  0.00  0.00    +0.000 C 
BRANCH  18  22
ATOM     19  C   UNL     1       7.942   5.790  18.894  0.00  0.00    +0.000 C 
ATOM     20  C   UNL     1       6.493   5.512  18.803  0.00  0.00    +0.000 A 
ATOM     21  C   UNL     1       5.503   6.260  18.135  0.00  0.00    +0.000 A 
ATOM     22  C   UNL     1       4.332   5.596  18.412  0.00  0.00    +0.000 A 
ATOM     23  O   UNL     1       4.604   4.503  19.173  0.00  0.00    +0.000 OA
ATOM     24  N   UNL     1       5.966   4.445  19.420  0.00  0.00    +0.000 NA
ENDBRANCH  18  22
ENDBRANCH   1  18
TORSDOF 3
ENDMDL
