MODEL 1
REMARK VINA RESULT:      -6.9      0.000      0.000
REMARK  Name = 
REMARK  11 active torsions:
REMARK  status: ('A' for Active; 'I' for Inactive)
REMARK    1  A    between atoms: C_1  and  O_2
REMARK    2  A    between atoms: O_2  and  C_3
REMARK    3  A    between atoms: C_6  and  O_7
REMARK    4  A    between atoms: O_7  and  C_8
REMARK    5  A    between atoms: C_9  and  C_10
REMARK    6  A    between atoms: C_11  and  C_12
REMARK    7  A    between atoms: C_14  and  O_15
REMARK    8  A    between atoms: O_15  and  C_16
REMARK    9  A    between atoms: C_17  and  O_18
REMARK   10  A    between atoms: C_19  and  O_20
REMARK   11  A    between atoms: O_20  and  C_21
REMARK                            x       y       z     vdW  Elec       q    Type
REMARK                         _______ _______ _______ _____ _____    ______ ____
ROOT
ATOM      1  C   UNL     1       2.170   8.333  18.951  0.00  0.00    +0.000 C 
ATOM      2  C   UNL     1       2.315   7.277  18.134  0.00  0.00    +0.000 C 
ENDROOT
BRANCH   1   7
ATOM      3  C   UNL     1      -0.865  10.364  18.053  0.00  0.00    +0.000 A 
ATOM      4  C   UNL     1      -1.266  10.894  19.273  0.00  0.00    +0.000 A 
ATOM      5  C   UNL     1      -0.568  10.586  20.440  0.00  0.00    +0.000 A 
ATOM      6  C   UNL     1       0.564   9.757  20.409  0.00  0.00    +0.000 A 
ATOM      7  C   UNL     1       0.979   9.194  19.183  0.00  0.00    +0.000 A 
ATOM      8  C   UNL     1       0.241   9.512  18.018  0.00  0.00    +0.000 A 
BRANCH   3  10
ATOM      9  C   UNL     1      -2.577   9.835  16.490  0.00  0.00    +0.000 C 
ATOM     10  O   UNL     1      -1.618  10.761  16.985  0.00  0.00    +0.000 OA
ENDBRANCH   3  10
BRANCH   6  11
ATOM     11  O   UNL     1       1.272   9.452  21.544  0.00  0.00    +0.000 OA
ATOM     12  C   UNL     1       0.527   9.362  22.756  0.00  0.00    +0.000 C 
ENDBRANCH   6  11
ENDBRANCH   1   7
BRANCH   2  13
ATOM     13  C   UNL     1       3.555   6.489  18.158  0.00  0.00    +0.000 A 
ATOM     14  C   UNL     1       4.669   6.955  17.451  0.00  0.00    +0.000 A 
ATOM     15  C   UNL     1       5.852   6.212  17.410  0.00  0.00    +0.000 A 
ATOM     16  C   UNL     1       5.918   5.006  18.115  0.00  0.00    +0.000 A 
ATOM     17  C   UNL     1       4.807   4.518  18.825  0.00  0.00    +0.000 A 
ATOM     18  C   UNL     1       3.625   5.268  18.843  0.00  0.00    +0.000 A 
BRANCH  15  19
ATOM     19  O   UNL     1       6.874   6.801  16.715  0.00  0.00    +0.000 OA
ATOM     20  C   UNL     1       7.648   7.767  17.421  0.00  0.00    +0.000 C 
ENDBRANCH  15  19
BRANCH  16  21
ATOM     21  O   UNL     1       7.089   4.295  18.189  0.00  0.00    +0.000 OA
ATOM     22  H   UNL     1       7.722   4.778  17.631  0.00  0.00    +0.000 HD
ENDBRANCH  16  21
BRANCH  17  23
ATOM     23  O   UNL     1       4.992   3.326  19.477  0.00  0.00    +0.000 OA
ATOM     24  C   UNL     1       3.956   2.359  19.395  0.00  0.00    +0.000 C 
ENDBRANCH  17  23
ENDBRANCH   2  13
TORSDOF 7
ENDMDL
MODEL 2
REMARK VINA RESULT:      -6.8      1.690      7.915
REMARK  Name = 
REMARK  11 active torsions:
REMARK  status: ('A' for Active; 'I' for Inactive)
REMARK    1  A    between atoms: C_1  and  O_2
REMARK    2  A    between atoms: O_2  and  C_3
REMARK    3  A    between atoms: C_6  and  O_7
REMARK    4  A    between atoms: O_7  and  C_8
REMARK    5  A    between atoms: C_9  and  C_10
REMARK    6  A    between atoms: C_11  and  C_12
REMARK    7  A    between atoms: C_14  and  O_15
REMARK    8  A    between atoms: O_15  and  C_16
REMARK    9  A    between atoms: C_17  and  O_18
REMARK   10  A    between atoms: C_19  and  O_20
REMARK   11  A    between atoms: O_20  and  C_21
REMARK                            x       y       z     vdW  Elec       q    Type
REMARK                         _______ _______ _______ _____ _____    ______ ____
ROOT
ATOM      1  C   UNL     1       2.165   7.196  18.425  0.00  0.00    +0.000 C 
ATOM      2  C   UNL     1       1.942   8.438  17.965  0.00  0.00    +0.000 C 
ENDROOT
BRANCH   1   7
ATOM      3  C   UNL     1       5.110   5.726  16.605  0.00  0.00    +0.000 A 
ATOM      4  C   UNL     1       4.858   4.360  16.642  0.00  0.00    +0.000 A 
ATOM      5  C   UNL     1       3.722   3.869  17.285  0.00  0.00    +0.000 A 
ATOM      6  C   UNL     1       2.799   4.738  17.888  0.00  0.00    +0.000 A 
ATOM      7  C   UNL     1       3.044   6.128  17.877  0.00  0.00    +0.000 A 
ATOM      8  C   UNL     1       4.214   6.595  17.230  0.00  0.00    +0.000 A 
BRANCH   3  10
ATOM      9  C   UNL     1       7.021   5.023  15.377  0.00  0.00    +0.000 C 
ATOM     10  O   UNL     1       6.242   6.078  15.926  0.00  0.00    +0.000 OA
ENDBRANCH   3  10
BRANCH   6  11
ATOM     11  O   UNL     1       1.670   4.275  18.515  0.00  0.00    +0.000 OA
ATOM     12  C   UNL     1       1.440   2.871  18.462  0.00  0.00    +0.000 C 
ENDBRANCH   6  11
ENDBRANCH   1   7
BRANCH   2  13
ATOM     13  C   UNL     1       1.122   9.377  18.743  0.00  0.00    +0.000 A 
ATOM     14  C   UNL     1       1.290   9.436  20.131  0.00  0.00    +0.000 A 
ATOM     15  C   UNL     1       0.497  10.281  20.912  0.00  0.00    +0.000 A 
ATOM     16  C   UNL     1      -0.450  11.094  20.282  0.00  0.00    +0.000 A 
ATOM     17  C   UNL     1      -0.638  11.043  18.889  0.00  0.00    +0.000 A 
ATOM     18  C   UNL     1       0.154  10.180  18.124  0.00  0.00    +0.000 A 
BRANCH  15  19
ATOM     19  O   UNL     1       0.792  10.268  22.249  0.00  0.00    +0.000 OA
ATOM     20  C   UNL     1      -0.045   9.466  23.077  0.00  0.00    +0.000 C 
ENDBRANCH  15  19
BRANCH  16  21
ATOM     21  O   UNL     1      -1.178  12.013  20.994  0.00  0.00    +0.000 OA
ATOM     22  H   UNL     1      -0.659  12.834  20.965  0.00  0.00    +0.000 HD
ENDBRANCH  16  21
BRANCH  17  23
ATOM     23  O   UNL     1      -1.595  11.888  18.385  0.00  0.00    +0.000 OA
ATOM     24  C   UNL     1      -2.442  11.390  17.360  0.00  0.00    +0.000 C 
ENDBRANCH  17  23
ENDBRANCH   2  13
TORSDOF 7
ENDMDL
MODEL 3
REMARK VINA RESULT:      -6.8      1.626      7.740
REMARK  Name = 
REMARK  11 active torsions:
REMARK  status: ('A' for Active; 'I' for Inactive)
REMARK    1  A    between atoms: C_1  and  O_2
REMARK    2  A    between atoms: O_2  and  C_3
REMARK    3  A    between atoms: C_6  and  O_7
REMARK    4  A    between atoms: O_7  and  C_8
REMARK    5  A    between atoms: C_9  and  C_10
REMARK    6  A    between atoms: C_11  and  C_12
REMARK    7  A    between atoms: C_14  and  O_15
REMARK    8  A    between atoms: O_15  and  C_16
REMARK    9  A    between atoms: C_17  and  O_18
REMARK   10  A    between atoms: C_19  and  O_20
REMARK   11  A    between atoms: O_20  and  C_21
REMARK                            x       y       z     vdW  Elec       q    Type
REMARK                         _______ _______ _______ _____ _____    ______ ____
ROOT
ATOM      1  C   UNL     1       2.235   6.978  18.269  0.00  0.00    +0.000 C 
ATOM      2  C   UNL     1       2.286   8.310  18.105  0.00  0.00    +0.000 C 
ENDROOT
BRANCH   1   7
ATOM      3  C   UNL     1       5.251   5.561  16.525  0.00  0.00    +0.000 A 
ATOM      4  C   UNL     1       5.046   4.189  16.597  0.00  0.00    +0.000 A 
ATOM      5  C   UNL     1       3.920   3.677  17.241  0.00  0.00    +0.000 A 
ATOM      6  C   UNL     1       2.961   4.529  17.809  0.00  0.00    +0.000 A 
ATOM      7  C   UNL     1       3.158   5.926  17.762  0.00  0.00    +0.000 A 
ATOM      8  C   UNL     1       4.318   6.416  17.115  0.00  0.00    +0.000 A 
BRANCH   3  10
ATOM      9  C   UNL     1       6.993   4.950  15.025  0.00  0.00    +0.000 C 
ATOM     10  O   UNL     1       6.378   5.933  15.849  0.00  0.00    +0.000 OA
ENDBRANCH   3  10
BRANCH   6  11
ATOM     11  O   UNL     1       1.840   4.045  18.436  0.00  0.00    +0.000 OA
ATOM     12  C   UNL     1       1.659   2.633  18.420  0.00  0.00    +0.000 C 
ENDBRANCH   6  11
ENDBRANCH   1   7
BRANCH   2  13
ATOM     13  C   UNL     1       1.330   9.177  18.808  0.00  0.00    +0.000 A 
ATOM     14  C   UNL     1       0.338   9.832  18.069  0.00  0.00    +0.000 A 
ATOM     15  C   UNL     1      -0.560  10.702  18.692  0.00  0.00    +0.000 A 
ATOM     16  C   UNL     1      -0.475  10.886  20.076  0.00  0.00    +0.000 A 
ATOM     17  C   UNL     1       0.520  10.243  20.834  0.00  0.00    +0.000 A 
ATOM     18  C   UNL     1       1.422   9.386  20.191  0.00  0.00    +0.000 A 
BRANCH  15  19
ATOM     19  O   UNL     1      -1.502  11.244  17.860  0.00  0.00    +0.000 OA
ATOM     20  C   UNL     1      -2.178  10.341  16.990  0.00  0.00    +0.000 C 
ENDBRANCH  15  19
BRANCH  16  21
ATOM     21  O   UNL     1      -1.398  11.648  20.745  0.00  0.00    +0.000 OA
ATOM     22  H   UNL     1      -0.887  12.175  21.382  0.00  0.00    +0.000 HD
ENDBRANCH  16  21
BRANCH  17  23
ATOM     23  O   UNL     1       0.504  10.500  22.181  0.00  0.00    +0.000 OA
ATOM     24  C   UNL     1       0.022   9.480  23.043  0.00  0.00    +0.000 C 
ENDBRANCH  17  23
ENDBRANCH   2  13
TORSDOF 7
ENDMDL
MODEL 4
REMARK VINA RESULT:      -6.8      2.225      7.445
REMARK  Name = 
REMARK  11 active torsions:
REMARK  status: ('A' for Active; 'I' for Inactive)
REMARK    1  A    between atoms: C_1  and  O_2
REMARK    2  A    between atoms: O_2  and  C_3
REMARK    3  A    between atoms: C_6  and  O_7
REMARK    4  A    between atoms: O_7  and  C_8
REMARK    5  A    between atoms: C_9  and  C_10
REMARK    6  A    between atoms: C_11  and  C_12
REMARK    7  A    between atoms: C_14  and  O_15
REMARK    8  A    between atoms: O_15  and  C_16
REMARK    9  A    between atoms: C_17  and  O_18
REMARK   10  A    between atoms: C_19  and  O_20
REMARK   11  A    between atoms: O_20  and  C_21
REMARK                            x       y       z     vdW  Elec       q    Type
REMARK                         _______ _______ _______ _____ _____    ______ ____
ROOT
ATOM      1  C   UNL     1       2.836   7.235  18.558  0.00  0.00    +0.000 C 
ATOM      2  C   UNL     1       1.880   8.095  18.171  0.00  0.00    +0.000 C 
ENDROOT
BRANCH   1   7
ATOM      3  C   UNL     1       5.227   5.544  16.199  0.00  0.00    +0.000 A 
ATOM      4  C   UNL     1       4.783   4.228  16.184  0.00  0.00    +0.000 A 
ATOM      5  C   UNL     1       3.694   3.841  16.965  0.00  0.00    +0.000 A 
ATOM      6  C   UNL     1       3.011   4.771  17.764  0.00  0.00    +0.000 A 
ATOM      7  C   UNL     1       3.456   6.110  17.807  0.00  0.00    +0.000 A 
ATOM      8  C   UNL     1       4.573   6.469  17.015  0.00  0.00    +0.000 A 
BRANCH   3  10
ATOM      9  C   UNL     1       7.009   4.674  14.886  0.00  0.00    +0.000 C 
ATOM     10  O   UNL     1       6.286   5.796  15.374  0.00  0.00    +0.000 OA
ENDBRANCH   3  10
BRANCH   6  11
ATOM     11  O   UNL     1       1.930   4.413  18.531  0.00  0.00    +0.000 OA
ATOM     12  C   UNL     1       1.486   3.065  18.418  0.00  0.00    +0.000 C 
ENDBRANCH   6  11
ENDBRANCH   1   7
BRANCH   2  13
ATOM     13  C   UNL     1       1.504   9.220  19.039  0.00  0.00    +0.000 A 
ATOM     14  C   UNL     1       1.415  10.503  18.488  0.00  0.00    +0.000 A 
ATOM     15  C   UNL     1       1.107  11.606  19.289  0.00  0.00    +0.000 A 
ATOM     16  C   UNL     1       0.855  11.405  20.650  0.00  0.00    +0.000 A 
ATOM     17  C   UNL     1       0.946  10.124  21.223  0.00  0.00    +0.000 A 
ATOM     18  C   UNL     1       1.272   9.032  20.409  0.00  0.00    +0.000 A 
BRANCH  15  19
ATOM     19  O   UNL     1       1.015  12.795  18.616  0.00  0.00    +0.000 OA
ATOM     20  C   UNL     1       2.242  13.464  18.338  0.00  0.00    +0.000 C 
ENDBRANCH  15  19
BRANCH  16  21
ATOM     21  O   UNL     1       0.448  12.440  21.454  0.00  0.00    +0.000 OA
ATOM     22  H   UNL     1       0.862  13.236  21.081  0.00  0.00    +0.000 HD
ENDBRANCH  16  21
BRANCH  17  23
ATOM     23  O   UNL     1       0.677  10.051  22.566  0.00  0.00    +0.000 OA
ATOM     24  C   UNL     1      -0.529   9.416  22.965  0.00  0.00    +0.000 C 
ENDBRANCH  17  23
ENDBRANCH   2  13
TORSDOF 7
ENDMDL
MODEL 5
REMARK VINA RESULT:      -6.8      2.225      7.782
REMARK  Name = 
REMARK  11 active torsions:
REMARK  status: ('A' for Active; 'I' for Inactive)
REMARK    1  A    between atoms: C_1  and  O_2
REMARK    2  A    between atoms: O_2  and  C_3
REMARK    3  A    between atoms: C_6  and  O_7
REMARK    4  A    between atoms: O_7  and  C_8
REMARK    5  A    between atoms: C_9  and  C_10
REMARK    6  A    between atoms: C_11  and  C_12
REMARK    7  A    between atoms: C_14  and  O_15
REMARK    8  A    between atoms: O_15  and  C_16
REMARK    9  A    between atoms: C_17  and  O_18
REMARK   10  A    between atoms: C_19  and  O_20
REMARK   11  A    between atoms: O_20  and  C_21
REMARK                            x       y       z     vdW  Elec       q    Type
REMARK                         _______ _______ _______ _____ _____    ______ ____
ROOT
ATOM      1  C   UNL     1       2.470   7.308  18.718  0.00  0.00    +0.000 C 
ATOM      2  C   UNL     1       1.803   8.360  18.216  0.00  0.00    +0.000 C 
ENDROOT
BRANCH   1   7
ATOM      3  C   UNL     1       2.551   3.721  17.592  0.00  0.00    +0.000 A 
ATOM      4  C   UNL     1       3.758   3.628  16.909  0.00  0.00    +0.000 A 
ATOM      5  C   UNL     1       4.580   4.746  16.774  0.00  0.00    +0.000 A 
ATOM      6  C   UNL     1       4.222   5.980  17.339  0.00  0.00    +0.000 A 
ATOM      7  C   UNL     1       2.993   6.101  18.023  0.00  0.00    +0.000 A 
ATOM      8  C   UNL     1       2.173   4.952  18.130  0.00  0.00    +0.000 A 
BRANCH   3  10
ATOM      9  C   UNL     1       0.940   2.414  18.755  0.00  0.00    +0.000 C 
ATOM     10  O   UNL     1       1.852   2.550  17.673  0.00  0.00    +0.000 OA
ENDBRANCH   3  10
BRANCH   6  11
ATOM     11  O   UNL     1       5.022   7.089  17.227  0.00  0.00    +0.000 OA
ATOM     12  C   UNL     1       6.424   6.881  17.371  0.00  0.00    +0.000 C 
ENDBRANCH   6  11
ENDBRANCH   1   7
BRANCH   2  13
ATOM     13  C   UNL     1       1.489   9.512  19.073  0.00  0.00    +0.000 A 
ATOM     14  C   UNL     1       1.236   9.298  20.432  0.00  0.00    +0.000 A 
ATOM     15  C   UNL     1       0.887  10.360  21.271  0.00  0.00    +0.000 A 
ATOM     16  C   UNL     1       0.827  11.652  20.738  0.00  0.00    +0.000 A 
ATOM     17  C   UNL     1       1.072  11.885  19.372  0.00  0.00    +0.000 A 
ATOM     18  C   UNL     1       1.404  10.807  18.544  0.00  0.00    +0.000 A 
BRANCH  15  19
ATOM     19  O   UNL     1       0.704  10.017  22.583  0.00  0.00    +0.000 OA
ATOM     20  C   UNL     1      -0.642   9.812  23.004  0.00  0.00    +0.000 C 
ENDBRANCH  15  19
BRANCH  16  21
ATOM     21  O   UNL     1       0.592  12.738  21.542  0.00  0.00    +0.000 OA
ATOM     22  H   UNL     1       0.478  13.489  20.937  0.00  0.00    +0.000 HD
ENDBRANCH  16  21
BRANCH  17  23
ATOM     23  O   UNL     1       0.984  13.193  18.966  0.00  0.00    +0.000 OA
ATOM     24  C   UNL     1       2.171  13.823  18.508  0.00  0.00    +0.000 C 
ENDBRANCH  17  23
ENDBRANCH   2  13
TORSDOF 7
ENDMDL
MODEL 6
REMARK VINA RESULT:      -6.8      1.763      3.288
REMARK  Name = 
REMARK  11 active torsions:
REMARK  status: ('A' for Active; 'I' for Inactive)
REMARK    1  A    between atoms: C_1  and  O_2
REMARK    2  A    between atoms: O_2  and  C_3
REMARK    3  A    between atoms: C_6  and  O_7
REMARK    4  A    between atoms: O_7  and  C_8
REMARK    5  A    between atoms: C_9  and  C_10
REMARK    6  A    between atoms: C_11  and  C_12
REMARK    7  A    between atoms: C_14  and  O_15
REMARK    8  A    between atoms: O_15  and  C_16
REMARK    9  A    between atoms: C_17  and  O_18
REMARK   10  A    between atoms: C_19  and  O_20
REMARK   11  A    between atoms: O_20  and  C_21
REMARK                            x       y       z     vdW  Elec       q    Type
REMARK                         _______ _______ _______ _____ _____    ______ ____
ROOT
ATOM      1  C   UNL     1       1.425   9.112  18.614  0.00  0.00    +0.000 C 
ATOM      2  C   UNL     1       1.998   8.331  17.684  0.00  0.00    +0.000 C 
ENDROOT
BRANCH   1   7
ATOM      3  C   UNL     1      -1.873  10.581  17.560  0.00  0.00    +0.000 A 
ATOM      4  C   UNL     1      -1.755  11.919  17.917  0.00  0.00    +0.000 A 
ATOM      5  C   UNL     1      -0.596  12.384  18.536  0.00  0.00    +0.000 A 
ATOM      6  C   UNL     1       0.483  11.523  18.794  0.00  0.00    +0.000 A 
ATOM      7  C   UNL     1       0.377  10.157  18.456  0.00  0.00    +0.000 A 
ATOM      8  C   UNL     1      -0.818   9.711  17.842  0.00  0.00    +0.000 A 
BRANCH   3  10
ATOM      9  C   UNL     1      -3.988  11.308  16.751  0.00  0.00    +0.000 C 
ATOM     10  O   UNL     1      -3.048  10.259  16.941  0.00  0.00    +0.000 OA
ENDBRANCH   3  10
BRANCH   6  11
ATOM     11  O   UNL     1       1.636  11.964  19.392  0.00  0.00    +0.000 OA
ATOM     12  C   UNL     1       2.441  12.867  18.639  0.00  0.00    +0.000 C 
ENDBRANCH   6  11
ENDBRANCH   1   7
BRANCH   2  13
ATOM     13  C   UNL     1       2.931   7.269  18.086  0.00  0.00    +0.000 A 
ATOM     14  C   UNL     1       2.584   6.428  19.151  0.00  0.00    +0.000 A 
ATOM     15  C   UNL     1       3.463   5.437  19.595  0.00  0.00    +0.000 A 
ATOM     16  C   UNL     1       4.687   5.273  18.937  0.00  0.00    +0.000 A 
ATOM     17  C   UNL     1       5.055   6.113  17.870  0.00  0.00    +0.000 A 
ATOM     18  C   UNL     1       4.169   7.111  17.449  0.00  0.00    +0.000 A 
BRANCH  15  19
ATOM     19  O   UNL     1       2.984   4.663  20.617  0.00  0.00    +0.000 OA
ATOM     20  C   UNL     1       1.573   4.471  20.661  0.00  0.00    +0.000 C 
ENDBRANCH  15  19
BRANCH  16  21
ATOM     21  O   UNL     1       5.536   4.248  19.270  0.00  0.00    +0.000 OA
ATOM     22  H   UNL     1       6.160   4.627  19.911  0.00  0.00    +0.000 HD
ENDBRANCH  16  21
BRANCH  17  23
ATOM     23  O   UNL     1       6.278   5.855  17.304  0.00  0.00    +0.000 OA
ATOM     24  C   UNL     1       7.300   6.826  17.470  0.00  0.00    +0.000 C 
ENDBRANCH  17  23
ENDBRANCH   2  13
TORSDOF 7
ENDMDL
MODEL 7
REMARK VINA RESULT:      -6.8      2.223      7.376
REMARK  Name = 
REMARK  11 active torsions:
REMARK  status: ('A' for Active; 'I' for Inactive)
REMARK    1  A    between atoms: C_1  and  O_2
REMARK    2  A    between atoms: O_2  and  C_3
REMARK    3  A    between atoms: C_6  and  O_7
REMARK    4  A    between atoms: O_7  and  C_8
REMARK    5  A    between atoms: C_9  and  C_10
REMARK    6  A    between atoms: C_11  and  C_12
REMARK    7  A    between atoms: C_14  and  O_15
REMARK    8  A    between atoms: O_15  and  C_16
REMARK    9  A    between atoms: C_17  and  O_18
REMARK   10  A    between atoms: C_19  and  O_20
REMARK   11  A    between atoms: O_20  and  C_21
REMARK                            x       y       z     vdW  Elec       q    Type
REMARK                         _______ _______ _______ _____ _____    ______ ____
ROOT
ATOM      1  C   UNL     1       2.480   7.336  18.770  0.00  0.00    +0.000 C 
ATOM      2  C   UNL     1       1.655   8.301  18.332  0.00  0.00    +0.000 C 
ENDROOT
BRANCH   1   7
ATOM      3  C   UNL     1       2.540   3.777  17.558  0.00  0.00    +0.000 A 
ATOM      4  C   UNL     1       3.757   3.686  16.893  0.00  0.00    +0.000 A 
ATOM      5  C   UNL     1       4.594   4.798  16.800  0.00  0.00    +0.000 A 
ATOM      6  C   UNL     1       4.241   6.021  17.390  0.00  0.00    +0.000 A 
ATOM      7  C   UNL     1       3.001   6.140  18.055  0.00  0.00    +0.000 A 
ATOM      8  C   UNL     1       2.166   4.999  18.120  0.00  0.00    +0.000 A 
BRANCH   3  10
ATOM      9  C   UNL     1       1.443   2.132  18.879  0.00  0.00    +0.000 C 
ATOM     10  O   UNL     1       1.826   2.613  17.597  0.00  0.00    +0.000 OA
ENDBRANCH   3  10
BRANCH   6  11
ATOM     11  O   UNL     1       5.056   7.123  17.319  0.00  0.00    +0.000 OA
ATOM     12  C   UNL     1       6.457   6.877  17.246  0.00  0.00    +0.000 C 
ENDBRANCH   6  11
ENDBRANCH   1   7
BRANCH   2  13
ATOM     13  C   UNL     1       1.369   9.468  19.178  0.00  0.00    +0.000 A 
ATOM     14  C   UNL     1       1.409  10.746  18.609  0.00  0.00    +0.000 A 
ATOM     15  C   UNL     1       1.191  11.884  19.389  0.00  0.00    +0.000 A 
ATOM     16  C   UNL     1       0.898  11.727  20.747  0.00  0.00    +0.000 A 
ATOM     17  C   UNL     1       0.860  10.452  21.339  0.00  0.00    +0.000 A 
ATOM     18  C   UNL     1       1.097   9.323  20.546  0.00  0.00    +0.000 A 
BRANCH  15  19
ATOM     19  O   UNL     1       1.221  13.066  18.698  0.00  0.00    +0.000 OA
ATOM     20  C   UNL     1       2.485  13.462  18.173  0.00  0.00    +0.000 C 
ENDBRANCH  15  19
BRANCH  16  21
ATOM     21  O   UNL     1       0.574  12.807  21.529  0.00  0.00    +0.000 OA
ATOM     22  H   UNL     1       0.323  12.437  22.392  0.00  0.00    +0.000 HD
ENDBRANCH  16  21
BRANCH  17  23
ATOM     23  O   UNL     1       0.561  10.424  22.678  0.00  0.00    +0.000 OA
ATOM     24  C   UNL     1      -0.716   9.938  23.060  0.00  0.00    +0.000 C 
ENDBRANCH  17  23
ENDBRANCH   2  13
TORSDOF 7
ENDMDL
MODEL 8
REMARK VINA RESULT:      -6.7      1.009      1.136
REMARK  Name = 
REMARK  11 active torsions:
REMARK  status: ('A' for Active; 'I' for Inactive)
REMARK    1  A    between atoms: C_1  and  O_2
REMARK    2  A    between atoms: O_2  and  C_3
REMARK    3  A    between atoms: C_6  and  O_7
REMARK    4  A    between atoms: O_7  and  C_8
REMARK    5  A    between atoms: C_9  and  C_10
REMARK    6  A    between atoms: C_11  and  C_12
REMARK    7  A    between atoms: C_14  and  O_15
REMARK    8  A    between atoms: O_15  and  C_16
REMARK    9  A    between atoms: C_17  and  O_18
REMARK   10  A    between atoms: C_19  and  O_20
REMARK   11  A    between atoms: O_20  and  C_21
REMARK                            x       y       z     vdW  Elec       q    Type
REMARK                         _______ _______ _______ _____ _____    ______ ____
ROOT
ATOM      1  C   UNL     1       1.524   8.691  19.531  0.00  0.00    +0.000 C 
ATOM      2  C   UNL     1       2.046   8.177  18.406  0.00  0.00    +0.000 C 
ENDROOT
BRANCH   1   7
ATOM      3  C   UNL     1      -1.136  11.137  18.488  0.00  0.00    +0.000 A 
ATOM      4  C   UNL     1      -1.400  11.840  19.657  0.00  0.00    +0.000 A 
ATOM      5  C   UNL     1      -0.729  11.522  20.838  0.00  0.00    +0.000 A 
ATOM      6  C   UNL     1       0.239  10.506  20.869  0.00  0.00    +0.000 A 
ATOM      7  C   UNL     1       0.510   9.768  19.697  0.00  0.00    +0.000 A 
ATOM      8  C   UNL     1      -0.198  10.103  18.518  0.00  0.00    +0.000 A 
BRANCH   3  10
ATOM      9  C   UNL     1      -2.434  10.558  16.581  0.00  0.00    +0.000 C 
ATOM     10  O   UNL     1      -1.843  11.560  17.399  0.00  0.00    +0.000 OA
ENDBRANCH   3  10
BRANCH   6  11
ATOM     11  O   UNL     1       0.919  10.186  22.018  0.00  0.00    +0.000 OA
ATOM     12  C   UNL     1       0.185   9.490  23.021  0.00  0.00    +0.000 C 
ENDBRANCH   6  11
ENDBRANCH   1   7
BRANCH   2  13
ATOM     13  C   UNL     1       2.951   7.020  18.475  0.00  0.00    +0.000 A 
ATOM     14  C   UNL     1       4.072   6.984  17.637  0.00  0.00    +0.000 A 
ATOM     15  C   UNL     1       4.930   5.882  17.637  0.00  0.00    +0.000 A 
ATOM     16  C   UNL     1       4.671   4.823  18.513  0.00  0.00    +0.000 A 
ATOM     17  C   UNL     1       3.545   4.837  19.357  0.00  0.00    +0.000 A 
ATOM     18  C   UNL     1       2.688   5.943  19.333  0.00  0.00    +0.000 A 
BRANCH  15  19
ATOM     19  O   UNL     1       6.006   5.994  16.799  0.00  0.00    +0.000 OA
ATOM     20  C   UNL     1       7.132   6.708  17.302  0.00  0.00    +0.000 C 
ENDBRANCH  15  19
BRANCH  16  21
ATOM     21  O   UNL     1       5.541   3.768  18.623  0.00  0.00    +0.000 OA
ATOM     22  H   UNL     1       6.428   4.151  18.519  0.00  0.00    +0.000 HD
ENDBRANCH  16  21
BRANCH  17  23
ATOM     23  O   UNL     1       3.396   3.744  20.172  0.00  0.00    +0.000 OA
ATOM     24  C   UNL     1       2.258   2.920  19.971  0.00  0.00    +0.000 C 
ENDBRANCH  17  23
ENDBRANCH   2  13
TORSDOF 7
ENDMDL
MODEL 9
REMARK VINA RESULT:      -6.7      1.012      2.795
REMARK  Name = 
REMARK  11 active torsions:
REMARK  status: ('A' for Active; 'I' for Inactive)
REMARK    1  A    between atoms: C_1  and  O_2
REMARK    2  A    between atoms: O_2  and  C_3
REMARK    3  A    between atoms: C_6  and  O_7
REMARK    4  A    between atoms: O_7  and  C_8
REMARK    5  A    between atoms: C_9  and  C_10
REMARK    6  A    between atoms: C_11  and  C_12
REMARK    7  A    between atoms: C_14  and  O_15
REMARK    8  A    between atoms: O_15  and  C_16
REMARK    9  A    between atoms: C_17  and  O_18
REMARK   10  A    between atoms: C_19  and  O_20
REMARK   11  A    between atoms: O_20  and  C_21
REMARK                            x       y       z     vdW  Elec       q    Type
REMARK                         _______ _______ _______ _____ _____    ______ ____
ROOT
ATOM      1  C   UNL     1       1.671   8.704  19.249  0.00  0.00    +0.000 C 
ATOM      2  C   UNL     1       2.054   8.056  18.137  0.00  0.00    +0.000 C 
ENDROOT
BRANCH   1   7
ATOM      3  C   UNL     1      -1.164  10.966  18.254  0.00  0.00    +0.000 A 
ATOM      4  C   UNL     1      -1.414  11.693  19.411  0.00  0.00    +0.000 A 
ATOM      5  C   UNL     1      -0.675  11.452  20.569  0.00  0.00    +0.000 A 
ATOM      6  C   UNL     1       0.348  10.491  20.588  0.00  0.00    +0.000 A 
ATOM      7  C   UNL     1       0.607   9.729  19.428  0.00  0.00    +0.000 A 
ATOM      8  C   UNL     1      -0.170   9.985  18.273  0.00  0.00    +0.000 A 
BRANCH   3  10
ATOM      9  C   UNL     1      -3.348  11.327  17.385  0.00  0.00    +0.000 C 
ATOM     10  O   UNL     1      -1.941  11.314  17.185  0.00  0.00    +0.000 OA
ENDBRANCH   3  10
BRANCH   6  11
ATOM     11  O   UNL     1       1.094  10.247  21.713  0.00  0.00    +0.000 OA
ATOM     12  C   UNL     1       0.486   9.446  22.722  0.00  0.00    +0.000 C 
ENDBRANCH   6  11
ENDBRANCH   1   7
BRANCH   2  13
ATOM     13  C   UNL     1       3.053   6.981  18.217  0.00  0.00    +0.000 A 
ATOM     14  C   UNL     1       2.806   5.885  19.051  0.00  0.00    +0.000 A 
ATOM     15  C   UNL     1       3.750   4.865  19.191  0.00  0.00    +0.000 A 
ATOM     16  C   UNL     1       4.939   4.938  18.458  0.00  0.00    +0.000 A 
ATOM     17  C   UNL     1       5.209   6.036  17.620  0.00  0.00    +0.000 A 
ATOM     18  C   UNL     1       4.257   7.056  17.504  0.00  0.00    +0.000 A 
BRANCH  15  19
ATOM     19  O   UNL     1       3.365   3.836  20.007  0.00  0.00    +0.000 OA
ATOM     20  C   UNL     1       2.069   3.290  19.774  0.00  0.00    +0.000 C 
ENDBRANCH  15  19
BRANCH  16  21
ATOM     21  O   UNL     1       5.849   3.912  18.483  0.00  0.00    +0.000 OA
ATOM     22  H   UNL     1       6.484   4.146  19.181  0.00  0.00    +0.000 HD
ENDBRANCH  16  21
BRANCH  17  23
ATOM     23  O   UNL     1       6.406   5.996  16.952  0.00  0.00    +0.000 OA
ATOM     24  C   UNL     1       7.417   6.908  17.353  0.00  0.00    +0.000 C 
ENDBRANCH  17  23
ENDBRANCH   2  13
TORSDOF 7
ENDMDL
