MODEL 1
REMARK VINA RESULT:      -6.8      0.000      0.000
REMARK  Name = 
REMARK  6 active torsions:
REMARK  status: ('A' for Active; 'I' for Inactive)
REMARK    1  A    between atoms: C_1  and  C_2
REMARK    2  A    between atoms: C_2  and  O_3
REMARK    3  A    between atoms: O_3  and  C_4
REMARK    4  A    between atoms: C_4  and  C_6
REMARK    5  A    between atoms: C_7  and  C_8
REMARK    6  A    between atoms: C_12  and  C_13
REMARK                            x       y       z     vdW  Elec       q    Type
REMARK                         _______ _______ _______ _____ _____    ______ ____
ROOT
ATOM      1  C   UNL     1       3.423   4.071  18.305  0.00  0.00    +0.000 C 
ATOM      2  C   UNL     1       4.308   3.201  18.847  0.00  0.00    +0.000 C 
ATOM      3  C   UNL     1       4.209   1.696  18.920  0.00  0.00    +0.000 C 
ATOM      4  N   UNL     1       5.457   3.688  19.445  0.00  0.00    +0.000 N 
ATOM      5  C   UNL     1       5.947   4.959  19.302  0.00  0.00    +0.000 C 
ATOM      6  O   UNL     1       6.993   5.307  19.847  0.00  0.00    +0.000 OA
ATOM      7  C   UNL     1       5.198   5.852  18.342  0.00  0.00    +0.000 C 
ATOM      8  C   UNL     1       3.665   5.591  18.437  0.00  0.00    +0.000 C 
ATOM      9  C   UNL     1       3.126   6.055  19.831  0.00  0.00    +0.000 C 
ATOM     10  C   UNL     1       2.586   7.462  19.623  0.00  0.00    +0.000 C 
ATOM     11  C   UNL     1       1.935   7.369  18.260  0.00  0.00    +0.000 C 
ATOM     12  C   UNL     1       2.945   6.564  17.441  0.00  0.00    +0.000 C 
ATOM     13  H   UNL     1       6.056   3.055  19.965  0.00  0.00    +0.000 HD
ENDROOT
BRANCH   7  14
ATOM     14  C   UNL     1       5.762   5.664  16.936  0.00  0.00    +0.000 C 
ATOM     15  N   UNL     1       6.187   6.805  16.319  0.00  0.00    +0.000 N 
ATOM     16  O   UNL     1       5.824   4.590  16.345  0.00  0.00    +0.000 OA
ATOM     17  H   UNL     1       6.342   7.667  16.834  0.00  0.00    +0.000 HD
ATOM     18  H   UNL     1       6.636   6.701  15.419  0.00  0.00    +0.000 HD
ENDBRANCH   7  14
BRANCH   1  19
ATOM     19  C   UNL     1       2.220   3.551  17.590  0.00  0.00    +0.000 C 
ATOM     20  O   UNL     1       2.238   3.013  16.496  0.00  0.00    +0.000 OA
BRANCH  19  21
ATOM     21  O   UNL     1       1.114   3.754  18.342  0.00  0.00    +0.000 OA
BRANCH  21  23
ATOM     22  C   UNL     1       0.995   3.068  20.630  0.00  0.00    +0.000 C 
ATOM     23  C   UNL     1       0.725   2.670  19.196  0.00  0.00    +0.000 C 
ENDBRANCH  21  23
ENDBRANCH  19  21
ENDBRANCH   1  19
TORSDOF 4
ENDMDL
MODEL 2
REMARK VINA RESULT:      -6.4      1.570      3.726
REMARK  Name = 
REMARK  6 active torsions:
REMARK  status: ('A' for Active; 'I' for Inactive)
REMARK    1  A    between atoms: C_1  and  C_2
REMARK    2  A    between atoms: C_2  and  O_3
REMARK    3  A    between atoms: O_3  and  C_4
REMARK    4  A    between atoms: C_4  and  C_6
REMARK    5  A    between atoms: C_7  and  C_8
REMARK    6  A    between atoms: C_12  and  C_13
REMARK                            x       y       z     vdW  Elec       q    Type
REMARK                         _______ _______ _______ _____ _____    ______ ____
ROOT
ATOM      1  C   UNL     1       3.588   5.788  18.414  0.00  0.00    +0.000 C 
ATOM      2  C   UNL     1       3.727   6.846  17.579  0.00  0.00    +0.000 C 
ATOM      3  C   UNL     1       2.944   8.137  17.575  0.00  0.00    +0.000 C 
ATOM      4  N   UNL     1       4.670   6.792  16.569  0.00  0.00    +0.000 N 
ATOM      5  C   UNL     1       5.692   5.885  16.486  0.00  0.00    +0.000 C 
ATOM      6  O   UNL     1       6.508   5.921  15.566  0.00  0.00    +0.000 OA
ATOM      7  C   UNL     1       5.826   4.932  17.650  0.00  0.00    +0.000 C 
ATOM      8  C   UNL     1       4.421   4.509  18.173  0.00  0.00    +0.000 C 
ATOM      9  C   UNL     1       3.686   3.640  17.099  0.00  0.00    +0.000 C 
ATOM     10  C   UNL     1       3.951   2.192  17.481  0.00  0.00    +0.000 C 
ATOM     11  C   UNL     1       3.867   2.227  18.992  0.00  0.00    +0.000 C 
ATOM     12  C   UNL     1       4.627   3.503  19.357  0.00  0.00    +0.000 C 
ATOM     13  H   UNL     1       4.689   7.522  15.863  0.00  0.00    +0.000 HD
ENDROOT
BRANCH   7  14
ATOM     14  C   UNL     1       6.709   5.567  18.721  0.00  0.00    +0.000 C 
ATOM     15  N   UNL     1       7.559   6.538  18.277  0.00  0.00    +0.000 N 
ATOM     16  O   UNL     1       6.714   5.244  19.905  0.00  0.00    +0.000 OA
ATOM     17  H   UNL     1       7.448   6.973  17.367  0.00  0.00    +0.000 HD
ATOM     18  H   UNL     1       8.100   7.030  18.976  0.00  0.00    +0.000 HD
ENDBRANCH   7  14
BRANCH   1  19
ATOM     19  C   UNL     1       2.629   5.868  19.554  0.00  0.00    +0.000 C 
ATOM     20  O   UNL     1       2.760   6.591  20.527  0.00  0.00    +0.000 OA
BRANCH  19  21
ATOM     21  O   UNL     1       1.589   5.029  19.340  0.00  0.00    +0.000 OA
BRANCH  21  23
ATOM     22  C   UNL     1       0.690   2.925  20.037  0.00  0.00    +0.000 C 
ATOM     23  C   UNL     1       1.117   4.305  20.485  0.00  0.00    +0.000 C 
ENDBRANCH  21  23
ENDBRANCH  19  21
ENDBRANCH   1  19
TORSDOF 4
ENDMDL
MODEL 3
REMARK VINA RESULT:      -6.4      1.624      3.731
REMARK  Name = 
REMARK  6 active torsions:
REMARK  status: ('A' for Active; 'I' for Inactive)
REMARK    1  A    between atoms: C_1  and  C_2
REMARK    2  A    between atoms: C_2  and  O_3
REMARK    3  A    between atoms: O_3  and  C_4
REMARK    4  A    between atoms: C_4  and  C_6
REMARK    5  A    between atoms: C_7  and  C_8
REMARK    6  A    between atoms: C_12  and  C_13
REMARK                            x       y       z     vdW  Elec       q    Type
REMARK                         _______ _______ _______ _____ _____    ______ ____
ROOT
ATOM      1  C   UNL     1       2.948   5.180  19.170  0.00  0.00    +0.000 C 
ATOM      2  C   UNL     1       2.947   6.452  18.706  0.00  0.00    +0.000 C 
ATOM      3  C   UNL     1       2.256   7.658  19.297  0.00  0.00    +0.000 C 
ATOM      4  N   UNL     1       3.625   6.747  17.537  0.00  0.00    +0.000 N 
ATOM      5  C   UNL     1       4.549   5.939  16.931  0.00  0.00    +0.000 C 
ATOM      6  O   UNL     1       5.130   6.287  15.904  0.00  0.00    +0.000 OA
ATOM      7  C   UNL     1       4.897   4.667  17.666  0.00  0.00    +0.000 C 
ATOM      8  C   UNL     1       3.631   4.066  18.347  0.00  0.00    +0.000 C 
ATOM      9  C   UNL     1       2.621   3.570  17.259  0.00  0.00    +0.000 C 
ATOM     10  C   UNL     1       2.888   2.082  17.089  0.00  0.00    +0.000 C 
ATOM     11  C   UNL     1       3.159   1.629  18.508  0.00  0.00    +0.000 C 
ATOM     12  C   UNL     1       4.051   2.739  19.066  0.00  0.00    +0.000 C 
ATOM     13  H   UNL     1       3.520   7.665  17.116  0.00  0.00    +0.000 HD
ENDROOT
BRANCH   7  14
ATOM     14  C   UNL     1       6.038   4.945  18.642  0.00  0.00    +0.000 C 
ATOM     15  N   UNL     1       7.230   4.356  18.331  0.00  0.00    +0.000 N 
ATOM     16  O   UNL     1       5.937   5.619  19.662  0.00  0.00    +0.000 OA
ATOM     17  H   UNL     1       7.412   3.968  17.411  0.00  0.00    +0.000 HD
ATOM     18  H   UNL     1       8.022   4.586  18.916  0.00  0.00    +0.000 HD
ENDBRANCH   7  14
BRANCH   1  19
ATOM     19  C   UNL     1       2.286   4.868  20.471  0.00  0.00    +0.000 C 
ATOM     20  O   UNL     1       2.830   4.919  21.560  0.00  0.00    +0.000 OA
BRANCH  19  21
ATOM     21  O   UNL     1       0.991   4.534  20.259  0.00  0.00    +0.000 OA
BRANCH  21  23
ATOM     22  C   UNL     1       1.322   2.583  21.603  0.00  0.00    +0.000 C 
ATOM     23  C   UNL     1       0.677   3.138  20.353  0.00  0.00    +0.000 C 
ENDBRANCH  21  23
ENDBRANCH  19  21
ENDBRANCH   1  19
TORSDOF 4
ENDMDL
MODEL 4
REMARK VINA RESULT:      -6.4      2.091      3.796
REMARK  Name = 
REMARK  6 active torsions:
REMARK  status: ('A' for Active; 'I' for Inactive)
REMARK    1  A    between atoms: C_1  and  C_2
REMARK    2  A    between atoms: C_2  and  O_3
REMARK    3  A    between atoms: O_3  and  C_4
REMARK    4  A    between atoms: C_4  and  C_6
REMARK    5  A    between atoms: C_7  and  C_8
REMARK    6  A    between atoms: C_12  and  C_13
REMARK                            x       y       z     vdW  Elec       q    Type
REMARK                         _______ _______ _______ _____ _____    ______ ____
ROOT
ATOM      1  C   UNL     1       4.364   4.983  17.135  0.00  0.00    +0.000 C 
ATOM      2  C   UNL     1       4.102   6.124  17.815  0.00  0.00    +0.000 C 
ATOM      3  C   UNL     1       2.895   6.445  18.663  0.00  0.00    +0.000 C 
ATOM      4  N   UNL     1       5.000   7.173  17.749  0.00  0.00    +0.000 N 
ATOM      5  C   UNL     1       6.287   7.088  17.289  0.00  0.00    +0.000 C 
ATOM      6  O   UNL     1       7.034   8.064  17.289  0.00  0.00    +0.000 OA
ATOM      7  C   UNL     1       6.762   5.705  16.909  0.00  0.00    +0.000 C 
ATOM      8  C   UNL     1       5.613   4.902  16.230  0.00  0.00    +0.000 C 
ATOM      9  C   UNL     1       5.259   5.537  14.844  0.00  0.00    +0.000 C 
ATOM     10  C   UNL     1       6.043   4.745  13.808  0.00  0.00    +0.000 C 
ATOM     11  C   UNL     1       5.946   3.328  14.332  0.00  0.00    +0.000 C 
ATOM     12  C   UNL     1       6.175   3.493  15.835  0.00  0.00    +0.000 C 
ATOM     13  H   UNL     1       4.749   8.073  18.148  0.00  0.00    +0.000 HD
ENDROOT
BRANCH   7  14
ATOM     14  C   UNL     1       7.342   5.016  18.141  0.00  0.00    +0.000 C 
ATOM     15  N   UNL     1       8.387   4.171  17.901  0.00  0.00    +0.000 N 
ATOM     16  O   UNL     1       6.917   5.153  19.284  0.00  0.00    +0.000 OA
ATOM     17  H   UNL     1       8.894   4.183  17.022  0.00  0.00    +0.000 HD
ATOM     18  H   UNL     1       8.840   3.761  18.707  0.00  0.00    +0.000 HD
ENDBRANCH   7  14
BRANCH   1  19
ATOM     19  C   UNL     1       3.440   3.817  17.262  0.00  0.00    +0.000 C 
ATOM     20  O   UNL     1       2.454   3.630  16.569  0.00  0.00    +0.000 OA
BRANCH  19  21
ATOM     21  O   UNL     1       3.868   2.997  18.249  0.00  0.00    +0.000 OA
BRANCH  21  23
ATOM     22  C   UNL     1       2.503   3.037  20.213  0.00  0.00    +0.000 C 
ATOM     23  C   UNL     1       2.849   2.274  18.954  0.00  0.00    +0.000 C 
ENDBRANCH  21  23
ENDBRANCH  19  21
ENDBRANCH   1  19
TORSDOF 4
ENDMDL
MODEL 5
REMARK VINA RESULT:      -6.3      2.240      4.721
REMARK  Name = 
REMARK  6 active torsions:
REMARK  status: ('A' for Active; 'I' for Inactive)
REMARK    1  A    between atoms: C_1  and  C_2
REMARK    2  A    between atoms: C_2  and  O_3
REMARK    3  A    between atoms: O_3  and  C_4
REMARK    4  A    between atoms: C_4  and  C_6
REMARK    5  A    between atoms: C_7  and  C_8
REMARK    6  A    between atoms: C_12  and  C_13
REMARK                            x       y       z     vdW  Elec       q    Type
REMARK                         _______ _______ _______ _____ _____    ______ ____
ROOT
ATOM      1  C   UNL     1       3.644   3.605  18.667  0.00  0.00    +0.000 C 
ATOM      2  C   UNL     1       3.303   2.318  18.421  0.00  0.00    +0.000 C 
ATOM      3  C   UNL     1       4.207   1.175  18.025  0.00  0.00    +0.000 C 
ATOM      4  N   UNL     1       1.974   1.941  18.504  0.00  0.00    +0.000 N 
ATOM      5  C   UNL     1       0.977   2.674  19.090  0.00  0.00    +0.000 C 
ATOM      6  O   UNL     1      -0.177   2.256  19.146  0.00  0.00    +0.000 OA
ATOM      7  C   UNL     1       1.409   3.954  19.767  0.00  0.00    +0.000 C 
ATOM      8  C   UNL     1       2.539   4.648  18.950  0.00  0.00    +0.000 C 
ATOM      9  C   UNL     1       1.979   5.155  17.580  0.00  0.00    +0.000 C 
ATOM     10  C   UNL     1       1.622   6.619  17.791  0.00  0.00    +0.000 C 
ATOM     11  C   UNL     1       2.748   7.112  18.675  0.00  0.00    +0.000 C 
ATOM     12  C   UNL     1       2.922   5.978  19.687  0.00  0.00    +0.000 C 
ATOM     13  H   UNL     1       1.697   1.015  18.195  0.00  0.00    +0.000 HD
ENDROOT
BRANCH   7  14
ATOM     14  C   UNL     1       1.798   3.652  21.212  0.00  0.00    +0.000 C 
ATOM     15  N   UNL     1       1.133   2.610  21.791  0.00  0.00    +0.000 N 
ATOM     16  O   UNL     1       2.622   4.288  21.861  0.00  0.00    +0.000 OA
ATOM     17  H   UNL     1       0.604   1.940  21.242  0.00  0.00    +0.000 HD
ATOM     18  H   UNL     1       1.425   2.339  22.720  0.00  0.00    +0.000 HD
ENDBRANCH   7  14
BRANCH   1  19
ATOM     19  C   UNL     1       5.082   4.004  18.657  0.00  0.00    +0.000 C 
ATOM     20  O   UNL     1       5.809   4.014  19.635  0.00  0.00    +0.000 OA
BRANCH  19  21
ATOM     21  O   UNL     1       5.458   4.338  17.401  0.00  0.00    +0.000 OA
BRANCH  21  23
ATOM     22  C   UNL     1       5.195   6.236  15.970  0.00  0.00    +0.000 C 
ATOM     23  C   UNL     1       5.875   5.697  17.208  0.00  0.00    +0.000 C 
ENDBRANCH  21  23
ENDBRANCH  19  21
ENDBRANCH   1  19
TORSDOF 4
ENDMDL
MODEL 6
REMARK VINA RESULT:      -6.1      2.495      4.776
REMARK  Name = 
REMARK  6 active torsions:
REMARK  status: ('A' for Active; 'I' for Inactive)
REMARK    1  A    between atoms: C_1  and  C_2
REMARK    2  A    between atoms: C_2  and  O_3
REMARK    3  A    between atoms: O_3  and  C_4
REMARK    4  A    between atoms: C_4  and  C_6
REMARK    5  A    between atoms: C_7  and  C_8
REMARK    6  A    between atoms: C_12  and  C_13
REMARK                            x       y       z     vdW  Elec       q    Type
REMARK                         _______ _______ _______ _____ _____    ______ ____
ROOT
ATOM      1  C   UNL     1       2.895   6.356  18.988  0.00  0.00    +0.000 C 
ATOM      2  C   UNL     1       2.256   6.440  20.179  0.00  0.00    +0.000 C 
ATOM      3  C   UNL     1       1.578   7.644  20.789  0.00  0.00    +0.000 C 
ATOM      4  N   UNL     1       2.198   5.326  20.997  0.00  0.00    +0.000 N 
ATOM      5  C   UNL     1       2.480   4.043  20.611  0.00  0.00    +0.000 C 
ATOM      6  O   UNL     1       2.379   3.101  21.394  0.00  0.00    +0.000 OA
ATOM      7  C   UNL     1       2.793   3.848  19.146  0.00  0.00    +0.000 C 
ATOM      8  C   UNL     1       3.622   5.049  18.601  0.00  0.00    +0.000 C 
ATOM      9  C   UNL     1       5.042   5.064  19.258  0.00  0.00    +0.000 C 
ATOM     10  C   UNL     1       5.963   4.351  18.279  0.00  0.00    +0.000 C 
ATOM     11  C   UNL     1       5.458   4.834  16.937  0.00  0.00    +0.000 C 
ATOM     12  C   UNL     1       3.938   4.774  17.091  0.00  0.00    +0.000 C 
ATOM     13  H   UNL     1       1.837   5.417  21.942  0.00  0.00    +0.000 HD
ENDROOT
BRANCH   7  14
ATOM     14  C   UNL     1       1.494   3.608  18.381  0.00  0.00    +0.000 C 
ATOM     15  N   UNL     1       0.734   2.568  18.832  0.00  0.00    +0.000 N 
ATOM     16  O   UNL     1       1.127   4.256  17.406  0.00  0.00    +0.000 OA
ATOM     17  H   UNL     1       0.891   2.143  19.741  0.00  0.00    +0.000 HD
ATOM     18  H   UNL     1      -0.168   2.434  18.395  0.00  0.00    +0.000 HD
ENDBRANCH   7  14
BRANCH   1  19
ATOM     19  C   UNL     1       2.895   7.529  18.065  0.00  0.00    +0.000 C 
ATOM     20  O   UNL     1       3.885   7.992  17.527  0.00  0.00    +0.000 OA
BRANCH  19  21
ATOM     21  O   UNL     1       1.632   7.988  17.905  0.00  0.00    +0.000 OA
BRANCH  21  23
ATOM     22  C   UNL     1       0.074   9.789  18.133  0.00  0.00    +0.000 C 
ATOM     23  C   UNL     1       1.491   9.409  17.767  0.00  0.00    +0.000 C 
ENDBRANCH  21  23
ENDBRANCH  19  21
ENDBRANCH   1  19
TORSDOF 4
ENDMDL
MODEL 7
REMARK VINA RESULT:      -6.1      2.423      4.010
REMARK  Name = 
REMARK  6 active torsions:
REMARK  status: ('A' for Active; 'I' for Inactive)
REMARK    1  A    between atoms: C_1  and  C_2
REMARK    2  A    between atoms: C_2  and  O_3
REMARK    3  A    between atoms: O_3  and  C_4
REMARK    4  A    between atoms: C_4  and  C_6
REMARK    5  A    between atoms: C_7  and  C_8
REMARK    6  A    between atoms: C_12  and  C_13
REMARK                            x       y       z     vdW  Elec       q    Type
REMARK                         _______ _______ _______ _____ _____    ______ ____
ROOT
ATOM      1  C   UNL     1       3.062   4.808  19.100  0.00  0.00    +0.000 C 
ATOM      2  C   UNL     1       2.608   4.309  20.275  0.00  0.00    +0.000 C 
ATOM      3  C   UNL     1       1.358   4.697  21.029  0.00  0.00    +0.000 C 
ATOM      4  N   UNL     1       3.344   3.337  20.928  0.00  0.00    +0.000 N 
ATOM      5  C   UNL     1       4.360   2.606  20.373  0.00  0.00    +0.000 C 
ATOM      6  O   UNL     1       4.949   1.738  21.015  0.00  0.00    +0.000 OA
ATOM      7  C   UNL     1       4.619   2.842  18.905  0.00  0.00    +0.000 C 
ATOM      8  C   UNL     1       4.432   4.349  18.554  0.00  0.00    +0.000 C 
ATOM      9  C   UNL     1       5.548   5.203  19.242  0.00  0.00    +0.000 C 
ATOM     10  C   UNL     1       6.638   5.387  18.197  0.00  0.00    +0.000 C 
ATOM     11  C   UNL     1       5.846   5.585  16.923  0.00  0.00    +0.000 C 
ATOM     12  C   UNL     1       4.741   4.533  17.028  0.00  0.00    +0.000 C 
ATOM     13  H   UNL     1       3.078   3.055  21.866  0.00  0.00    +0.000 HD
ENDROOT
BRANCH   7  14
ATOM     14  C   UNL     1       3.733   1.911  18.081  0.00  0.00    +0.000 C 
ATOM     15  N   UNL     1       4.078   0.591  18.119  0.00  0.00    +0.000 N 
ATOM     16  O   UNL     1       2.785   2.275  17.392  0.00  0.00    +0.000 OA
ATOM     17  H   UNL     1       4.713   0.223  18.821  0.00  0.00    +0.000 HD
ATOM     18  H   UNL     1       3.464  -0.059  17.647  0.00  0.00    +0.000 HD
ENDBRANCH   7  14
BRANCH   1  19
ATOM     19  C   UNL     1       2.237   5.800  18.350  0.00  0.00    +0.000 C 
ATOM     20  O   UNL     1       1.411   5.518  17.499  0.00  0.00    +0.000 OA
BRANCH  19  21
ATOM     21  O   UNL     1       2.534   7.053  18.765  0.00  0.00    +0.000 OA
BRANCH  21  23
ATOM     22  C   UNL     1       1.892   9.154  17.818  0.00  0.00    +0.000 C 
ATOM     23  C   UNL     1       2.863   7.996  17.736  0.00  0.00    +0.000 C 
ENDBRANCH  21  23
ENDBRANCH  19  21
ENDBRANCH   1  19
TORSDOF 4
ENDMDL
MODEL 8
REMARK VINA RESULT:      -5.8      1.866      4.086
REMARK  Name = 
REMARK  6 active torsions:
REMARK  status: ('A' for Active; 'I' for Inactive)
REMARK    1  A    between atoms: C_1  and  C_2
REMARK    2  A    between atoms: C_2  and  O_3
REMARK    3  A    between atoms: O_3  and  C_4
REMARK    4  A    between atoms: C_4  and  C_6
REMARK    5  A    between atoms: C_7  and  C_8
REMARK    6  A    between atoms: C_12  and  C_13
REMARK                            x       y       z     vdW  Elec       q    Type
REMARK                         _______ _______ _______ _____ _____    ______ ____
ROOT
ATOM      1  C   UNL     1       3.358   5.831  18.469  0.00  0.00    +0.000 C 
ATOM      2  C   UNL     1       3.507   6.871  17.615  0.00  0.00    +0.000 C 
ATOM      3  C   UNL     1       2.757   8.182  17.604  0.00  0.00    +0.000 C 
ATOM      4  N   UNL     1       4.430   6.778  16.588  0.00  0.00    +0.000 N 
ATOM      5  C   UNL     1       5.428   5.845  16.502  0.00  0.00    +0.000 C 
ATOM      6  O   UNL     1       6.228   5.846  15.568  0.00  0.00    +0.000 OA
ATOM      7  C   UNL     1       5.560   4.908  17.679  0.00  0.00    +0.000 C 
ATOM      8  C   UNL     1       4.154   4.528  18.234  0.00  0.00    +0.000 C 
ATOM      9  C   UNL     1       3.379   3.661  17.187  0.00  0.00    +0.000 C 
ATOM     10  C   UNL     1       3.615   2.212  17.589  0.00  0.00    +0.000 C 
ATOM     11  C   UNL     1       3.560   2.274  19.100  0.00  0.00    +0.000 C 
ATOM     12  C   UNL     1       4.358   3.537  19.430  0.00  0.00    +0.000 C 
ATOM     13  H   UNL     1       4.454   7.497  15.871  0.00  0.00    +0.000 HD
ENDROOT
BRANCH   7  14
ATOM     14  C   UNL     1       6.478   5.537  18.723  0.00  0.00    +0.000 C 
ATOM     15  N   UNL     1       7.344   6.480  18.249  0.00  0.00    +0.000 N 
ATOM     16  O   UNL     1       6.496   5.233  19.912  0.00  0.00    +0.000 OA
ATOM     17  H   UNL     1       7.227   6.903  17.333  0.00  0.00    +0.000 HD
ATOM     18  H   UNL     1       7.909   6.968  18.930  0.00  0.00    +0.000 HD
ENDBRANCH   7  14
BRANCH   1  19
ATOM     19  C   UNL     1       2.422   5.953  19.625  0.00  0.00    +0.000 C 
ATOM     20  O   UNL     1       1.699   5.060  20.033  0.00  0.00    +0.000 OA
BRANCH  19  21
ATOM     21  O   UNL     1       2.507   7.194  20.158  0.00  0.00    +0.000 OA
BRANCH  21  23
ATOM     22  C   UNL     1       1.029   8.995  20.696  0.00  0.00    +0.000 C 
ATOM     23  C   UNL     1       1.438   7.579  21.033  0.00  0.00    +0.000 C 
ENDBRANCH  21  23
ENDBRANCH  19  21
ENDBRANCH   1  19
TORSDOF 4
ENDMDL
MODEL 9
REMARK VINA RESULT:      -5.7      2.672      5.453
REMARK  Name = 
REMARK  6 active torsions:
REMARK  status: ('A' for Active; 'I' for Inactive)
REMARK    1  A    between atoms: C_1  and  C_2
REMARK    2  A    between atoms: C_2  and  O_3
REMARK    3  A    between atoms: O_3  and  C_4
REMARK    4  A    between atoms: C_4  and  C_6
REMARK    5  A    between atoms: C_7  and  C_8
REMARK    6  A    between atoms: C_12  and  C_13
REMARK                            x       y       z     vdW  Elec       q    Type
REMARK                         _______ _______ _______ _____ _____    ______ ____
ROOT
ATOM      1  C   UNL     1       6.661   5.835  17.672  0.00  0.00    +0.000 C 
ATOM      2  C   UNL     1       6.847   5.331  18.915  0.00  0.00    +0.000 C 
ATOM      3  C   UNL     1       7.883   5.733  19.937  0.00  0.00    +0.000 C 
ATOM      4  N   UNL     1       6.034   4.303  19.357  0.00  0.00    +0.000 N 
ATOM      5  C   UNL     1       4.857   3.915  18.774  0.00  0.00    +0.000 C 
ATOM      6  O   UNL     1       4.177   3.006  19.246  0.00  0.00    +0.000 OA
ATOM      7  C   UNL     1       4.393   4.751  17.606  0.00  0.00    +0.000 C 
ATOM      8  C   UNL     1       5.606   5.200  16.738  0.00  0.00    +0.000 C 
ATOM      9  C   UNL     1       6.254   3.959  16.038  0.00  0.00    +0.000 C 
ATOM     10  C   UNL     1       5.644   3.900  14.645  0.00  0.00    +0.000 C 
ATOM     11  C   UNL     1       5.562   5.361  14.256  0.00  0.00    +0.000 C 
ATOM     12  C   UNL     1       5.057   6.036  15.532  0.00  0.00    +0.000 C 
ATOM     13  H   UNL     1       6.251   3.835  20.232  0.00  0.00    +0.000 HD
ENDROOT
BRANCH   7  14
ATOM     14  C   UNL     1       3.551   5.915  18.123  0.00  0.00    +0.000 C 
ATOM     15  N   UNL     1       2.571   5.578  19.012  0.00  0.00    +0.000 N 
ATOM     16  O   UNL     1       3.684   7.084  17.774  0.00  0.00    +0.000 OA
ATOM     17  H   UNL     1       2.556   4.675  19.477  0.00  0.00    +0.000 HD
ATOM     18  H   UNL     1       2.049   6.337  19.430  0.00  0.00    +0.000 HD
ENDBRANCH   7  14
BRANCH   1  19
ATOM     19  C   UNL     1       7.480   6.996  17.215  0.00  0.00    +0.000 C 
ATOM     20  O   UNL     1       8.177   7.007  16.215  0.00  0.00    +0.000 OA
BRANCH  19  21
ATOM     21  O   UNL     1       7.321   8.035  18.068  0.00  0.00    +0.000 OA
BRANCH  21  23
ATOM     22  C   UNL     1       8.911   9.597  18.937  0.00  0.00    +0.000 C 
ATOM     23  C   UNL     1       8.050   9.229  17.749  0.00  0.00    +0.000 C 
ENDBRANCH  21  23
ENDBRANCH  19  21
ENDBRANCH   1  19
TORSDOF 4
ENDMDL
