MODEL 1
REMARK VINA RESULT:      -6.3      0.000      0.000
REMARK  Name = 
REMARK  1 active torsions:
REMARK  status: ('A' for Active; 'I' for Inactive)
REMARK    1  A    between atoms: O_1  and  C_2
REMARK                            x       y       z     vdW  Elec       q    Type
REMARK                         _______ _______ _______ _____ _____    ______ ____
ROOT
ATOM      1  C   UNL     1       7.267   5.711  19.180  0.00  0.00    +0.000 A 
ATOM      2  C   UNL     1       7.764   6.770  18.406  0.00  0.00    +0.000 A 
ATOM      3  C   UNL     1       7.103   7.164  17.239  0.00  0.00    +0.000 A 
ATOM      4  C   UNL     1       5.939   6.507  16.831  0.00  0.00    +0.000 A 
ATOM      5  F   UNL     1       5.316   6.909  15.694  0.00  0.00    +0.000 F 
ATOM      6  C   UNL     1       5.431   5.442  17.594  0.00  0.00    +0.000 A 
ATOM      7  C   UNL     1       4.268   4.757  17.214  0.00  0.00    +0.000 A 
ATOM      8  C   UNL     1       3.794   3.702  17.995  0.00  0.00    +0.000 A 
ATOM      9  C   UNL     1       4.486   3.339  19.152  0.00  0.00    +0.000 A 
ATOM     10  N   UNL     1       5.612   4.010  19.515  0.00  0.00    +0.000 NA
ATOM     11  C   UNL     1       6.101   5.044  18.776  0.00  0.00    +0.000 A 
ENDROOT
BRANCH   1  12
ATOM     12  O   UNL     1       7.907   5.326  20.304  0.00  0.00    +0.000 OA
ATOM     13  H   UNL     1       8.758   5.703  20.566  0.00  0.00    +0.000 HD
ENDBRANCH   1  12
TORSDOF 1
ENDMDL
MODEL 2
REMARK VINA RESULT:      -6.3      2.329      4.244
REMARK  Name = 
REMARK  1 active torsions:
REMARK  status: ('A' for Active; 'I' for Inactive)
REMARK    1  A    between atoms: O_1  and  C_2
REMARK                            x       y       z     vdW  Elec       q    Type
REMARK                         _______ _______ _______ _____ _____    ______ ____
ROOT
ATOM      1  C   UNL     1       4.052   2.434  19.268  0.00  0.00    +0.000 A 
ATOM      2  C   UNL     1       2.755   1.926  19.101  0.00  0.00    +0.000 A 
ATOM      3  C   UNL     1       1.784   2.673  18.428  0.00  0.00    +0.000 A 
ATOM      4  C   UNL     1       2.097   3.935  17.912  0.00  0.00    +0.000 A 
ATOM      5  F   UNL     1       1.136   4.640  17.261  0.00  0.00    +0.000 F 
ATOM      6  C   UNL     1       3.391   4.457  18.073  0.00  0.00    +0.000 A 
ATOM      7  C   UNL     1       3.739   5.720  17.572  0.00  0.00    +0.000 A 
ATOM      8  C   UNL     1       5.035   6.208  17.754  0.00  0.00    +0.000 A 
ATOM      9  C   UNL     1       5.972   5.430  18.435  0.00  0.00    +0.000 A 
ATOM     10  N   UNL     1       5.627   4.207  18.916  0.00  0.00    +0.000 NA
ATOM     11  C   UNL     1       4.373   3.700  18.755  0.00  0.00    +0.000 A 
ENDROOT
BRANCH   1  12
ATOM     12  O   UNL     1       4.989   1.716  19.922  0.00  0.00    +0.000 OA
ATOM     13  H   UNL     1       5.769   2.128  20.320  0.00  0.00    +0.000 HD
ENDBRANCH   1  12
TORSDOF 1
ENDMDL
MODEL 3
REMARK VINA RESULT:      -6.0      3.072      4.073
REMARK  Name = 
REMARK  1 active torsions:
REMARK  status: ('A' for Active; 'I' for Inactive)
REMARK    1  A    between atoms: O_1  and  C_2
REMARK                            x       y       z     vdW  Elec       q    Type
REMARK                         _______ _______ _______ _____ _____    ______ ____
ROOT
ATOM      1  C   UNL     1       4.507   3.507  18.876  0.00  0.00    +0.000 A 
ATOM      2  C   UNL     1       4.440   4.040  17.580  0.00  0.00    +0.000 A 
ATOM      3  C   UNL     1       3.208   4.398  17.025  0.00  0.00    +0.000 A 
ATOM      4  C   UNL     1       2.029   4.229  17.757  0.00  0.00    +0.000 A 
ATOM      5  F   UNL     1       0.844   4.584  17.196  0.00  0.00    +0.000 F 
ATOM      6  C   UNL     1       2.080   3.694  19.056  0.00  0.00    +0.000 A 
ATOM      7  C   UNL     1       0.918   3.506  19.818  0.00  0.00    +0.000 A 
ATOM      8  C   UNL     1       1.007   2.969  21.103  0.00  0.00    +0.000 A 
ATOM      9  C   UNL     1       2.258   2.623  21.617  0.00  0.00    +0.000 A 
ATOM     10  N   UNL     1       3.380   2.810  20.873  0.00  0.00    +0.000 NA
ATOM     11  C   UNL     1       3.328   3.332  19.616  0.00  0.00    +0.000 A 
ENDROOT
BRANCH   1  12
ATOM     12  O   UNL     1       5.696   3.157  19.411  0.00  0.00    +0.000 OA
ATOM     13  H   UNL     1       6.242   2.453  19.034  0.00  0.00    +0.000 HD
ENDBRANCH   1  12
TORSDOF 1
ENDMDL
MODEL 4
REMARK VINA RESULT:      -5.9      1.362      3.244
REMARK  Name = 
REMARK  1 active torsions:
REMARK  status: ('A' for Active; 'I' for Inactive)
REMARK    1  A    between atoms: O_1  and  C_2
REMARK                            x       y       z     vdW  Elec       q    Type
REMARK                         _______ _______ _______ _____ _____    ______ ____
ROOT
ATOM      1  C   UNL     1       5.099   3.732  18.589  0.00  0.00    +0.000 A 
ATOM      2  C   UNL     1       4.138   3.565  17.580  0.00  0.00    +0.000 A 
ATOM      3  C   UNL     1       4.110   4.427  16.480  0.00  0.00    +0.000 A 
ATOM      4  C   UNL     1       5.041   5.464  16.373  0.00  0.00    +0.000 A 
ATOM      5  F   UNL     1       4.994   6.288  15.294  0.00  0.00    +0.000 F 
ATOM      6  C   UNL     1       6.008   5.646  17.376  0.00  0.00    +0.000 A 
ATOM      7  C   UNL     1       6.955   6.678  17.304  0.00  0.00    +0.000 A 
ATOM      8  C   UNL     1       7.898   6.829  18.323  0.00  0.00    +0.000 A 
ATOM      9  C   UNL     1       7.888   5.948  19.405  0.00  0.00    +0.000 A 
ATOM     10  N   UNL     1       6.968   4.949  19.466  0.00  0.00    +0.000 NA
ATOM     11  C   UNL     1       6.035   4.772  18.490  0.00  0.00    +0.000 A 
ENDROOT
BRANCH   1  12
ATOM     12  O   UNL     1       5.123   2.904  19.654  0.00  0.00    +0.000 OA
ATOM     13  H   UNL     1       5.540   2.031  19.617  0.00  0.00    +0.000 HD
ENDBRANCH   1  12
TORSDOF 1
ENDMDL
MODEL 5
REMARK VINA RESULT:      -5.9      3.054      4.641
REMARK  Name = 
REMARK  1 active torsions:
REMARK  status: ('A' for Active; 'I' for Inactive)
REMARK    1  A    between atoms: O_1  and  C_2
REMARK                            x       y       z     vdW  Elec       q    Type
REMARK                         _______ _______ _______ _____ _____    ______ ____
ROOT
ATOM      1  C   UNL     1       3.993   2.798  20.103  0.00  0.00    +0.000 A 
ATOM      2  C   UNL     1       3.023   2.608  21.099  0.00  0.00    +0.000 A 
ATOM      3  C   UNL     1       2.056   3.589  21.340  0.00  0.00    +0.000 A 
ATOM      4  C   UNL     1       2.046   4.769  20.590  0.00  0.00    +0.000 A 
ATOM      5  F   UNL     1       1.096   5.705  20.843  0.00  0.00    +0.000 F 
ATOM      6  C   UNL     1       3.012   4.974  19.591  0.00  0.00    +0.000 A 
ATOM      7  C   UNL     1       3.035   6.146  18.823  0.00  0.00    +0.000 A 
ATOM      8  C   UNL     1       4.014   6.317  17.841  0.00  0.00    +0.000 A 
ATOM      9  C   UNL     1       4.962   5.314  17.636  0.00  0.00    +0.000 A 
ATOM     10  N   UNL     1       4.932   4.179  18.384  0.00  0.00    +0.000 NA
ATOM     11  C   UNL     1       3.991   3.980  19.349  0.00  0.00    +0.000 A 
ENDROOT
BRANCH   1  12
ATOM     12  O   UNL     1       4.930   1.855  19.873  0.00  0.00    +0.000 OA
ATOM     13  H   UNL     1       4.990   1.048  20.405  0.00  0.00    +0.000 HD
ENDBRANCH   1  12
TORSDOF 1
ENDMDL
MODEL 6
REMARK VINA RESULT:      -5.9      3.554      5.193
REMARK  Name = 
REMARK  1 active torsions:
REMARK  status: ('A' for Active; 'I' for Inactive)
REMARK    1  A    between atoms: O_1  and  C_2
REMARK                            x       y       z     vdW  Elec       q    Type
REMARK                         _______ _______ _______ _____ _____    ______ ____
ROOT
ATOM      1  C   UNL     1       2.359   2.603  18.836  0.00  0.00    +0.000 A 
ATOM      2  C   UNL     1       1.458   2.571  19.912  0.00  0.00    +0.000 A 
ATOM      3  C   UNL     1       1.122   3.747  20.588  0.00  0.00    +0.000 A 
ATOM      4  C   UNL     1       1.681   4.969  20.199  0.00  0.00    +0.000 A 
ATOM      5  F   UNL     1       1.338   6.098  20.871  0.00  0.00    +0.000 F 
ATOM      6  C   UNL     1       2.586   5.016  19.125  0.00  0.00    +0.000 A 
ATOM      7  C   UNL     1       3.168   6.223  18.710  0.00  0.00    +0.000 A 
ATOM      8  C   UNL     1       4.067   6.230  17.641  0.00  0.00    +0.000 A 
ATOM      9  C   UNL     1       4.377   5.032  16.996  0.00  0.00    +0.000 A 
ATOM     10  N   UNL     1       3.806   3.867  17.404  0.00  0.00    +0.000 NA
ATOM     11  C   UNL     1       2.925   3.824  18.442  0.00  0.00    +0.000 A 
ENDROOT
BRANCH   1  12
ATOM     12  O   UNL     1       2.688   1.467  18.186  0.00  0.00    +0.000 OA
ATOM     13  H   UNL     1       3.547   1.037  18.303  0.00  0.00    +0.000 HD
ENDBRANCH   1  12
TORSDOF 1
ENDMDL
MODEL 7
REMARK VINA RESULT:      -5.8      1.700      1.854
REMARK  Name = 
REMARK  1 active torsions:
REMARK  status: ('A' for Active; 'I' for Inactive)
REMARK    1  A    between atoms: O_1  and  C_2
REMARK                            x       y       z     vdW  Elec       q    Type
REMARK                         _______ _______ _______ _____ _____    ______ ____
ROOT
ATOM      1  C   UNL     1       6.696   5.105  18.769  0.00  0.00    +0.000 A 
ATOM      2  C   UNL     1       7.524   4.830  17.669  0.00  0.00    +0.000 A 
ATOM      3  C   UNL     1       6.968   4.483  16.435  0.00  0.00    +0.000 A 
ATOM      4  C   UNL     1       5.580   4.406  16.283  0.00  0.00    +0.000 A 
ATOM      5  F   UNL     1       5.064   4.068  15.073  0.00  0.00    +0.000 F 
ATOM      6  C   UNL     1       4.739   4.677  17.375  0.00  0.00    +0.000 A 
ATOM      7  C   UNL     1       3.343   4.606  17.260  0.00  0.00    +0.000 A 
ATOM      8  C   UNL     1       2.538   4.878  18.369  0.00  0.00    +0.000 A 
ATOM      9  C   UNL     1       3.136   5.218  19.583  0.00  0.00    +0.000 A 
ATOM     10  N   UNL     1       4.489   5.286  19.686  0.00  0.00    +0.000 NA
ATOM     11  C   UNL     1       5.303   5.028  18.624  0.00  0.00    +0.000 A 
ENDROOT
BRANCH   1  12
ATOM     12  O   UNL     1       7.232   5.435  19.962  0.00  0.00    +0.000 OA
ATOM     13  H   UNL     1       7.850   6.174  20.062  0.00  0.00    +0.000 HD
ENDBRANCH   1  12
TORSDOF 1
ENDMDL
MODEL 8
REMARK VINA RESULT:      -5.8      1.847      3.489
REMARK  Name = 
REMARK  1 active torsions:
REMARK  status: ('A' for Active; 'I' for Inactive)
REMARK    1  A    between atoms: O_1  and  C_2
REMARK                            x       y       z     vdW  Elec       q    Type
REMARK                         _______ _______ _______ _____ _____    ______ ____
ROOT
ATOM      1  C   UNL     1       4.564   3.622  19.203  0.00  0.00    +0.000 A 
ATOM      2  C   UNL     1       3.178   3.829  19.270  0.00  0.00    +0.000 A 
ATOM      3  C   UNL     1       2.608   4.983  18.724  0.00  0.00    +0.000 A 
ATOM      4  C   UNL     1       3.414   5.943  18.105  0.00  0.00    +0.000 A 
ATOM      5  F   UNL     1       2.836   7.054  17.582  0.00  0.00    +0.000 F 
ATOM      6  C   UNL     1       4.804   5.750  18.032  0.00  0.00    +0.000 A 
ATOM      7  C   UNL     1       5.643   6.694  17.421  0.00  0.00    +0.000 A 
ATOM      8  C   UNL     1       7.021   6.470  17.371  0.00  0.00    +0.000 A 
ATOM      9  C   UNL     1       7.548   5.306  17.931  0.00  0.00    +0.000 A 
ATOM     10  N   UNL     1       6.727   4.396  18.519  0.00  0.00    +0.000 NA
ATOM     11  C   UNL     1       5.380   4.582  18.585  0.00  0.00    +0.000 A 
ENDROOT
BRANCH   1  12
ATOM     12  O   UNL     1       5.117   2.511  19.733  0.00  0.00    +0.000 OA
ATOM     13  H   UNL     1       4.819   2.141  20.576  0.00  0.00    +0.000 HD
ENDBRANCH   1  12
TORSDOF 1
ENDMDL
MODEL 9
REMARK VINA RESULT:      -5.8      3.352      4.985
REMARK  Name = 
REMARK  1 active torsions:
REMARK  status: ('A' for Active; 'I' for Inactive)
REMARK    1  A    between atoms: O_1  and  C_2
REMARK                            x       y       z     vdW  Elec       q    Type
REMARK                         _______ _______ _______ _____ _____    ______ ____
ROOT
ATOM      1  C   UNL     1       1.959   5.268  20.168  0.00  0.00    +0.000 A 
ATOM      2  C   UNL     1       1.081   4.214  20.461  0.00  0.00    +0.000 A 
ATOM      3  C   UNL     1       1.060   3.068  19.661  0.00  0.00    +0.000 A 
ATOM      4  C   UNL     1       1.914   2.961  18.559  0.00  0.00    +0.000 A 
ATOM      5  F   UNL     1       1.875   1.837  17.798  0.00  0.00    +0.000 F 
ATOM      6  C   UNL     1       2.797   4.010  18.252  0.00  0.00    +0.000 A 
ATOM      7  C   UNL     1       3.666   3.939  17.153  0.00  0.00    +0.000 A 
ATOM      8  C   UNL     1       4.527   5.003  16.876  0.00  0.00    +0.000 A 
ATOM      9  C   UNL     1       4.513   6.129  17.700  0.00  0.00    +0.000 A 
ATOM     10  N   UNL     1       3.669   6.189  18.764  0.00  0.00    +0.000 NA
ATOM     11  C   UNL     1       2.817   5.169  19.063  0.00  0.00    +0.000 A 
ENDROOT
BRANCH   1  12
ATOM     12  O   UNL     1       1.976   6.377  20.937  0.00  0.00    +0.000 OA
ATOM     13  H   UNL     1       1.958   6.333  21.904  0.00  0.00    +0.000 HD
ENDBRANCH   1  12
TORSDOF 1
ENDMDL
