MODEL 1
REMARK VINA RESULT:      -7.8      0.000      0.000
REMARK  Name = 
REMARK  8 active torsions:
REMARK  status: ('A' for Active; 'I' for Inactive)
REMARK    1  A    between atoms: C_1  and  O_2
REMARK    2  A    between atoms: O_2  and  C_3
REMARK    3  A    between atoms: C_6  and  C_7
REMARK    4  A    between atoms: C_7  and  N_8
REMARK    5  A    between atoms: C_13  and  C_14
REMARK    6  A    between atoms: C_18  and  C_19
REMARK    7  A    between atoms: C_23  and  O_24
REMARK    8  A    between atoms: O_24  and  C_25
REMARK                            x       y       z     vdW  Elec       q    Type
REMARK                         _______ _______ _______ _____ _____    ______ ____
ROOT
ATOM      1  N   UNL     1       4.139   4.527  18.497  0.00  0.00    +0.000 N 
ATOM      2  C   UNL     1       5.356   4.605  17.821  0.00  0.00    +0.000 A 
ATOM      3  C   UNL     1       6.504   4.609  18.588  0.00  0.00    +0.000 A 
ATOM      4  C   UNL     1       7.698   4.648  17.914  0.00  0.00    +0.000 A 
ATOM      5  N   UNL     1       7.784   4.628  16.577  0.00  0.00    +0.000 NA
ATOM      6  C   UNL     1       6.615   4.591  15.907  0.00  0.00    +0.000 A 
ATOM      7  N   UNL     1       5.395   4.593  16.485  0.00  0.00    +0.000 NA
ATOM      8  H   UNL     1       3.993   3.565  18.790  0.00  0.00    +0.000 HD
ENDROOT
BRANCH   6   9
ATOM      9  C   UNL     1       6.672   4.509  14.435  0.00  0.00    +0.000 A 
ATOM     10  C   UNL     1       7.758   5.031  13.706  0.00  0.00    +0.000 A 
ATOM     11  C   UNL     1       7.812   4.954  12.312  0.00  0.00    +0.000 A 
ATOM     12  C   UNL     1       6.773   4.350  11.610  0.00  0.00    +0.000 A 
ATOM     13  C   UNL     1       5.686   3.818  12.304  0.00  0.00    +0.000 A 
ATOM     14  C   UNL     1       5.638   3.896  13.701  0.00  0.00    +0.000 A 
BRANCH  13  15
ATOM     15  C   UNL     1       4.618   3.192  11.586  0.00  0.00    +0.000 C 
ATOM     16  N   UNL     1       3.753   2.686  11.001  0.00  0.00    +0.000 NA
ENDBRANCH  13  15
ENDBRANCH   6   9
BRANCH   1  17
ATOM     17  C   UNL     1       2.952   5.055  17.824  0.00  0.00    +0.000 C 
BRANCH  17  21
ATOM     18  C   UNL     1       1.537   8.626  19.873  0.00  0.00    +0.000 A 
ATOM     19  C   UNL     1       1.843   8.669  18.519  0.00  0.00    +0.000 A 
ATOM     20  C   UNL     1       2.296   7.527  17.865  0.00  0.00    +0.000 A 
ATOM     21  C   UNL     1       2.458   6.305  18.548  0.00  0.00    +0.000 A 
ATOM     22  C   UNL     1       2.125   6.260  19.916  0.00  0.00    +0.000 A 
ATOM     23  C   UNL     1       1.677   7.422  20.568  0.00  0.00    +0.000 A 
BRANCH  18  25
ATOM     24  C   UNL     1       0.356  10.661  19.532  0.00  0.00    +0.000 C 
ATOM     25  O   UNL     1       1.103   9.814  20.394  0.00  0.00    +0.000 OA
ENDBRANCH  18  25
BRANCH  22  26
ATOM     26  O   UNL     1       2.265   5.041  20.535  0.00  0.00    +0.000 OA
ATOM     27  C   UNL     1       1.106   4.212  20.603  0.00  0.00    +0.000 C 
ENDBRANCH  22  26
ENDBRANCH  17  21
ENDBRANCH   1  17
TORSDOF 6
ENDMDL
MODEL 2
REMARK VINA RESULT:      -7.7      2.366      4.514
REMARK  Name = 
REMARK  8 active torsions:
REMARK  status: ('A' for Active; 'I' for Inactive)
REMARK    1  A    between atoms: C_1  and  O_2
REMARK    2  A    between atoms: O_2  and  C_3
REMARK    3  A    between atoms: C_6  and  C_7
REMARK    4  A    between atoms: C_7  and  N_8
REMARK    5  A    between atoms: C_13  and  C_14
REMARK    6  A    between atoms: C_18  and  C_19
REMARK    7  A    between atoms: C_23  and  O_24
REMARK    8  A    between atoms: O_24  and  C_25
REMARK                            x       y       z     vdW  Elec       q    Type
REMARK                         _______ _______ _______ _____ _____    ______ ____
ROOT
ATOM      1  N   UNL     1       1.190   6.498  20.799  0.00  0.00    +0.000 N 
ATOM      2  C   UNL     1       2.000   5.410  20.476  0.00  0.00    +0.000 A 
ATOM      3  C   UNL     1       1.535   4.155  20.818  0.00  0.00    +0.000 A 
ATOM      4  C   UNL     1       2.320   3.088  20.464  0.00  0.00    +0.000 A 
ATOM      5  N   UNL     1       3.460   3.216  19.770  0.00  0.00    +0.000 NA
ATOM      6  C   UNL     1       3.822   4.473  19.449  0.00  0.00    +0.000 A 
ATOM      7  N   UNL     1       3.135   5.584  19.792  0.00  0.00    +0.000 NA
ATOM      8  H   UNL     1       0.434   6.550  20.121  0.00  0.00    +0.000 HD
ENDROOT
BRANCH   6   9
ATOM      9  C   UNL     1       5.039   4.650  18.635  0.00  0.00    +0.000 A 
ATOM     10  C   UNL     1       6.222   5.188  19.180  0.00  0.00    +0.000 A 
ATOM     11  C   UNL     1       7.375   5.356  18.409  0.00  0.00    +0.000 A 
ATOM     12  C   UNL     1       7.372   4.988  17.066  0.00  0.00    +0.000 A 
ATOM     13  C   UNL     1       6.218   4.446  16.500  0.00  0.00    +0.000 A 
ATOM     14  C   UNL     1       5.066   4.279  17.278  0.00  0.00    +0.000 A 
BRANCH  13  15
ATOM     15  C   UNL     1       6.213   4.062  15.121  0.00  0.00    +0.000 C 
ATOM     16  N   UNL     1       6.205   3.752  14.003  0.00  0.00    +0.000 NA
ENDBRANCH  13  15
ENDBRANCH   6   9
BRANCH   1  17
ATOM     17  C   UNL     1       1.836   7.801  20.964  0.00  0.00    +0.000 C 
BRANCH  17  21
ATOM     18  C   UNL     1      -0.476  10.865  18.911  0.00  0.00    +0.000 A 
ATOM     19  C   UNL     1       0.642  10.306  18.305  0.00  0.00    +0.000 A 
ATOM     20  C   UNL     1       1.380   9.327  18.963  0.00  0.00    +0.000 A 
ATOM     21  C   UNL     1       1.023   8.877  20.250  0.00  0.00    +0.000 A 
ATOM     22  C   UNL     1      -0.125   9.431  20.851  0.00  0.00    +0.000 A 
ATOM     23  C   UNL     1      -0.858  10.426  20.180  0.00  0.00    +0.000 A 
BRANCH  18  25
ATOM     24  C   UNL     1      -2.191  11.376  17.345  0.00  0.00    +0.000 C 
ATOM     25  O   UNL     1      -1.112  11.815  18.159  0.00  0.00    +0.000 OA
ENDBRANCH  18  25
BRANCH  22  26
ATOM     26  O   UNL     1      -0.457   8.940  22.091  0.00  0.00    +0.000 OA
ATOM     27  C   UNL     1      -0.397   9.852  23.186  0.00  0.00    +0.000 C 
ENDBRANCH  22  26
ENDBRANCH  17  21
ENDBRANCH   1  17
TORSDOF 6
ENDMDL
MODEL 3
REMARK VINA RESULT:      -7.7      4.172      8.720
REMARK  Name = 
REMARK  8 active torsions:
REMARK  status: ('A' for Active; 'I' for Inactive)
REMARK    1  A    between atoms: C_1  and  O_2
REMARK    2  A    between atoms: O_2  and  C_3
REMARK    3  A    between atoms: C_6  and  C_7
REMARK    4  A    between atoms: C_7  and  N_8
REMARK    5  A    between atoms: C_13  and  C_14
REMARK    6  A    between atoms: C_18  and  C_19
REMARK    7  A    between atoms: C_23  and  O_24
REMARK    8  A    between atoms: O_24  and  C_25
REMARK                            x       y       z     vdW  Elec       q    Type
REMARK                         _______ _______ _______ _____ _____    ______ ____
ROOT
ATOM      1  N   UNL     1       2.093   8.971  19.168  0.00  0.00    +0.000 N 
ATOM      2  C   UNL     1       0.933   9.655  19.530  0.00  0.00    +0.000 A 
ATOM      3  C   UNL     1       0.905  10.229  20.786  0.00  0.00    +0.000 A 
ATOM      4  C   UNL     1      -0.225  10.932  21.119  0.00  0.00    +0.000 A 
ATOM      5  N   UNL     1      -1.247  11.118  20.273  0.00  0.00    +0.000 NA
ATOM      6  C   UNL     1      -1.123  10.551  19.057  0.00  0.00    +0.000 A 
ATOM      7  N   UNL     1      -0.068   9.809  18.657  0.00  0.00    +0.000 NA
ATOM      8  H   UNL     1       2.803   9.652  18.915  0.00  0.00    +0.000 HD
ENDROOT
BRANCH   6   9
ATOM      9  C   UNL     1      -2.201  10.785  18.078  0.00  0.00    +0.000 A 
ATOM     10  C   UNL     1      -3.392  11.449  18.434  0.00  0.00    +0.000 A 
ATOM     11  C   UNL     1      -4.415  11.670  17.507  0.00  0.00    +0.000 A 
ATOM     12  C   UNL     1      -4.270  11.227  16.196  0.00  0.00    +0.000 A 
ATOM     13  C   UNL     1      -3.100  10.572  15.812  0.00  0.00    +0.000 A 
ATOM     14  C   UNL     1      -2.078  10.355  16.744  0.00  0.00    +0.000 A 
BRANCH  13  15
ATOM     15  C   UNL     1      -2.946  10.119  14.462  0.00  0.00    +0.000 C 
ATOM     16  N   UNL     1      -2.820   9.756  13.368  0.00  0.00    +0.000 NA
ENDBRANCH  13  15
ENDBRANCH   6   9
BRANCH   1  17
ATOM     17  C   UNL     1       1.978   7.930  18.147  0.00  0.00    +0.000 C 
BRANCH  17  21
ATOM     18  C   UNL     1       5.307   5.146  18.494  0.00  0.00    +0.000 A 
ATOM     19  C   UNL     1       5.288   6.094  17.479  0.00  0.00    +0.000 A 
ATOM     20  C   UNL     1       4.223   6.983  17.369  0.00  0.00    +0.000 A 
ATOM     21  C   UNL     1       3.141   6.950  18.272  0.00  0.00    +0.000 A 
ATOM     22  C   UNL     1       3.175   6.001  19.314  0.00  0.00    +0.000 A 
ATOM     23  C   UNL     1       4.253   5.103  19.409  0.00  0.00    +0.000 A 
BRANCH  18  25
ATOM     24  C   UNL     1       7.468   4.692  17.614  0.00  0.00    +0.000 C 
ATOM     25  O   UNL     1       6.408   4.334  18.490  0.00  0.00    +0.000 OA
ENDBRANCH  18  25
BRANCH  22  26
ATOM     26  O   UNL     1       2.118   6.026  20.191  0.00  0.00    +0.000 OA
ATOM     27  C   UNL     1       1.752   4.789  20.799  0.00  0.00    +0.000 C 
ENDBRANCH  22  26
ENDBRANCH  17  21
ENDBRANCH   1  17
TORSDOF 6
ENDMDL
MODEL 4
REMARK VINA RESULT:      -7.6      3.014      4.846
REMARK  Name = 
REMARK  8 active torsions:
REMARK  status: ('A' for Active; 'I' for Inactive)
REMARK    1  A    between atoms: C_1  and  O_2
REMARK    2  A    between atoms: O_2  and  C_3
REMARK    3  A    between atoms: C_6  and  C_7
REMARK    4  A    between atoms: C_7  and  N_8
REMARK    5  A    between atoms: C_13  and  C_14
REMARK    6  A    between atoms: C_18  and  C_19
REMARK    7  A    between atoms: C_23  and  O_24
REMARK    8  A    between atoms: O_24  and  C_25
REMARK                            x       y       z     vdW  Elec       q    Type
REMARK                         _______ _______ _______ _____ _____    ______ ____
ROOT
ATOM      1  N   UNL     1       1.081   6.376  20.865  0.00  0.00    +0.000 N 
ATOM      2  C   UNL     1       1.779   5.305  20.309  0.00  0.00    +0.000 A 
ATOM      3  C   UNL     1       1.324   4.034  20.604  0.00  0.00    +0.000 A 
ATOM      4  C   UNL     1       1.993   2.987  20.023  0.00  0.00    +0.000 A 
ATOM      5  N   UNL     1       3.007   3.154  19.164  0.00  0.00    +0.000 NA
ATOM      6  C   UNL     1       3.365   4.428  18.907  0.00  0.00    +0.000 A 
ATOM      7  N   UNL     1       2.793   5.516  19.464  0.00  0.00    +0.000 NA
ATOM      8  H   UNL     1       0.227   6.516  20.332  0.00  0.00    +0.000 HD
ENDROOT
BRANCH   6   9
ATOM      9  C   UNL     1       4.438   4.652  17.921  0.00  0.00    +0.000 A 
ATOM     10  C   UNL     1       4.653   3.766  16.846  0.00  0.00    +0.000 A 
ATOM     11  C   UNL     1       5.671   3.977  15.912  0.00  0.00    +0.000 A 
ATOM     12  C   UNL     1       6.503   5.086  16.032  0.00  0.00    +0.000 A 
ATOM     13  C   UNL     1       6.311   5.985  17.081  0.00  0.00    +0.000 A 
ATOM     14  C   UNL     1       5.289   5.769  18.014  0.00  0.00    +0.000 A 
BRANCH  13  15
ATOM     15  C   UNL     1       7.163   7.130  17.205  0.00  0.00    +0.000 C 
ATOM     16  N   UNL     1       7.854   8.055  17.308  0.00  0.00    +0.000 NA
ENDBRANCH  13  15
ENDBRANCH   6   9
BRANCH   1  17
ATOM     17  C   UNL     1       1.801   7.637  21.043  0.00  0.00    +0.000 C 
BRANCH  17  21
ATOM     18  C   UNL     1      -0.283  10.832  18.944  0.00  0.00    +0.000 A 
ATOM     19  C   UNL     1       0.785  10.177  18.342  0.00  0.00    +0.000 A 
ATOM     20  C   UNL     1       1.450   9.157  19.015  0.00  0.00    +0.000 A 
ATOM     21  C   UNL     1       1.068   8.760  20.312  0.00  0.00    +0.000 A 
ATOM     22  C   UNL     1      -0.030   9.411  20.909  0.00  0.00    +0.000 A 
ATOM     23  C   UNL     1      -0.689  10.447  20.223  0.00  0.00    +0.000 A 
BRANCH  18  25
ATOM     24  C   UNL     1      -2.137  11.549  17.640  0.00  0.00    +0.000 C 
ATOM     25  O   UNL     1      -0.849  11.814  18.178  0.00  0.00    +0.000 OA
ENDBRANCH  18  25
BRANCH  22  26
ATOM     26  O   UNL     1      -0.390   8.970  22.159  0.00  0.00    +0.000 OA
ATOM     27  C   UNL     1      -0.633   9.965  23.152  0.00  0.00    +0.000 C 
ENDBRANCH  22  26
ENDBRANCH  17  21
ENDBRANCH   1  17
TORSDOF 6
ENDMDL
MODEL 5
REMARK VINA RESULT:      -7.6      2.389      4.824
REMARK  Name = 
REMARK  8 active torsions:
REMARK  status: ('A' for Active; 'I' for Inactive)
REMARK    1  A    between atoms: C_1  and  O_2
REMARK    2  A    between atoms: O_2  and  C_3
REMARK    3  A    between atoms: C_6  and  C_7
REMARK    4  A    between atoms: C_7  and  N_8
REMARK    5  A    between atoms: C_13  and  C_14
REMARK    6  A    between atoms: C_18  and  C_19
REMARK    7  A    between atoms: C_23  and  O_24
REMARK    8  A    between atoms: O_24  and  C_25
REMARK                            x       y       z     vdW  Elec       q    Type
REMARK                         _______ _______ _______ _____ _____    ______ ____
ROOT
ATOM      1  N   UNL     1       1.244   6.652  20.537  0.00  0.00    +0.000 N 
ATOM      2  C   UNL     1       2.110   5.572  20.369  0.00  0.00    +0.000 A 
ATOM      3  C   UNL     1       1.729   4.366  20.924  0.00  0.00    +0.000 A 
ATOM      4  C   UNL     1       2.568   3.300  20.721  0.00  0.00    +0.000 A 
ATOM      5  N   UNL     1       3.682   3.376  19.980  0.00  0.00    +0.000 NA
ATOM      6  C   UNL     1       3.960   4.583  19.449  0.00  0.00    +0.000 A 
ATOM      7  N   UNL     1       3.217   5.695  19.630  0.00  0.00    +0.000 NA
ATOM      8  H   UNL     1       0.471   6.551  19.885  0.00  0.00    +0.000 HD
ENDROOT
BRANCH   6   9
ATOM      9  C   UNL     1       5.147   4.691  18.579  0.00  0.00    +0.000 A 
ATOM     10  C   UNL     1       6.384   5.155  19.068  0.00  0.00    +0.000 A 
ATOM     11  C   UNL     1       7.508   5.259  18.244  0.00  0.00    +0.000 A 
ATOM     12  C   UNL     1       7.420   4.899  16.902  0.00  0.00    +0.000 A 
ATOM     13  C   UNL     1       6.210   4.429  16.390  0.00  0.00    +0.000 A 
ATOM     14  C   UNL     1       5.088   4.326  17.220  0.00  0.00    +0.000 A 
BRANCH  13  15
ATOM     15  C   UNL     1       6.117   4.054  15.011  0.00  0.00    +0.000 C 
ATOM     16  N   UNL     1       6.044   3.753  13.894  0.00  0.00    +0.000 NA
ENDBRANCH  13  15
ENDBRANCH   6   9
BRANCH   1  17
ATOM     17  C   UNL     1       1.814   7.997  20.470  0.00  0.00    +0.000 C 
BRANCH  17  21
ATOM     18  C   UNL     1      -0.838  10.828  22.447  0.00  0.00    +0.000 A 
ATOM     19  C   UNL     1      -0.310   9.752  23.151  0.00  0.00    +0.000 A 
ATOM     20  C   UNL     1       0.537   8.848  22.517  0.00  0.00    +0.000 A 
ATOM     21  C   UNL     1       0.882   8.991  21.158  0.00  0.00    +0.000 A 
ATOM     22  C   UNL     1       0.363  10.097  20.455  0.00  0.00    +0.000 A 
ATOM     23  C   UNL     1      -0.499  10.999  21.103  0.00  0.00    +0.000 A 
BRANCH  18  25
ATOM     24  C   UNL     1      -2.600  12.423  22.470  0.00  0.00    +0.000 C 
ATOM     25  O   UNL     1      -1.655  11.640  23.185  0.00  0.00    +0.000 OA
ENDBRANCH  18  25
BRANCH  22  26
ATOM     26  O   UNL     1       0.751  10.218  19.143  0.00  0.00    +0.000 OA
ATOM     27  C   UNL     1       1.368  11.446  18.760  0.00  0.00    +0.000 C 
ENDBRANCH  22  26
ENDBRANCH  17  21
ENDBRANCH   1  17
TORSDOF 6
ENDMDL
MODEL 6
REMARK VINA RESULT:      -7.5      4.624      9.099
REMARK  Name = 
REMARK  8 active torsions:
REMARK  status: ('A' for Active; 'I' for Inactive)
REMARK    1  A    between atoms: C_1  and  O_2
REMARK    2  A    between atoms: O_2  and  C_3
REMARK    3  A    between atoms: C_6  and  C_7
REMARK    4  A    between atoms: C_7  and  N_8
REMARK    5  A    between atoms: C_13  and  C_14
REMARK    6  A    between atoms: C_18  and  C_19
REMARK    7  A    between atoms: C_23  and  O_24
REMARK    8  A    between atoms: O_24  and  C_25
REMARK                            x       y       z     vdW  Elec       q    Type
REMARK                         _______ _______ _______ _____ _____    ______ ____
ROOT
ATOM      1  N   UNL     1       2.190   9.017  18.783  0.00  0.00    +0.000 N 
ATOM      2  C   UNL     1       0.983   9.647  19.087  0.00  0.00    +0.000 A 
ATOM      3  C   UNL     1       0.885  10.260  20.320  0.00  0.00    +0.000 A 
ATOM      4  C   UNL     1      -0.291  10.910  20.596  0.00  0.00    +0.000 A 
ATOM      5  N   UNL     1      -1.295  11.010  19.715  0.00  0.00    +0.000 NA
ATOM      6  C   UNL     1      -1.103  10.410  18.524  0.00  0.00    +0.000 A 
ATOM      7  N   UNL     1       0.002   9.715  18.181  0.00  0.00    +0.000 NA
ATOM      8  H   UNL     1       2.869   9.728  18.526  0.00  0.00    +0.000 HD
ENDROOT
BRANCH   6   9
ATOM      9  C   UNL     1      -2.162  10.550  17.507  0.00  0.00    +0.000 A 
ATOM     10  C   UNL     1      -2.045   9.966  16.231  0.00  0.00    +0.000 A 
ATOM     11  C   UNL     1      -3.048  10.099  15.267  0.00  0.00    +0.000 A 
ATOM     12  C   UNL     1      -4.198  10.826  15.558  0.00  0.00    +0.000 A 
ATOM     13  C   UNL     1      -4.347  11.411  16.816  0.00  0.00    +0.000 A 
ATOM     14  C   UNL     1      -3.339  11.273  17.779  0.00  0.00    +0.000 A 
BRANCH  13  15
ATOM     15  C   UNL     1      -5.532  12.155  17.121  0.00  0.00    +0.000 C 
ATOM     16  N   UNL     1      -6.490  12.758  17.372  0.00  0.00    +0.000 NA
ENDBRANCH  13  15
ENDBRANCH   6   9
BRANCH   1  17
ATOM     17  C   UNL     1       2.163   7.937  17.796  0.00  0.00    +0.000 C 
BRANCH  17  21
ATOM     18  C   UNL     1       5.485   5.212  18.497  0.00  0.00    +0.000 A 
ATOM     19  C   UNL     1       5.538   6.130  17.455  0.00  0.00    +0.000 A 
ATOM     20  C   UNL     1       4.475   7.000  17.232  0.00  0.00    +0.000 A 
ATOM     21  C   UNL     1       3.324   6.978  18.044  0.00  0.00    +0.000 A 
ATOM     22  C   UNL     1       3.283   6.061  19.114  0.00  0.00    +0.000 A 
ATOM     23  C   UNL     1       4.360   5.181  19.324  0.00  0.00    +0.000 A 
BRANCH  18  25
ATOM     24  C   UNL     1       7.567   4.524  17.580  0.00  0.00    +0.000 C 
ATOM     25  O   UNL     1       6.592   4.417  18.608  0.00  0.00    +0.000 OA
ENDBRANCH  18  25
BRANCH  22  26
ATOM     26  O   UNL     1       2.158   6.096  19.901  0.00  0.00    +0.000 OA
ATOM     27  C   UNL     1       2.011   5.058  20.868  0.00  0.00    +0.000 C 
ENDBRANCH  22  26
ENDBRANCH  17  21
ENDBRANCH   1  17
TORSDOF 6
ENDMDL
MODEL 7
REMARK VINA RESULT:      -7.5      2.079      3.921
REMARK  Name = 
REMARK  8 active torsions:
REMARK  status: ('A' for Active; 'I' for Inactive)
REMARK    1  A    between atoms: C_1  and  O_2
REMARK    2  A    between atoms: O_2  and  C_3
REMARK    3  A    between atoms: C_6  and  C_7
REMARK    4  A    between atoms: C_7  and  N_8
REMARK    5  A    between atoms: C_13  and  C_14
REMARK    6  A    between atoms: C_18  and  C_19
REMARK    7  A    between atoms: C_23  and  O_24
REMARK    8  A    between atoms: O_24  and  C_25
REMARK                            x       y       z     vdW  Elec       q    Type
REMARK                         _______ _______ _______ _____ _____    ______ ____
ROOT
ATOM      1  N   UNL     1       1.282   5.765  20.345  0.00  0.00    +0.000 N 
ATOM      2  C   UNL     1       1.961   4.718  19.723  0.00  0.00    +0.000 A 
ATOM      3  C   UNL     1       1.348   3.479  19.725  0.00  0.00    +0.000 A 
ATOM      4  C   UNL     1       2.006   2.464  19.078  0.00  0.00    +0.000 A 
ATOM      5  N   UNL     1       3.160   2.642  18.421  0.00  0.00    +0.000 NA
ATOM      6  C   UNL     1       3.671   3.888  18.443  0.00  0.00    +0.000 A 
ATOM      7  N   UNL     1       3.116   4.937  19.087  0.00  0.00    +0.000 NA
ATOM      8  H   UNL     1       0.545   6.085  19.723  0.00  0.00    +0.000 HD
ENDROOT
BRANCH   6   9
ATOM      9  C   UNL     1       4.909   4.135  17.680  0.00  0.00    +0.000 A 
ATOM     10  C   UNL     1       6.080   4.610  18.304  0.00  0.00    +0.000 A 
ATOM     11  C   UNL     1       7.253   4.845  17.582  0.00  0.00    +0.000 A 
ATOM     12  C   UNL     1       7.282   4.610  16.210  0.00  0.00    +0.000 A 
ATOM     13  C   UNL     1       6.141   4.133  15.565  0.00  0.00    +0.000 A 
ATOM     14  C   UNL     1       4.968   3.898  16.294  0.00  0.00    +0.000 A 
BRANCH  13  15
ATOM     15  C   UNL     1       6.169   3.886  14.155  0.00  0.00    +0.000 C 
ATOM     16  N   UNL     1       6.189   3.683  13.014  0.00  0.00    +0.000 NA
ENDBRANCH  13  15
ENDBRANCH   6   9
BRANCH   1  17
ATOM     17  C   UNL     1       2.074   6.889  20.842  0.00  0.00    +0.000 C 
BRANCH  17  21
ATOM     18  C   UNL     1       0.621  10.599  19.086  0.00  0.00    +0.000 A 
ATOM     19  C   UNL     1       1.305   9.674  18.307  0.00  0.00    +0.000 A 
ATOM     20  C   UNL     1       1.770   8.489  18.869  0.00  0.00    +0.000 A 
ATOM     21  C   UNL     1       1.565   8.193  20.232  0.00  0.00    +0.000 A 
ATOM     22  C   UNL     1       0.851   9.122  21.014  0.00  0.00    +0.000 A 
ATOM     23  C   UNL     1       0.394  10.320  20.436  0.00  0.00    +0.000 A 
BRANCH  18  25
ATOM     24  C   UNL     1      -1.151  12.081  18.524  0.00  0.00    +0.000 C 
ATOM     25  O   UNL     1       0.219  11.720  18.413  0.00  0.00    +0.000 OA
ENDBRANCH  18  25
BRANCH  22  26
ATOM     26  O   UNL     1       0.644   8.778  22.327  0.00  0.00    +0.000 OA
ATOM     27  C   UNL     1      -0.185   9.644  23.101  0.00  0.00    +0.000 C 
ENDBRANCH  22  26
ENDBRANCH  17  21
ENDBRANCH   1  17
TORSDOF 6
ENDMDL
MODEL 8
REMARK VINA RESULT:      -7.5      2.989      5.127
REMARK  Name = 
REMARK  8 active torsions:
REMARK  status: ('A' for Active; 'I' for Inactive)
REMARK    1  A    between atoms: C_1  and  O_2
REMARK    2  A    between atoms: O_2  and  C_3
REMARK    3  A    between atoms: C_6  and  C_7
REMARK    4  A    between atoms: C_7  and  N_8
REMARK    5  A    between atoms: C_13  and  C_14
REMARK    6  A    between atoms: C_18  and  C_19
REMARK    7  A    between atoms: C_23  and  O_24
REMARK    8  A    between atoms: O_24  and  C_25
REMARK                            x       y       z     vdW  Elec       q    Type
REMARK                         _______ _______ _______ _____ _____    ______ ____
ROOT
ATOM      1  N   UNL     1       1.048   6.475  20.871  0.00  0.00    +0.000 N 
ATOM      2  C   UNL     1       1.698   5.408  20.252  0.00  0.00    +0.000 A 
ATOM      3  C   UNL     1       1.177   4.145  20.461  0.00  0.00    +0.000 A 
ATOM      4  C   UNL     1       1.800   3.106  19.819  0.00  0.00    +0.000 A 
ATOM      5  N   UNL     1       2.831   3.276  18.980  0.00  0.00    +0.000 NA
ATOM      6  C   UNL     1       3.254   4.544  18.809  0.00  0.00    +0.000 A 
ATOM      7  N   UNL     1       2.731   5.622  19.430  0.00  0.00    +0.000 NA
ATOM      8  H   UNL     1       0.208   6.691  20.341  0.00  0.00    +0.000 HD
ENDROOT
BRANCH   6   9
ATOM      9  C   UNL     1       4.349   4.777  17.848  0.00  0.00    +0.000 A 
ATOM     10  C   UNL     1       4.564   3.920  16.750  0.00  0.00    +0.000 A 
ATOM     11  C   UNL     1       5.601   4.140  15.839  0.00  0.00    +0.000 A 
ATOM     12  C   UNL     1       6.453   5.228  16.007  0.00  0.00    +0.000 A 
ATOM     13  C   UNL     1       6.261   6.098  17.080  0.00  0.00    +0.000 A 
ATOM     14  C   UNL     1       5.219   5.874  17.989  0.00  0.00    +0.000 A 
BRANCH  13  15
ATOM     15  C   UNL     1       7.132   7.221  17.254  0.00  0.00    +0.000 C 
ATOM     16  N   UNL     1       7.835   8.132  17.395  0.00  0.00    +0.000 NA
ENDBRANCH  13  15
ENDBRANCH   6   9
BRANCH   1  17
ATOM     17  C   UNL     1       1.827   7.684  21.135  0.00  0.00    +0.000 C 
BRANCH  17  21
ATOM     18  C   UNL     1      -0.839  11.088  21.648  0.00  0.00    +0.000 A 
ATOM     19  C   UNL     1      -0.405  10.364  22.752  0.00  0.00    +0.000 A 
ATOM     20  C   UNL     1       0.447   9.276  22.586  0.00  0.00    +0.000 A 
ATOM     21  C   UNL     1       0.890   8.877  21.309  0.00  0.00    +0.000 A 
ATOM     22  C   UNL     1       0.466   9.628  20.195  0.00  0.00    +0.000 A 
ATOM     23  C   UNL     1      -0.401  10.720  20.374  0.00  0.00    +0.000 A 
BRANCH  18  25
ATOM     24  C   UNL     1      -1.317  12.939  23.061  0.00  0.00    +0.000 C 
ATOM     25  O   UNL     1      -1.671  12.131  21.947  0.00  0.00    +0.000 OA
ENDBRANCH  18  25
BRANCH  22  26
ATOM     26  O   UNL     1       0.950   9.226  18.973  0.00  0.00    +0.000 OA
ATOM     27  C   UNL     1       1.644  10.202  18.199  0.00  0.00    +0.000 C 
ENDBRANCH  22  26
ENDBRANCH  17  21
ENDBRANCH   1  17
TORSDOF 6
ENDMDL
MODEL 9
REMARK VINA RESULT:      -7.4      3.651      7.565
REMARK  Name = 
REMARK  8 active torsions:
REMARK  status: ('A' for Active; 'I' for Inactive)
REMARK    1  A    between atoms: C_1  and  O_2
REMARK    2  A    between atoms: O_2  and  C_3
REMARK    3  A    between atoms: C_6  and  C_7
REMARK    4  A    between atoms: C_7  and  N_8
REMARK    5  A    between atoms: C_13  and  C_14
REMARK    6  A    between atoms: C_18  and  C_19
REMARK    7  A    between atoms: C_23  and  O_24
REMARK    8  A    between atoms: O_24  and  C_25
REMARK                            x       y       z     vdW  Elec       q    Type
REMARK                         _______ _______ _______ _____ _____    ______ ____
ROOT
ATOM      1  N   UNL     1       5.615   3.629  18.661  0.00  0.00    +0.000 N 
ATOM      2  C   UNL     1       4.399   3.954  19.261  0.00  0.00    +0.000 A 
ATOM      3  C   UNL     1       3.801   2.983  20.040  0.00  0.00    +0.000 A 
ATOM      4  C   UNL     1       2.624   3.323  20.657  0.00  0.00    +0.000 A 
ATOM      5  N   UNL     1       2.082   4.545  20.574  0.00  0.00    +0.000 NA
ATOM      6  C   UNL     1       2.748   5.441  19.819  0.00  0.00    +0.000 A 
ATOM      7  N   UNL     1       3.887   5.183  19.143  0.00  0.00    +0.000 NA
ATOM      8  H   UNL     1       6.347   3.687  19.364  0.00  0.00    +0.000 HD
ENDROOT
BRANCH   6   9
ATOM      9  C   UNL     1       2.212   6.814  19.752  0.00  0.00    +0.000 A 
ATOM     10  C   UNL     1       2.184   7.539  18.544  0.00  0.00    +0.000 A 
ATOM     11  C   UNL     1       1.677   8.840  18.480  0.00  0.00    +0.000 A 
ATOM     12  C   UNL     1       1.185   9.450  19.630  0.00  0.00    +0.000 A 
ATOM     13  C   UNL     1       1.192   8.755  20.840  0.00  0.00    +0.000 A 
ATOM     14  C   UNL     1       1.700   7.451  20.898  0.00  0.00    +0.000 A 
BRANCH  13  15
ATOM     15  C   UNL     1       0.682   9.378  22.024  0.00  0.00    +0.000 C 
ATOM     16  N   UNL     1       0.267   9.879  22.983  0.00  0.00    +0.000 NA
ENDBRANCH  13  15
ENDBRANCH   6   9
BRANCH   1  17
ATOM     17  C   UNL     1       5.992   4.359  17.450  0.00  0.00    +0.000 C 
BRANCH  17  21
ATOM     18  C   UNL     1       8.264   7.914  18.524  0.00  0.00    +0.000 A 
ATOM     19  C   UNL     1       8.321   6.778  19.321  0.00  0.00    +0.000 A 
ATOM     20  C   UNL     1       7.593   5.642  18.977  0.00  0.00    +0.000 A 
ATOM     21  C   UNL     1       6.785   5.609  17.823  0.00  0.00    +0.000 A 
ATOM     22  C   UNL     1       6.748   6.756  17.005  0.00  0.00    +0.000 A 
ATOM     23  C   UNL     1       7.480   7.900  17.368  0.00  0.00    +0.000 A 
BRANCH  18  25
ATOM     24  C   UNL     1       8.971  10.163  18.220  0.00  0.00    +0.000 C 
ATOM     25  O   UNL     1       9.024   8.959  18.973  0.00  0.00    +0.000 OA
ENDBRANCH  18  25
BRANCH  22  26
ATOM     26  O   UNL     1       5.975   6.668  15.873  0.00  0.00    +0.000 OA
ATOM     27  C   UNL     1       4.586   6.964  16.013  0.00  0.00    +0.000 C 
ENDBRANCH  22  26
ENDBRANCH  17  21
ENDBRANCH   1  17
TORSDOF 6
ENDMDL
