MODEL 1
REMARK VINA RESULT:      -7.8      0.000      0.000
REMARK  Name = 
REMARK  8 active torsions:
REMARK  status: ('A' for Active; 'I' for Inactive)
REMARK    1  A    between atoms: C_1  and  C_2
REMARK    2  A    between atoms: C_6  and  C_7
REMARK    3  A    between atoms: C_7  and  C_8
REMARK    4  A    between atoms: C_8  and  O_9
REMARK    5  A    between atoms: N_12  and  C_13
REMARK    6  A    between atoms: C_16  and  C_17
REMARK    7  A    between atoms: C_19  and  C_20
REMARK    8  A    between atoms: N_27  and  C_28
REMARK                            x       y       z     vdW  Elec       q    Type
REMARK                         _______ _______ _______ _____ _____    ______ ____
ROOT
ATOM      1  C   UNL     1       0.483  10.666  19.309  0.00  0.00    +0.000 C 
ATOM      2  C   UNL     1       1.513   9.725  18.673  0.00  0.00    +0.000 C 
ATOM      3  O   UNL     1       1.971   9.891  17.545  0.00  0.00    +0.000 OA
ATOM      4  N   UNL     1       1.691   8.639  19.512  0.00  0.00    +0.000 N 
ATOM      5  C   UNL     1       1.208   8.975  20.768  0.00  0.00    +0.000 C 
ATOM      6  O   UNL     1       1.228   8.313  21.794  0.00  0.00    +0.000 OA
ATOM      7  N   UNL     1       0.667  10.262  20.694  0.00  0.00    +0.000 N 
ATOM      8  C   UNL     1      -0.051  10.883  21.787  0.00  0.00    +0.000 C 
ENDROOT
BRANCH   1  14
ATOM      9  C   UNL     1       3.703  14.559  18.860  0.00  0.00    +0.000 C 
ATOM     10  C   UNL     1       2.290  14.053  18.850  0.00  0.00    +0.000 A 
ATOM     11  C   UNL     1       1.214  14.921  18.683  0.00  0.00    +0.000 A 
ATOM     12  C   UNL     1      -0.088  14.426  18.674  0.00  0.00    +0.000 A 
ATOM     13  C   UNL     1      -0.327  13.058  18.848  0.00  0.00    +0.000 A 
ATOM     14  C   UNL     1       0.732  12.156  19.057  0.00  0.00    +0.000 A 
ATOM     15  C   UNL     1       2.040  12.682  19.025  0.00  0.00    +0.000 A 
ENDBRANCH   1  14
BRANCH   4  16
ATOM     16  C   UNL     1       2.208   7.369  19.112  0.00  0.00    +0.000 A 
ATOM     17  C   UNL     1       3.227   7.275  18.152  0.00  0.00    +0.000 A 
ATOM     18  C   UNL     1       3.718   6.043  17.707  0.00  0.00    +0.000 A 
ATOM     19  C   UNL     1       3.202   4.845  18.201  0.00  0.00    +0.000 A 
ATOM     20  C   UNL     1       2.165   4.887  19.141  0.00  0.00    +0.000 A 
ATOM     21  C   UNL     1       1.687   6.152  19.585  0.00  0.00    +0.000 A 
BRANCH  20  22
ATOM     22  C   UNL     1       1.508   3.646  19.703  0.00  0.00    +0.000 C 
ATOM     23  F   UNL     1       2.361   2.733  20.233  0.00  0.00    +0.000 F 
ATOM     24  F   UNL     1       0.624   3.943  20.694  0.00  0.00    +0.000 F 
ATOM     25  F   UNL     1       0.799   2.974  18.755  0.00  0.00    +0.000 F 
ENDBRANCH  20  22
BRANCH  19  26
ATOM     26  C   UNL     1       3.775   3.628  17.706  0.00  0.00    +0.000 C 
ATOM     27  N   UNL     1       4.197   2.634  17.281  0.00  0.00    +0.000 NA
ENDBRANCH  19  26
ENDBRANCH   4  16
BRANCH   1  28
ATOM     28  C   UNL     1      -0.880  10.151  18.723  0.00  0.00    +0.000 C 
BRANCH  28  29
ATOM     29  O   UNL     1      -0.916  10.055  17.293  0.00  0.00    +0.000 OA
ATOM     30  H   UNL     1      -1.365  10.842  16.939  0.00  0.00    +0.000 HD
ENDBRANCH  28  29
ENDBRANCH   1  28
TORSDOF 6
ENDMDL
MODEL 2
REMARK VINA RESULT:      -7.8      3.762      8.115
REMARK  Name = 
REMARK  8 active torsions:
REMARK  status: ('A' for Active; 'I' for Inactive)
REMARK    1  A    between atoms: C_1  and  C_2
REMARK    2  A    between atoms: C_6  and  C_7
REMARK    3  A    between atoms: C_7  and  C_8
REMARK    4  A    between atoms: C_8  and  O_9
REMARK    5  A    between atoms: N_12  and  C_13
REMARK    6  A    between atoms: C_16  and  C_17
REMARK    7  A    between atoms: C_19  and  C_20
REMARK    8  A    between atoms: N_27  and  C_28
REMARK                            x       y       z     vdW  Elec       q    Type
REMARK                         _______ _______ _______ _____ _____    ______ ____
ROOT
ATOM      1  C   UNL     1       4.655   4.829  17.464  0.00  0.00    +0.000 C 
ATOM      2  C   UNL     1       4.136   6.239  17.769  0.00  0.00    +0.000 C 
ATOM      3  O   UNL     1       4.805   7.255  17.600  0.00  0.00    +0.000 OA
ATOM      4  N   UNL     1       2.898   6.126  18.378  0.00  0.00    +0.000 N 
ATOM      5  C   UNL     1       2.404   4.855  18.133  0.00  0.00    +0.000 C 
ATOM      6  O   UNL     1       1.325   4.382  18.452  0.00  0.00    +0.000 OA
ATOM      7  N   UNL     1       3.372   4.146  17.415  0.00  0.00    +0.000 N 
ATOM      8  C   UNL     1       3.253   2.737  17.103  0.00  0.00    +0.000 C 
ENDROOT
BRANCH   1  14
ATOM      9  C   UNL     1       4.954   3.566  12.562  0.00  0.00    +0.000 C 
ATOM     10  C   UNL     1       5.628   4.086  13.798  0.00  0.00    +0.000 A 
ATOM     11  C   UNL     1       6.987   4.395  13.802  0.00  0.00    +0.000 A 
ATOM     12  C   UNL     1       7.588   4.879  14.962  0.00  0.00    +0.000 A 
ATOM     13  C   UNL     1       6.839   5.046  16.132  0.00  0.00    +0.000 A 
ATOM     14  C   UNL     1       5.474   4.710  16.175  0.00  0.00    +0.000 A 
ATOM     15  C   UNL     1       4.886   4.255  14.977  0.00  0.00    +0.000 A 
ENDBRANCH   1  14
BRANCH   4  16
ATOM     16  C   UNL     1       2.288   7.134  19.189  0.00  0.00    +0.000 A 
ATOM     17  C   UNL     1       1.865   6.849  20.495  0.00  0.00    +0.000 A 
ATOM     18  C   UNL     1       1.222   7.802  21.293  0.00  0.00    +0.000 A 
ATOM     19  C   UNL     1       0.968   9.087  20.810  0.00  0.00    +0.000 A 
ATOM     20  C   UNL     1       1.348   9.410  19.502  0.00  0.00    +0.000 A 
ATOM     21  C   UNL     1       2.007   8.426  18.712  0.00  0.00    +0.000 A 
BRANCH  20  22
ATOM     22  C   UNL     1       1.077  10.758  18.871  0.00  0.00    +0.000 C 
ATOM     23  F   UNL     1       1.351  11.827  19.661  0.00  0.00    +0.000 F 
ATOM     24  F   UNL     1       1.803  10.943  17.736  0.00  0.00    +0.000 F 
ATOM     25  F   UNL     1      -0.228  10.896  18.510  0.00  0.00    +0.000 F 
ENDBRANCH  20  22
BRANCH  19  26
ATOM     26  C   UNL     1       0.322  10.007  21.699  0.00  0.00    +0.000 C 
ATOM     27  N   UNL     1      -0.168  10.739  22.453  0.00  0.00    +0.000 NA
ENDBRANCH  19  26
ENDBRANCH   4  16
BRANCH   1  28
ATOM     28  C   UNL     1       5.466   4.461  18.757  0.00  0.00    +0.000 C 
BRANCH  28  29
ATOM     29  O   UNL     1       5.942   5.589  19.505  0.00  0.00    +0.000 OA
ATOM     30  H   UNL     1       5.876   6.383  18.946  0.00  0.00    +0.000 HD
ENDBRANCH  28  29
ENDBRANCH   1  28
TORSDOF 6
ENDMDL
MODEL 3
REMARK VINA RESULT:      -7.6      1.891      2.389
REMARK  Name = 
REMARK  8 active torsions:
REMARK  status: ('A' for Active; 'I' for Inactive)
REMARK    1  A    between atoms: C_1  and  C_2
REMARK    2  A    between atoms: C_6  and  C_7
REMARK    3  A    between atoms: C_7  and  C_8
REMARK    4  A    between atoms: C_8  and  O_9
REMARK    5  A    between atoms: N_12  and  C_13
REMARK    6  A    between atoms: C_16  and  C_17
REMARK    7  A    between atoms: C_19  and  C_20
REMARK    8  A    between atoms: N_27  and  C_28
REMARK                            x       y       z     vdW  Elec       q    Type
REMARK                         _______ _______ _______ _____ _____    ______ ____
ROOT
ATOM      1  C   UNL     1       0.561  10.624  19.246  0.00  0.00    +0.000 C 
ATOM      2  C   UNL     1       1.544   9.653  18.582  0.00  0.00    +0.000 C 
ATOM      3  O   UNL     1       1.966   9.798  17.438  0.00  0.00    +0.000 OA
ATOM      4  N   UNL     1       1.723   8.569  19.424  0.00  0.00    +0.000 N 
ATOM      5  C   UNL     1       1.294   8.926  20.693  0.00  0.00    +0.000 C 
ATOM      6  O   UNL     1       1.334   8.271  21.723  0.00  0.00    +0.000 OA
ATOM      7  N   UNL     1       0.783  10.226  20.627  0.00  0.00    +0.000 N 
ATOM      8  C   UNL     1       0.120  10.873  21.740  0.00  0.00    +0.000 C 
ENDROOT
BRANCH   1  14
ATOM      9  C   UNL     1       3.861  14.395  18.463  0.00  0.00    +0.000 C 
ATOM     10  C   UNL     1       2.436  13.943  18.605  0.00  0.00    +0.000 A 
ATOM     11  C   UNL     1       1.383  14.853  18.557  0.00  0.00    +0.000 A 
ATOM     12  C   UNL     1       0.070  14.408  18.688  0.00  0.00    +0.000 A 
ATOM     13  C   UNL     1      -0.202  13.048  18.882  0.00  0.00    +0.000 A 
ATOM     14  C   UNL     1       0.838  12.106  18.973  0.00  0.00    +0.000 A 
ATOM     15  C   UNL     1       2.155  12.582  18.802  0.00  0.00    +0.000 A 
ENDBRANCH   1  14
BRANCH   4  16
ATOM     16  C   UNL     1       2.195   7.282  19.016  0.00  0.00    +0.000 A 
ATOM     17  C   UNL     1       1.704   6.112  19.613  0.00  0.00    +0.000 A 
ATOM     18  C   UNL     1       2.182   4.844  19.268  0.00  0.00    +0.000 A 
ATOM     19  C   UNL     1       3.184   4.693  18.308  0.00  0.00    +0.000 A 
ATOM     20  C   UNL     1       3.724   5.835  17.702  0.00  0.00    +0.000 A 
ATOM     21  C   UNL     1       3.216   7.114  18.065  0.00  0.00    +0.000 A 
BRANCH  20  22
ATOM     22  C   UNL     1       4.843   5.780  16.686  0.00  0.00    +0.000 C 
ATOM     23  F   UNL     1       4.688   4.849  15.711  0.00  0.00    +0.000 F 
ATOM     24  F   UNL     1       5.000   6.967  16.039  0.00  0.00    +0.000 F 
ATOM     25  F   UNL     1       6.042   5.505  17.265  0.00  0.00    +0.000 F 
ENDBRANCH  20  22
BRANCH  19  26
ATOM     26  C   UNL     1       3.603   3.358  17.999  0.00  0.00    +0.000 C 
ATOM     27  N   UNL     1       3.940   2.266  17.796  0.00  0.00    +0.000 NA
ENDBRANCH  19  26
ENDBRANCH   4  16
BRANCH   1  28
ATOM     28  C   UNL     1      -0.834  10.140  18.713  0.00  0.00    +0.000 C 
BRANCH  28  29
ATOM     29  O   UNL     1      -0.924  10.036  17.285  0.00  0.00    +0.000 OA
ATOM     30  H   UNL     1      -0.124   9.591  16.955  0.00  0.00    +0.000 HD
ENDBRANCH  28  29
ENDBRANCH   1  28
TORSDOF 6
ENDMDL
MODEL 4
REMARK VINA RESULT:      -7.5      1.133      1.264
REMARK  Name = 
REMARK  8 active torsions:
REMARK  status: ('A' for Active; 'I' for Inactive)
REMARK    1  A    between atoms: C_1  and  C_2
REMARK    2  A    between atoms: C_6  and  C_7
REMARK    3  A    between atoms: C_7  and  C_8
REMARK    4  A    between atoms: C_8  and  O_9
REMARK    5  A    between atoms: N_12  and  C_13
REMARK    6  A    between atoms: C_16  and  C_17
REMARK    7  A    between atoms: C_19  and  C_20
REMARK    8  A    between atoms: N_27  and  C_28
REMARK                            x       y       z     vdW  Elec       q    Type
REMARK                         _______ _______ _______ _____ _____    ______ ____
ROOT
ATOM      1  C   UNL     1       0.413  10.348  19.245  0.00  0.00    +0.000 C 
ATOM      2  C   UNL     1       1.600   9.721  18.506  0.00  0.00    +0.000 C 
ATOM      3  O   UNL     1       2.074  10.188  17.473  0.00  0.00    +0.000 OA
ATOM      4  N   UNL     1       1.907   8.516  19.114  0.00  0.00    +0.000 N 
ATOM      5  C   UNL     1       1.327   8.502  20.373  0.00  0.00    +0.000 C 
ATOM      6  O   UNL     1       1.406   7.645  21.239  0.00  0.00    +0.000 OA
ATOM      7  N   UNL     1       0.598   9.686  20.526  0.00  0.00    +0.000 N 
ATOM      8  C   UNL     1      -0.251   9.951  21.669  0.00  0.00    +0.000 C 
ENDROOT
BRANCH   1  14
ATOM      9  C   UNL     1       2.804  14.628  20.542  0.00  0.00    +0.000 C 
ATOM     10  C   UNL     1       1.592  13.959  19.963  0.00  0.00    +0.000 A 
ATOM     11  C   UNL     1       0.480  14.699  19.566  0.00  0.00    +0.000 A 
ATOM     12  C   UNL     1      -0.632  14.054  19.029  0.00  0.00    +0.000 A 
ATOM     13  C   UNL     1      -0.648  12.660  18.899  0.00  0.00    +0.000 A 
ATOM     14  C   UNL     1       0.440  11.878  19.324  0.00  0.00    +0.000 A 
ATOM     15  C   UNL     1       1.565  12.562  19.831  0.00  0.00    +0.000 A 
ENDBRANCH   1  14
BRANCH   4  16
ATOM     16  C   UNL     1       2.630   7.447  18.499  0.00  0.00    +0.000 A 
ATOM     17  C   UNL     1       3.809   7.693  17.781  0.00  0.00    +0.000 A 
ATOM     18  C   UNL     1       4.510   6.673  17.129  0.00  0.00    +0.000 A 
ATOM     19  C   UNL     1       4.052   5.355  17.162  0.00  0.00    +0.000 A 
ATOM     20  C   UNL     1       2.864   5.064  17.844  0.00  0.00    +0.000 A 
ATOM     21  C   UNL     1       2.172   6.118  18.506  0.00  0.00    +0.000 A 
BRANCH  20  22
ATOM     22  C   UNL     1       2.261   3.678  17.900  0.00  0.00    +0.000 C 
ATOM     23  F   UNL     1       2.942   2.785  18.660  0.00  0.00    +0.000 F 
ATOM     24  F   UNL     1       0.994   3.694  18.397  0.00  0.00    +0.000 F 
ATOM     25  F   UNL     1       2.173   3.113  16.665  0.00  0.00    +0.000 F 
ENDBRANCH  20  22
BRANCH  19  26
ATOM     26  C   UNL     1       4.839   4.368  16.484  0.00  0.00    +0.000 C 
ATOM     27  N   UNL     1       5.516   3.598  15.941  0.00  0.00    +0.000 NA
ENDBRANCH  19  26
ENDBRANCH   4  16
BRANCH   1  28
ATOM     28  C   UNL     1      -0.830   9.784  18.468  0.00  0.00    +0.000 C 
BRANCH  28  29
ATOM     29  O   UNL     1      -0.651   9.685  17.048  0.00  0.00    +0.000 OA
ATOM     30  H   UNL     1       0.017  10.337  16.772  0.00  0.00    +0.000 HD
ENDBRANCH  28  29
ENDBRANCH   1  28
TORSDOF 6
ENDMDL
MODEL 5
REMARK VINA RESULT:      -7.4      0.448      1.243
REMARK  Name = 
REMARK  8 active torsions:
REMARK  status: ('A' for Active; 'I' for Inactive)
REMARK    1  A    between atoms: C_1  and  C_2
REMARK    2  A    between atoms: C_6  and  C_7
REMARK    3  A    between atoms: C_7  and  C_8
REMARK    4  A    between atoms: C_8  and  O_9
REMARK    5  A    between atoms: N_12  and  C_13
REMARK    6  A    between atoms: C_16  and  C_17
REMARK    7  A    between atoms: C_19  and  C_20
REMARK    8  A    between atoms: N_27  and  C_28
REMARK                            x       y       z     vdW  Elec       q    Type
REMARK                         _______ _______ _______ _____ _____    ______ ____
ROOT
ATOM      1  C   UNL     1       0.699  10.562  19.254  0.00  0.00    +0.000 C 
ATOM      2  C   UNL     1       1.668   9.556  18.623  0.00  0.00    +0.000 C 
ATOM      3  O   UNL     1       2.135   9.686  17.495  0.00  0.00    +0.000 OA
ATOM      4  N   UNL     1       1.779   8.466  19.470  0.00  0.00    +0.000 N 
ATOM      5  C   UNL     1       1.319   8.838  20.724  0.00  0.00    +0.000 C 
ATOM      6  O   UNL     1       1.300   8.182  21.753  0.00  0.00    +0.000 OA
ATOM      7  N   UNL     1       0.859  10.156  20.642  0.00  0.00    +0.000 N 
ATOM      8  C   UNL     1       0.182  10.827  21.732  0.00  0.00    +0.000 C 
ENDROOT
BRANCH   1  14
ATOM      9  C   UNL     1      -0.679  15.443  19.235  0.00  0.00    +0.000 C 
ATOM     10  C   UNL     1       0.371  14.403  18.971  0.00  0.00    +0.000 A 
ATOM     11  C   UNL     1       1.610  14.749  18.436  0.00  0.00    +0.000 A 
ATOM     12  C   UNL     1       2.568  13.766  18.202  0.00  0.00    +0.000 A 
ATOM     13  C   UNL     1       2.292  12.424  18.488  0.00  0.00    +0.000 A 
ATOM     14  C   UNL     1       1.039  12.033  18.993  0.00  0.00    +0.000 A 
ATOM     15  C   UNL     1       0.102  13.055  19.252  0.00  0.00    +0.000 A 
ENDBRANCH   1  14
BRANCH   4  16
ATOM     16  C   UNL     1       2.217   7.163  19.076  0.00  0.00    +0.000 A 
ATOM     17  C   UNL     1       3.181   6.999  18.071  0.00  0.00    +0.000 A 
ATOM     18  C   UNL     1       3.592   5.736  17.633  0.00  0.00    +0.000 A 
ATOM     19  C   UNL     1       3.046   4.575  18.182  0.00  0.00    +0.000 A 
ATOM     20  C   UNL     1       2.060   4.688  19.171  0.00  0.00    +0.000 A 
ATOM     21  C   UNL     1       1.664   5.984  19.605  0.00  0.00    +0.000 A 
BRANCH  20  22
ATOM     22  C   UNL     1       1.375   3.492  19.795  0.00  0.00    +0.000 C 
ATOM     23  F   UNL     1       2.210   2.560  20.320  0.00  0.00    +0.000 F 
ATOM     24  F   UNL     1       0.544   3.855  20.809  0.00  0.00    +0.000 F 
ATOM     25  F   UNL     1       0.603   2.824  18.896  0.00  0.00    +0.000 F 
ENDBRANCH  20  22
BRANCH  19  26
ATOM     26  C   UNL     1       3.537   3.321  17.691  0.00  0.00    +0.000 C 
ATOM     27  N   UNL     1       3.969   2.308  17.327  0.00  0.00    +0.000 NA
ENDBRANCH  19  26
ENDBRANCH   4  16
BRANCH   1  28
ATOM     28  C   UNL     1      -0.693  10.129  18.672  0.00  0.00    +0.000 C 
BRANCH  28  29
ATOM     29  O   UNL     1      -0.826  10.298  17.254  0.00  0.00    +0.000 OA
ATOM     30  H   UNL     1      -1.773  10.304  17.029  0.00  0.00    +0.000 HD
ENDBRANCH  28  29
ENDBRANCH   1  28
TORSDOF 6
ENDMDL
MODEL 6
REMARK VINA RESULT:      -7.4      2.299      3.783
REMARK  Name = 
REMARK  8 active torsions:
REMARK  status: ('A' for Active; 'I' for Inactive)
REMARK    1  A    between atoms: C_1  and  C_2
REMARK    2  A    between atoms: C_6  and  C_7
REMARK    3  A    between atoms: C_7  and  C_8
REMARK    4  A    between atoms: C_8  and  O_9
REMARK    5  A    between atoms: N_12  and  C_13
REMARK    6  A    between atoms: C_16  and  C_17
REMARK    7  A    between atoms: C_19  and  C_20
REMARK    8  A    between atoms: N_27  and  C_28
REMARK                            x       y       z     vdW  Elec       q    Type
REMARK                         _______ _______ _______ _____ _____    ______ ____
ROOT
ATOM      1  C   UNL     1      -0.211  12.212  20.306  0.00  0.00    +0.000 C 
ATOM      2  C   UNL     1       0.663  10.973  20.532  0.00  0.00    +0.000 C 
ATOM      3  O   UNL     1       1.478  10.881  21.446  0.00  0.00    +0.000 OA
ATOM      4  N   UNL     1       0.469  10.102  19.475  0.00  0.00    +0.000 N 
ATOM      5  C   UNL     1      -0.704  10.456  18.826  0.00  0.00    +0.000 C 
ATOM      6  O   UNL     1      -1.249   9.906  17.882  0.00  0.00    +0.000 OA
ATOM      7  N   UNL     1      -1.214  11.599  19.450  0.00  0.00    +0.000 N 
ATOM      8  C   UNL     1      -2.361  12.329  18.950  0.00  0.00    +0.000 C 
ENDROOT
BRANCH   1  14
ATOM      9  C   UNL     1      -3.680  12.239  24.006  0.00  0.00    +0.000 C 
ATOM     10  C   UNL     1      -2.470  12.864  23.374  0.00  0.00    +0.000 A 
ATOM     11  C   UNL     1      -1.907  14.029  23.891  0.00  0.00    +0.000 A 
ATOM     12  C   UNL     1      -0.783  14.588  23.288  0.00  0.00    +0.000 A 
ATOM     13  C   UNL     1      -0.218  13.994  22.154  0.00  0.00    +0.000 A 
ATOM     14  C   UNL     1      -0.780  12.839  21.582  0.00  0.00    +0.000 A 
ATOM     15  C   UNL     1      -1.897  12.277  22.235  0.00  0.00    +0.000 A 
ENDBRANCH   1  14
BRANCH   4  16
ATOM     16  C   UNL     1       1.379   9.071  19.083  0.00  0.00    +0.000 A 
ATOM     17  C   UNL     1       2.201   9.225  17.957  0.00  0.00    +0.000 A 
ATOM     18  C   UNL     1       3.065   8.214  17.523  0.00  0.00    +0.000 A 
ATOM     19  C   UNL     1       3.138   6.995  18.199  0.00  0.00    +0.000 A 
ATOM     20  C   UNL     1       2.317   6.785  19.314  0.00  0.00    +0.000 A 
ATOM     21  C   UNL     1       1.451   7.831  19.741  0.00  0.00    +0.000 A 
BRANCH  20  22
ATOM     22  C   UNL     1       2.289   5.484  20.086  0.00  0.00    +0.000 C 
ATOM     23  F   UNL     1       3.505   5.008  20.455  0.00  0.00    +0.000 F 
ATOM     24  F   UNL     1       1.571   5.592  21.237  0.00  0.00    +0.000 F 
ATOM     25  F   UNL     1       1.707   4.483  19.372  0.00  0.00    +0.000 F 
ENDBRANCH  20  22
BRANCH  19  26
ATOM     26  C   UNL     1       4.063   6.021  17.700  0.00  0.00    +0.000 C 
ATOM     27  N   UNL     1       4.848   5.266  17.300  0.00  0.00    +0.000 NA
ENDBRANCH  19  26
ENDBRANCH   4  16
BRANCH   1  28
ATOM     28  C   UNL     1       0.736  13.175  19.504  0.00  0.00    +0.000 C 
BRANCH  28  29
ATOM     29  O   UNL     1       2.136  12.957  19.727  0.00  0.00    +0.000 OA
ATOM     30  H   UNL     1       2.552  13.809  19.944  0.00  0.00    +0.000 HD
ENDBRANCH  28  29
ENDBRANCH   1  28
TORSDOF 6
ENDMDL
MODEL 7
REMARK VINA RESULT:      -7.3      3.337      7.834
REMARK  Name = 
REMARK  8 active torsions:
REMARK  status: ('A' for Active; 'I' for Inactive)
REMARK    1  A    between atoms: C_1  and  C_2
REMARK    2  A    between atoms: C_6  and  C_7
REMARK    3  A    between atoms: C_7  and  C_8
REMARK    4  A    between atoms: C_8  and  O_9
REMARK    5  A    between atoms: N_12  and  C_13
REMARK    6  A    between atoms: C_16  and  C_17
REMARK    7  A    between atoms: C_19  and  C_20
REMARK    8  A    between atoms: N_27  and  C_28
REMARK                            x       y       z     vdW  Elec       q    Type
REMARK                         _______ _______ _______ _____ _____    ______ ____
ROOT
ATOM      1  C   UNL     1       4.647   5.463  17.600  0.00  0.00    +0.000 C 
ATOM      2  C   UNL     1       3.933   6.817  17.512  0.00  0.00    +0.000 C 
ATOM      3  O   UNL     1       4.469   7.834  17.081  0.00  0.00    +0.000 OA
ATOM      4  N   UNL     1       2.695   6.699  18.120  0.00  0.00    +0.000 N 
ATOM      5  C   UNL     1       2.384   5.352  18.221  0.00  0.00    +0.000 C 
ATOM      6  O   UNL     1       1.364   4.835  18.648  0.00  0.00    +0.000 OA
ATOM      7  N   UNL     1       3.468   4.620  17.726  0.00  0.00    +0.000 N 
ATOM      8  C   UNL     1       3.549   3.176  17.802  0.00  0.00    +0.000 C 
ENDROOT
BRANCH   1  14
ATOM      9  C   UNL     1       5.132   3.605  12.906  0.00  0.00    +0.000 C 
ATOM     10  C   UNL     1       5.773   4.210  14.121  0.00  0.00    +0.000 A 
ATOM     11  C   UNL     1       7.151   4.400  14.189  0.00  0.00    +0.000 A 
ATOM     12  C   UNL     1       7.722   4.966  15.327  0.00  0.00    +0.000 A 
ATOM     13  C   UNL     1       6.920   5.334  16.414  0.00  0.00    +0.000 A 
ATOM     14  C   UNL     1       5.530   5.122  16.395  0.00  0.00    +0.000 A 
ATOM     15  C   UNL     1       4.977   4.580  15.216  0.00  0.00    +0.000 A 
ENDBRANCH   1  14
BRANCH   4  16
ATOM     16  C   UNL     1       1.923   7.790  18.627  0.00  0.00    +0.000 A 
ATOM     17  C   UNL     1       1.486   8.819  17.780  0.00  0.00    +0.000 A 
ATOM     18  C   UNL     1       0.771   9.922  18.258  0.00  0.00    +0.000 A 
ATOM     19  C   UNL     1       0.468  10.047  19.615  0.00  0.00    +0.000 A 
ATOM     20  C   UNL     1       0.906   9.057  20.504  0.00  0.00    +0.000 A 
ATOM     21  C   UNL     1       1.626   7.940  19.993  0.00  0.00    +0.000 A 
BRANCH  20  22
ATOM     22  C   UNL     1       0.669   9.123  21.996  0.00  0.00    +0.000 C 
ATOM     23  F   UNL     1       0.628  10.376  22.517  0.00  0.00    +0.000 F 
ATOM     24  F   UNL     1      -0.508   8.539  22.349  0.00  0.00    +0.000 F 
ATOM     25  F   UNL     1       1.637   8.469  22.694  0.00  0.00    +0.000 F 
ENDBRANCH  20  22
BRANCH  19  26
ATOM     26  C   UNL     1      -0.284  11.198  20.017  0.00  0.00    +0.000 C 
ATOM     27  N   UNL     1      -0.933  12.111  20.322  0.00  0.00    +0.000 NA
ENDBRANCH  19  26
ENDBRANCH   4  16
BRANCH   1  28
ATOM     28  C   UNL     1       5.442   5.566  18.949  0.00  0.00    +0.000 C 
BRANCH  28  29
ATOM     29  O   UNL     1       6.096   4.355  19.351  0.00  0.00    +0.000 OA
ATOM     30  H   UNL     1       5.633   3.601  18.944  0.00  0.00    +0.000 HD
ENDBRANCH  28  29
ENDBRANCH   1  28
TORSDOF 6
ENDMDL
MODEL 8
REMARK VINA RESULT:      -7.3      1.867      2.619
REMARK  Name = 
REMARK  8 active torsions:
REMARK  status: ('A' for Active; 'I' for Inactive)
REMARK    1  A    between atoms: C_1  and  C_2
REMARK    2  A    between atoms: C_6  and  C_7
REMARK    3  A    between atoms: C_7  and  C_8
REMARK    4  A    between atoms: C_8  and  O_9
REMARK    5  A    between atoms: N_12  and  C_13
REMARK    6  A    between atoms: C_16  and  C_17
REMARK    7  A    between atoms: C_19  and  C_20
REMARK    8  A    between atoms: N_27  and  C_28
REMARK                            x       y       z     vdW  Elec       q    Type
REMARK                         _______ _______ _______ _____ _____    ______ ____
ROOT
ATOM      1  C   UNL     1       0.723  10.498  19.258  0.00  0.00    +0.000 C 
ATOM      2  C   UNL     1       1.658   9.470  18.611  0.00  0.00    +0.000 C 
ATOM      3  O   UNL     1       2.104   9.588  17.473  0.00  0.00    +0.000 OA
ATOM      4  N   UNL     1       1.764   8.380  19.457  0.00  0.00    +0.000 N 
ATOM      5  C   UNL     1       1.337   8.764  20.719  0.00  0.00    +0.000 C 
ATOM      6  O   UNL     1       1.325   8.111  21.750  0.00  0.00    +0.000 OA
ATOM      7  N   UNL     1       0.902  10.091  20.643  0.00  0.00    +0.000 N 
ATOM      8  C   UNL     1       0.262  10.778  21.745  0.00  0.00    +0.000 C 
ENDROOT
BRANCH   1  14
ATOM      9  C   UNL     1      -0.594  15.394  19.137  0.00  0.00    +0.000 C 
ATOM     10  C   UNL     1       0.450  14.338  18.915  0.00  0.00    +0.000 A 
ATOM     11  C   UNL     1       1.707  14.662  18.408  0.00  0.00    +0.000 A 
ATOM     12  C   UNL     1       2.659  13.665  18.214  0.00  0.00    +0.000 A 
ATOM     13  C   UNL     1       2.358  12.330  18.510  0.00  0.00    +0.000 A 
ATOM     14  C   UNL     1       1.088  11.960  18.987  0.00  0.00    +0.000 A 
ATOM     15  C   UNL     1       0.157  12.997  19.207  0.00  0.00    +0.000 A 
ENDBRANCH   1  14
BRANCH   4  16
ATOM     16  C   UNL     1       2.167   7.068  19.058  0.00  0.00    +0.000 A 
ATOM     17  C   UNL     1       1.594   5.929  19.643  0.00  0.00    +0.000 A 
ATOM     18  C   UNL     1       2.003   4.634  19.307  0.00  0.00    +0.000 A 
ATOM     19  C   UNL     1       3.016   4.424  18.369  0.00  0.00    +0.000 A 
ATOM     20  C   UNL     1       3.637   5.531  17.777  0.00  0.00    +0.000 A 
ATOM     21  C   UNL     1       3.198   6.839  18.130  0.00  0.00    +0.000 A 
BRANCH  20  22
ATOM     22  C   UNL     1       4.773   5.410  16.786  0.00  0.00    +0.000 C 
ATOM     23  F   UNL     1       4.554   4.544  15.764  0.00  0.00    +0.000 F 
ATOM     24  F   UNL     1       5.066   6.603  16.201  0.00  0.00    +0.000 F 
ATOM     25  F   UNL     1       5.922   4.989  17.381  0.00  0.00    +0.000 F 
ENDBRANCH  20  22
BRANCH  19  26
ATOM     26  C   UNL     1       3.361   3.066  18.068  0.00  0.00    +0.000 C 
ATOM     27  N   UNL     1       3.598   1.962  17.800  0.00  0.00    +0.000 NA
ENDBRANCH  19  26
ENDBRANCH   4  16
BRANCH   1  28
ATOM     28  C   UNL     1      -0.689  10.092  18.706  0.00  0.00    +0.000 C 
BRANCH  28  29
ATOM     29  O   UNL     1      -0.791  10.084  17.276  0.00  0.00    +0.000 OA
ATOM     30  H   UNL     1      -0.162  10.733  16.915  0.00  0.00    +0.000 HD
ENDBRANCH  28  29
ENDBRANCH   1  28
TORSDOF 6
ENDMDL
MODEL 9
REMARK VINA RESULT:      -7.3      0.833      1.626
REMARK  Name = 
REMARK  8 active torsions:
REMARK  status: ('A' for Active; 'I' for Inactive)
REMARK    1  A    between atoms: C_1  and  C_2
REMARK    2  A    between atoms: C_6  and  C_7
REMARK    3  A    between atoms: C_7  and  C_8
REMARK    4  A    between atoms: C_8  and  O_9
REMARK    5  A    between atoms: N_12  and  C_13
REMARK    6  A    between atoms: C_16  and  C_17
REMARK    7  A    between atoms: C_19  and  C_20
REMARK    8  A    between atoms: N_27  and  C_28
REMARK                            x       y       z     vdW  Elec       q    Type
REMARK                         _______ _______ _______ _____ _____    ______ ____
ROOT
ATOM      1  C   UNL     1       0.707  10.537  19.331  0.00  0.00    +0.000 C 
ATOM      2  C   UNL     1       1.650   9.466  18.770  0.00  0.00    +0.000 C 
ATOM      3  O   UNL     1       2.142   9.523  17.646  0.00  0.00    +0.000 OA
ATOM      4  N   UNL     1       1.705   8.417  19.671  0.00  0.00    +0.000 N 
ATOM      5  C   UNL     1       1.236   8.868  20.895  0.00  0.00    +0.000 C 
ATOM      6  O   UNL     1       1.174   8.265  21.955  0.00  0.00    +0.000 OA
ATOM      7  N   UNL     1       0.826  10.195  20.739  0.00  0.00    +0.000 N 
ATOM      8  C   UNL     1       0.154  10.944  21.781  0.00  0.00    +0.000 C 
ENDROOT
BRANCH   1  14
ATOM      9  C   UNL     1      -0.485  15.459  19.057  0.00  0.00    +0.000 C 
ATOM     10  C   UNL     1       0.528  14.370  18.858  0.00  0.00    +0.000 A 
ATOM     11  C   UNL     1       1.786  14.643  18.325  0.00  0.00    +0.000 A 
ATOM     12  C   UNL     1       2.709  13.615  18.153  0.00  0.00    +0.000 A 
ATOM     13  C   UNL     1       2.379  12.300  18.499  0.00  0.00    +0.000 A 
ATOM     14  C   UNL     1       1.106  11.980  19.004  0.00  0.00    +0.000 A 
ATOM     15  C   UNL     1       0.204  13.047  19.200  0.00  0.00    +0.000 A 
ENDBRANCH   1  14
BRANCH   4  16
ATOM     16  C   UNL     1       2.102   7.081  19.351  0.00  0.00    +0.000 A 
ATOM     17  C   UNL     1       2.564   6.754  18.068  0.00  0.00    +0.000 A 
ATOM     18  C   UNL     1       2.912   5.446  17.714  0.00  0.00    +0.000 A 
ATOM     19  C   UNL     1       2.806   4.402  18.635  0.00  0.00    +0.000 A 
ATOM     20  C   UNL     1       2.325   4.676  19.921  0.00  0.00    +0.000 A 
ATOM     21  C   UNL     1       1.983   6.016  20.260  0.00  0.00    +0.000 A 
BRANCH  20  22
ATOM     22  C   UNL     1       2.130   3.608  20.975  0.00  0.00    +0.000 C 
ATOM     23  F   UNL     1       0.933   2.969  20.931  0.00  0.00    +0.000 F 
ATOM     24  F   UNL     1       3.072   2.631  20.888  0.00  0.00    +0.000 F 
ATOM     25  F   UNL     1       2.227   4.114  22.234  0.00  0.00    +0.000 F 
ENDBRANCH  20  22
BRANCH  19  26
ATOM     26  C   UNL     1       3.202   3.097  18.197  0.00  0.00    +0.000 C 
ATOM     27  N   UNL     1       3.492   2.044  17.805  0.00  0.00    +0.000 NA
ENDBRANCH  19  26
ENDBRANCH   4  16
BRANCH   1  28
ATOM     28  C   UNL     1      -0.689  10.126  18.743  0.00  0.00    +0.000 C 
BRANCH  28  29
ATOM     29  O   UNL     1      -0.756  10.120  17.310  0.00  0.00    +0.000 OA
ATOM     30  H   UNL     1      -1.653  10.382  17.039  0.00  0.00    +0.000 HD
ENDBRANCH  28  29
ENDBRANCH   1  28
TORSDOF 6
ENDMDL
