MODEL 1
REMARK VINA RESULT:      -9.7      0.000      0.000
REMARK  Name = 
REMARK  7 active torsions:
REMARK  status: ('A' for Active; 'I' for Inactive)
REMARK    1  A    between atoms: C_1  and  O_2
REMARK    2  A    between atoms: O_2  and  C_3
REMARK    3  A    between atoms: C_6  and  C_7
REMARK    4  A    between atoms: N_9  and  C_10
REMARK    5  A    between atoms: C_10  and  C_11
REMARK    6  A    between atoms: C_26  and  O_27
REMARK    7  A    between atoms: O_27  and  C_28
REMARK                            x       y       z     vdW  Elec       q    Type
REMARK                         _______ _______ _______ _____ _____    ______ ____
ROOT
ATOM      1  C   UNL     1       2.377   6.435  19.691  0.00  0.00    +0.000 A 
ATOM      2  N   UNL     1       3.086   6.296  18.602  0.00  0.00    +0.000 NA
ATOM      3  N   UNL     1       2.932   5.077  17.957  0.00  0.00    +0.000 N 
ATOM      4  C   UNL     1       1.633   4.535  18.036  0.00  0.00    +0.000 A 
ATOM      5  O   UNL     1       0.941   4.169  17.101  0.00  0.00    +0.000 OA
ATOM      6  C   UNL     1       1.234   4.313  19.443  0.00  0.00    +0.000 A 
ATOM      7  C   UNL     1       0.871   2.995  19.753  0.00  0.00    +0.000 A 
ATOM      8  C   UNL     1       1.367   2.438  20.922  0.00  0.00    +0.000 A 
ATOM      9  C   UNL     1       2.191   3.212  21.743  0.00  0.00    +0.000 A 
ATOM     10  C   UNL     1       2.422   4.589  21.477  0.00  0.00    +0.000 A 
ATOM     11  C   UNL     1       1.855   5.186  20.348  0.00  0.00    +0.000 A 
ENDROOT
BRANCH   1  15
ATOM     12  C   UNL     1       0.578  10.341  19.987  0.00  0.00    +0.000 A 
ATOM     13  C   UNL     1       1.045   9.824  18.785  0.00  0.00    +0.000 A 
ATOM     14  C   UNL     1       1.672   8.586  18.767  0.00  0.00    +0.000 A 
ATOM     15  C   UNL     1       1.886   7.830  19.944  0.00  0.00    +0.000 A 
ATOM     16  C   UNL     1       1.524   8.400  21.155  0.00  0.00    +0.000 A 
ATOM     17  C   UNL     1       0.896   9.671  21.195  0.00  0.00    +0.000 A 
BRANCH  12  19
ATOM     18  C   UNL     1      -1.065  11.606  18.860  0.00  0.00    +0.000 C 
ATOM     19  O   UNL     1      -0.181  11.482  19.983  0.00  0.00    +0.000 OA
ENDBRANCH  12  19
BRANCH  17  20
ATOM     20  O   UNL     1       0.616  10.102  22.466  0.00  0.00    +0.000 OA
ATOM     21  C   UNL     1      -0.632   9.736  23.046  0.00  0.00    +0.000 C 
ENDBRANCH  17  20
ENDBRANCH   1  15
BRANCH   3  22
ATOM     22  C   UNL     1       4.051   4.162  18.232  0.00  0.00    +0.000 C 
BRANCH  22  23
ATOM     23  C   UNL     1       5.160   4.304  17.233  0.00  0.00    +0.000 A 
ATOM     24  C   UNL     1       4.896   4.228  15.860  0.00  0.00    +0.000 A 
ATOM     25  C   UNL     1       5.930   4.395  14.941  0.00  0.00    +0.000 A 
ATOM     26  C   UNL     1       7.226   4.637  15.389  0.00  0.00    +0.000 A 
ATOM     27  C   UNL     1       7.497   4.708  16.756  0.00  0.00    +0.000 A 
ATOM     28  C   UNL     1       6.468   4.546  17.676  0.00  0.00    +0.000 A 
ENDBRANCH  22  23
ENDBRANCH   3  22
TORSDOF 5
ENDMDL
MODEL 2
REMARK VINA RESULT:      -9.6      0.864      1.157
REMARK  Name = 
REMARK  7 active torsions:
REMARK  status: ('A' for Active; 'I' for Inactive)
REMARK    1  A    between atoms: C_1  and  O_2
REMARK    2  A    between atoms: O_2  and  C_3
REMARK    3  A    between atoms: C_6  and  C_7
REMARK    4  A    between atoms: N_9  and  C_10
REMARK    5  A    between atoms: C_10  and  C_11
REMARK    6  A    between atoms: C_26  and  O_27
REMARK    7  A    between atoms: O_27  and  C_28
REMARK                            x       y       z     vdW  Elec       q    Type
REMARK                         _______ _______ _______ _____ _____    ______ ____
ROOT
ATOM      1  C   UNL     1       2.408   6.500  19.603  0.00  0.00    +0.000 A 
ATOM      2  N   UNL     1       3.102   6.369  18.503  0.00  0.00    +0.000 NA
ATOM      3  N   UNL     1       2.953   5.149  17.860  0.00  0.00    +0.000 N 
ATOM      4  C   UNL     1       1.661   4.591  17.958  0.00  0.00    +0.000 A 
ATOM      5  O   UNL     1       0.959   4.218  17.035  0.00  0.00    +0.000 OA
ATOM      6  C   UNL     1       1.286   4.364  19.371  0.00  0.00    +0.000 A 
ATOM      7  C   UNL     1       0.944   3.042  19.687  0.00  0.00    +0.000 A 
ATOM      8  C   UNL     1       1.464   2.491  20.848  0.00  0.00    +0.000 A 
ATOM      9  C   UNL     1       2.292   3.274  21.656  0.00  0.00    +0.000 A 
ATOM     10  C   UNL     1       2.502   4.653  21.388  0.00  0.00    +0.000 A 
ATOM     11  C   UNL     1       1.911   5.244  20.267  0.00  0.00    +0.000 A 
ENDROOT
BRANCH   1  15
ATOM     12  C   UNL     1       0.578  10.389  19.918  0.00  0.00    +0.000 A 
ATOM     13  C   UNL     1       1.060   9.887  18.716  0.00  0.00    +0.000 A 
ATOM     14  C   UNL     1       1.696   8.654  18.692  0.00  0.00    +0.000 A 
ATOM     15  C   UNL     1       1.904   7.888  19.865  0.00  0.00    +0.000 A 
ATOM     16  C   UNL     1       1.527   8.444  21.077  0.00  0.00    +0.000 A 
ATOM     17  C   UNL     1       0.889   9.710  21.123  0.00  0.00    +0.000 A 
BRANCH  12  19
ATOM     18  C   UNL     1      -1.052  11.662  18.778  0.00  0.00    +0.000 C 
ATOM     19  O   UNL     1      -0.190  11.525  19.918  0.00  0.00    +0.000 OA
ENDBRANCH  12  19
BRANCH  17  20
ATOM     20  O   UNL     1       0.593  10.127  22.396  0.00  0.00    +0.000 OA
ATOM     21  C   UNL     1      -0.586   9.627  23.016  0.00  0.00    +0.000 C 
ENDBRANCH  17  20
ENDBRANCH   1  15
BRANCH   3  22
ATOM     22  C   UNL     1       4.086   4.247  18.117  0.00  0.00    +0.000 C 
BRANCH  22  23
ATOM     23  C   UNL     1       5.397   4.974  18.140  0.00  0.00    +0.000 A 
ATOM     24  C   UNL     1       5.888   5.595  16.985  0.00  0.00    +0.000 A 
ATOM     25  C   UNL     1       7.091   6.296  17.027  0.00  0.00    +0.000 A 
ATOM     26  C   UNL     1       7.806   6.378  18.220  0.00  0.00    +0.000 A 
ATOM     27  C   UNL     1       7.325   5.757  19.373  0.00  0.00    +0.000 A 
ATOM     28  C   UNL     1       6.124   5.060  19.336  0.00  0.00    +0.000 A 
ENDBRANCH  22  23
ENDBRANCH   3  22
TORSDOF 5
ENDMDL
MODEL 3
REMARK VINA RESULT:      -9.3      1.343      2.323
REMARK  Name = 
REMARK  7 active torsions:
REMARK  status: ('A' for Active; 'I' for Inactive)
REMARK    1  A    between atoms: C_1  and  O_2
REMARK    2  A    between atoms: O_2  and  C_3
REMARK    3  A    between atoms: C_6  and  C_7
REMARK    4  A    between atoms: N_9  and  C_10
REMARK    5  A    between atoms: C_10  and  C_11
REMARK    6  A    between atoms: C_26  and  O_27
REMARK    7  A    between atoms: O_27  and  C_28
REMARK                            x       y       z     vdW  Elec       q    Type
REMARK                         _______ _______ _______ _____ _____    ______ ____
ROOT
ATOM      1  C   UNL     1       2.243   6.519  19.729  0.00  0.00    +0.000 A 
ATOM      2  N   UNL     1       2.986   6.496  18.654  0.00  0.00    +0.000 NA
ATOM      3  N   UNL     1       2.957   5.301  17.950  0.00  0.00    +0.000 N 
ATOM      4  C   UNL     1       1.710   4.643  17.968  0.00  0.00    +0.000 A 
ATOM      5  O   UNL     1       1.075   4.263  17.000  0.00  0.00    +0.000 OA
ATOM      6  C   UNL     1       1.301   4.319  19.352  0.00  0.00    +0.000 A 
ATOM      7  C   UNL     1       1.050   2.960  19.591  0.00  0.00    +0.000 A 
ATOM      8  C   UNL     1       1.567   2.394  20.747  0.00  0.00    +0.000 A 
ATOM      9  C   UNL     1       2.300   3.197  21.624  0.00  0.00    +0.000 A 
ATOM     10  C   UNL     1       2.413   4.600  21.429  0.00  0.00    +0.000 A 
ATOM     11  C   UNL     1       1.820   5.198  20.313  0.00  0.00    +0.000 A 
ENDROOT
BRANCH   1  15
ATOM     12  C   UNL     1       0.813  10.356  21.075  0.00  0.00    +0.000 A 
ATOM     13  C   UNL     1       0.848   9.241  21.902  0.00  0.00    +0.000 A 
ATOM     14  C   UNL     1       1.260   8.018  21.391  0.00  0.00    +0.000 A 
ATOM     15  C   UNL     1       1.623   7.851  20.033  0.00  0.00    +0.000 A 
ATOM     16  C   UNL     1       1.475   8.937  19.184  0.00  0.00    +0.000 A 
ATOM     17  C   UNL     1       1.041  10.190  19.685  0.00  0.00    +0.000 A 
BRANCH  12  19
ATOM     18  C   UNL     1      -0.676  11.689  22.332  0.00  0.00    +0.000 C 
ATOM     19  O   UNL     1       0.563  11.591  21.615  0.00  0.00    +0.000 OA
ENDBRANCH  12  19
BRANCH  17  20
ATOM     20  O   UNL     1       0.931  11.157  18.719  0.00  0.00    +0.000 OA
ATOM     21  C   UNL     1       2.048  12.006  18.480  0.00  0.00    +0.000 C 
ENDBRANCH  17  20
ENDBRANCH   1  15
BRANCH   3  22
ATOM     22  C   UNL     1       4.147   4.476  18.212  0.00  0.00    +0.000 C 
BRANCH  22  23
ATOM     23  C   UNL     1       5.409   5.286  18.221  0.00  0.00    +0.000 A 
ATOM     24  C   UNL     1       6.320   5.173  19.278  0.00  0.00    +0.000 A 
ATOM     25  C   UNL     1       7.505   5.905  19.259  0.00  0.00    +0.000 A 
ATOM     26  C   UNL     1       7.782   6.750  18.187  0.00  0.00    +0.000 A 
ATOM     27  C   UNL     1       6.875   6.872  17.134  0.00  0.00    +0.000 A 
ATOM     28  C   UNL     1       5.694   6.141  17.147  0.00  0.00    +0.000 A 
ENDBRANCH  22  23
ENDBRANCH   3  22
TORSDOF 5
ENDMDL
MODEL 4
REMARK VINA RESULT:      -9.3      0.852      1.792
REMARK  Name = 
REMARK  7 active torsions:
REMARK  status: ('A' for Active; 'I' for Inactive)
REMARK    1  A    between atoms: C_1  and  O_2
REMARK    2  A    between atoms: O_2  and  C_3
REMARK    3  A    between atoms: C_6  and  C_7
REMARK    4  A    between atoms: N_9  and  C_10
REMARK    5  A    between atoms: C_10  and  C_11
REMARK    6  A    between atoms: C_26  and  O_27
REMARK    7  A    between atoms: O_27  and  C_28
REMARK                            x       y       z     vdW  Elec       q    Type
REMARK                         _______ _______ _______ _____ _____    ______ ____
ROOT
ATOM      1  C   UNL     1       2.231   6.486  19.772  0.00  0.00    +0.000 A 
ATOM      2  N   UNL     1       2.984   6.432  18.705  0.00  0.00    +0.000 NA
ATOM      3  N   UNL     1       2.942   5.225  18.021  0.00  0.00    +0.000 N 
ATOM      4  C   UNL     1       1.684   4.588  18.038  0.00  0.00    +0.000 A 
ATOM      5  O   UNL     1       1.051   4.202  17.070  0.00  0.00    +0.000 OA
ATOM      6  C   UNL     1       1.256   4.295  19.424  0.00  0.00    +0.000 A 
ATOM      7  C   UNL     1       0.981   2.945  19.684  0.00  0.00    +0.000 A 
ATOM      8  C   UNL     1       1.478   2.390  20.853  0.00  0.00    +0.000 A 
ATOM      9  C   UNL     1       2.216   3.196  21.724  0.00  0.00    +0.000 A 
ATOM     10  C   UNL     1       2.353   4.593  21.506  0.00  0.00    +0.000 A 
ATOM     11  C   UNL     1       1.782   5.182  20.374  0.00  0.00    +0.000 A 
ENDROOT
BRANCH   1  15
ATOM     12  C   UNL     1       0.860  10.372  21.034  0.00  0.00    +0.000 A 
ATOM     13  C   UNL     1       0.884   9.276  21.887  0.00  0.00    +0.000 A 
ATOM     14  C   UNL     1       1.277   8.036  21.403  0.00  0.00    +0.000 A 
ATOM     15  C   UNL     1       1.631   7.832  20.047  0.00  0.00    +0.000 A 
ATOM     16  C   UNL     1       1.492   8.900  19.174  0.00  0.00    +0.000 A 
ATOM     17  C   UNL     1       1.078  10.170  19.647  0.00  0.00    +0.000 A 
BRANCH  12  19
ATOM     18  C   UNL     1      -0.634  11.771  22.210  0.00  0.00    +0.000 C 
ATOM     19  O   UNL     1       0.629  11.622  21.545  0.00  0.00    +0.000 OA
ENDBRANCH  12  19
BRANCH  17  20
ATOM     20  O   UNL     1       0.976  11.116  18.659  0.00  0.00    +0.000 OA
ATOM     21  C   UNL     1       2.086  11.976  18.427  0.00  0.00    +0.000 C 
ENDBRANCH  17  20
ENDBRANCH   1  15
BRANCH   3  22
ATOM     22  C   UNL     1       4.115   4.386  18.308  0.00  0.00    +0.000 C 
BRANCH  22  23
ATOM     23  C   UNL     1       5.138   4.444  17.213  0.00  0.00    +0.000 A 
ATOM     24  C   UNL     1       4.755   4.311  15.873  0.00  0.00    +0.000 A 
ATOM     25  C   UNL     1       5.710   4.401  14.863  0.00  0.00    +0.000 A 
ATOM     26  C   UNL     1       7.046   4.622  15.188  0.00  0.00    +0.000 A 
ATOM     27  C   UNL     1       7.435   4.749  16.522  0.00  0.00    +0.000 A 
ATOM     28  C   UNL     1       6.485   4.664  17.532  0.00  0.00    +0.000 A 
ENDBRANCH  22  23
ENDBRANCH   3  22
TORSDOF 5
ENDMDL
MODEL 5
REMARK VINA RESULT:      -9.2      0.674      1.955
REMARK  Name = 
REMARK  7 active torsions:
REMARK  status: ('A' for Active; 'I' for Inactive)
REMARK    1  A    between atoms: C_1  and  O_2
REMARK    2  A    between atoms: O_2  and  C_3
REMARK    3  A    between atoms: C_6  and  C_7
REMARK    4  A    between atoms: N_9  and  C_10
REMARK    5  A    between atoms: C_10  and  C_11
REMARK    6  A    between atoms: C_26  and  O_27
REMARK    7  A    between atoms: O_27  and  C_28
REMARK                            x       y       z     vdW  Elec       q    Type
REMARK                         _______ _______ _______ _____ _____    ______ ____
ROOT
ATOM      1  C   UNL     1       2.192   6.473  19.896  0.00  0.00    +0.000 A 
ATOM      2  N   UNL     1       2.952   6.470  18.833  0.00  0.00    +0.000 NA
ATOM      3  N   UNL     1       2.945   5.283  18.114  0.00  0.00    +0.000 N 
ATOM      4  C   UNL     1       1.704   4.614  18.104  0.00  0.00    +0.000 A 
ATOM      5  O   UNL     1       1.088   4.240  17.121  0.00  0.00    +0.000 OA
ATOM      6  C   UNL     1       1.276   4.269  19.477  0.00  0.00    +0.000 A 
ATOM      7  C   UNL     1       1.034   2.905  19.696  0.00  0.00    +0.000 A 
ATOM      8  C   UNL     1       1.538   2.329  20.852  0.00  0.00    +0.000 A 
ATOM      9  C   UNL     1       2.249   3.128  21.751  0.00  0.00    +0.000 A 
ATOM     10  C   UNL     1       2.352   4.534  21.574  0.00  0.00    +0.000 A 
ATOM     11  C   UNL     1       1.772   5.141  20.457  0.00  0.00    +0.000 A 
ENDROOT
BRANCH   1  15
ATOM     12  C   UNL     1       0.706  10.280  21.265  0.00  0.00    +0.000 A 
ATOM     13  C   UNL     1       0.739   9.156  22.080  0.00  0.00    +0.000 A 
ATOM     14  C   UNL     1       1.171   7.943  21.561  0.00  0.00    +0.000 A 
ATOM     15  C   UNL     1       1.554   7.795  20.206  0.00  0.00    +0.000 A 
ATOM     16  C   UNL     1       1.408   8.889  19.368  0.00  0.00    +0.000 A 
ATOM     17  C   UNL     1       0.954  10.132  19.877  0.00  0.00    +0.000 A 
BRANCH  12  19
ATOM     18  C   UNL     1      -0.758  11.554  22.610  0.00  0.00    +0.000 C 
ATOM     19  O   UNL     1       0.436  11.506  21.815  0.00  0.00    +0.000 OA
ENDBRANCH  12  19
BRANCH  17  20
ATOM     20  O   UNL     1       0.849  11.110  18.921  0.00  0.00    +0.000 OA
ATOM     21  C   UNL     1      -0.447  11.460  18.450  0.00  0.00    +0.000 C 
ENDBRANCH  17  20
ENDBRANCH   1  15
BRANCH   3  22
ATOM     22  C   UNL     1       4.138   4.467  18.384  0.00  0.00    +0.000 C 
BRANCH  22  23
ATOM     23  C   UNL     1       5.136   4.529  17.266  0.00  0.00    +0.000 A 
ATOM     24  C   UNL     1       6.496   4.719  17.536  0.00  0.00    +0.000 A 
ATOM     25  C   UNL     1       7.418   4.741  16.491  0.00  0.00    +0.000 A 
ATOM     26  C   UNL     1       6.983   4.574  15.178  0.00  0.00    +0.000 A 
ATOM     27  C   UNL     1       5.627   4.391  14.903  0.00  0.00    +0.000 A 
ATOM     28  C   UNL     1       4.706   4.364  15.942  0.00  0.00    +0.000 A 
ENDBRANCH  22  23
ENDBRANCH   3  22
TORSDOF 5
ENDMDL
MODEL 6
REMARK VINA RESULT:      -8.3      1.991      4.485
REMARK  Name = 
REMARK  7 active torsions:
REMARK  status: ('A' for Active; 'I' for Inactive)
REMARK    1  A    between atoms: C_1  and  O_2
REMARK    2  A    between atoms: O_2  and  C_3
REMARK    3  A    between atoms: C_6  and  C_7
REMARK    4  A    between atoms: N_9  and  C_10
REMARK    5  A    between atoms: C_10  and  C_11
REMARK    6  A    between atoms: C_26  and  O_27
REMARK    7  A    between atoms: O_27  and  C_28
REMARK                            x       y       z     vdW  Elec       q    Type
REMARK                         _______ _______ _______ _____ _____    ______ ____
ROOT
ATOM      1  C   UNL     1       3.700   6.092  18.650  0.00  0.00    +0.000 A 
ATOM      2  N   UNL     1       3.800   5.324  19.703  0.00  0.00    +0.000 NA
ATOM      3  N   UNL     1       5.001   4.639  19.814  0.00  0.00    +0.000 N 
ATOM      4  C   UNL     1       6.124   5.348  19.340  0.00  0.00    +0.000 A 
ATOM      5  O   UNL     1       7.155   5.570  19.952  0.00  0.00    +0.000 OA
ATOM      6  C   UNL     1       5.972   5.690  17.909  0.00  0.00    +0.000 A 
ATOM      7  C   UNL     1       6.997   5.219  17.077  0.00  0.00    +0.000 A 
ATOM      8  C   UNL     1       6.643   4.624  15.876  0.00  0.00    +0.000 A 
ATOM      9  C   UNL     1       5.290   4.531  15.540  0.00  0.00    +0.000 A 
ATOM     10  C   UNL     1       4.284   5.147  16.332  0.00  0.00    +0.000 A 
ATOM     11  C   UNL     1       4.637   5.826  17.502  0.00  0.00    +0.000 A 
ENDROOT
BRANCH   1  15
ATOM     12  C   UNL     1       1.151   9.566  18.761  0.00  0.00    +0.000 A 
ATOM     13  C   UNL     1       1.917   9.238  17.650  0.00  0.00    +0.000 A 
ATOM     14  C   UNL     1       2.766   8.141  17.699  0.00  0.00    +0.000 A 
ATOM     15  C   UNL     1       2.909   7.348  18.863  0.00  0.00    +0.000 A 
ATOM     16  C   UNL     1       2.233   7.747  20.006  0.00  0.00    +0.000 A 
ATOM     17  C   UNL     1       1.373   8.874  19.979  0.00  0.00    +0.000 A 
BRANCH  12  19
ATOM     18  C   UNL     1      -0.983  10.157  17.943  0.00  0.00    +0.000 C 
ATOM     19  O   UNL     1       0.198  10.545  18.660  0.00  0.00    +0.000 OA
ENDBRANCH  12  19
BRANCH  17  20
ATOM     20  O   UNL     1       0.790   9.146  21.190  0.00  0.00    +0.000 OA
ATOM     21  C   UNL     1      -0.426   8.485  21.522  0.00  0.00    +0.000 C 
ENDBRANCH  17  20
ENDBRANCH   1  15
BRANCH   3  22
ATOM     22  C   UNL     1       4.877   3.235  19.393  0.00  0.00    +0.000 C 
BRANCH  22  23
ATOM     23  C   UNL     1       3.449   2.783  19.333  0.00  0.00    +0.000 A 
ATOM     24  C   UNL     1       2.653   2.784  20.485  0.00  0.00    +0.000 A 
ATOM     25  C   UNL     1       1.318   2.394  20.410  0.00  0.00    +0.000 A 
ATOM     26  C   UNL     1       0.776   2.002  19.188  0.00  0.00    +0.000 A 
ATOM     27  C   UNL     1       1.565   1.992  18.038  0.00  0.00    +0.000 A 
ATOM     28  C   UNL     1       2.896   2.385  18.108  0.00  0.00    +0.000 A 
ENDBRANCH  22  23
ENDBRANCH   3  22
TORSDOF 5
ENDMDL
MODEL 7
REMARK VINA RESULT:      -8.2      2.014      4.418
REMARK  Name = 
REMARK  7 active torsions:
REMARK  status: ('A' for Active; 'I' for Inactive)
REMARK    1  A    between atoms: C_1  and  O_2
REMARK    2  A    between atoms: O_2  and  C_3
REMARK    3  A    between atoms: C_6  and  C_7
REMARK    4  A    between atoms: N_9  and  C_10
REMARK    5  A    between atoms: C_10  and  C_11
REMARK    6  A    between atoms: C_26  and  O_27
REMARK    7  A    between atoms: O_27  and  C_28
REMARK                            x       y       z     vdW  Elec       q    Type
REMARK                         _______ _______ _______ _____ _____    ______ ____
ROOT
ATOM      1  C   UNL     1       3.749   6.103  18.614  0.00  0.00    +0.000 A 
ATOM      2  N   UNL     1       3.853   5.324  19.658  0.00  0.00    +0.000 NA
ATOM      3  N   UNL     1       5.067   4.663  19.774  0.00  0.00    +0.000 N 
ATOM      4  C   UNL     1       6.180   5.402  19.325  0.00  0.00    +0.000 A 
ATOM      5  O   UNL     1       7.198   5.637  19.953  0.00  0.00    +0.000 OA
ATOM      6  C   UNL     1       6.038   5.760  17.896  0.00  0.00    +0.000 A 
ATOM      7  C   UNL     1       7.084   5.322  17.071  0.00  0.00    +0.000 A 
ATOM      8  C   UNL     1       6.757   4.735  15.858  0.00  0.00    +0.000 A 
ATOM      9  C   UNL     1       5.410   4.619  15.504  0.00  0.00    +0.000 A 
ATOM     10  C   UNL     1       4.382   5.202  16.292  0.00  0.00    +0.000 A 
ATOM     11  C   UNL     1       4.705   5.874  17.474  0.00  0.00    +0.000 A 
ENDROOT
BRANCH   1  15
ATOM     12  C   UNL     1       1.183   9.565  18.703  0.00  0.00    +0.000 A 
ATOM     13  C   UNL     1       2.087   9.333  17.674  0.00  0.00    +0.000 A 
ATOM     14  C   UNL     1       2.930   8.232  17.735  0.00  0.00    +0.000 A 
ATOM     15  C   UNL     1       2.929   7.340  18.833  0.00  0.00    +0.000 A 
ATOM     16  C   UNL     1       2.110   7.640  19.911  0.00  0.00    +0.000 A 
ATOM     17  C   UNL     1       1.252   8.768  19.873  0.00  0.00    +0.000 A 
BRANCH  12  19
ATOM     18  C   UNL     1       0.708  11.869  18.906  0.00  0.00    +0.000 C 
ATOM     19  O   UNL     1       0.244  10.554  18.567  0.00  0.00    +0.000 OA
ENDBRANCH  12  19
BRANCH  17  20
ATOM     20  O   UNL     1       0.518   8.936  21.019  0.00  0.00    +0.000 OA
ATOM     21  C   UNL     1       1.196   9.331  22.207  0.00  0.00    +0.000 C 
ENDBRANCH  17  20
ENDBRANCH   1  15
BRANCH   3  22
ATOM     22  C   UNL     1       4.978   3.262  19.333  0.00  0.00    +0.000 C 
BRANCH  22  23
ATOM     23  C   UNL     1       3.559   2.802  19.185  0.00  0.00    +0.000 A 
ATOM     24  C   UNL     1       3.061   2.422  17.933  0.00  0.00    +0.000 A 
ATOM     25  C   UNL     1       1.751   1.964  17.813  0.00  0.00    +0.000 A 
ATOM     26  C   UNL     1       0.937   1.885  18.941  0.00  0.00    +0.000 A 
ATOM     27  C   UNL     1       1.425   2.268  20.190  0.00  0.00    +0.000 A 
ATOM     28  C   UNL     1       2.732   2.722  20.314  0.00  0.00    +0.000 A 
ENDBRANCH  22  23
ENDBRANCH   3  22
TORSDOF 5
ENDMDL
MODEL 8
REMARK VINA RESULT:      -7.6      2.802      5.875
REMARK  Name = 
REMARK  7 active torsions:
REMARK  status: ('A' for Active; 'I' for Inactive)
REMARK    1  A    between atoms: C_1  and  O_2
REMARK    2  A    between atoms: O_2  and  C_3
REMARK    3  A    between atoms: C_6  and  C_7
REMARK    4  A    between atoms: N_9  and  C_10
REMARK    5  A    between atoms: C_10  and  C_11
REMARK    6  A    between atoms: C_26  and  O_27
REMARK    7  A    between atoms: O_27  and  C_28
REMARK                            x       y       z     vdW  Elec       q    Type
REMARK                         _______ _______ _______ _____ _____    ______ ____
ROOT
ATOM      1  C   UNL     1       4.949   5.391  17.455  0.00  0.00    +0.000 A 
ATOM      2  N   UNL     1       5.386   4.516  16.588  0.00  0.00    +0.000 NA
ATOM      3  N   UNL     1       6.766   4.473  16.447  0.00  0.00    +0.000 N 
ATOM      4  C   UNL     1       7.482   4.718  17.637  0.00  0.00    +0.000 A 
ATOM      5  O   UNL     1       8.347   4.009  18.123  0.00  0.00    +0.000 OA
ATOM      6  C   UNL     1       7.162   6.054  18.184  0.00  0.00    +0.000 A 
ATOM      7  C   UNL     1       8.267   6.899  18.363  0.00  0.00    +0.000 A 
ATOM      8  C   UNL     1       8.155   8.218  17.948  0.00  0.00    +0.000 A 
ATOM      9  C   UNL     1       6.951   8.650  17.385  0.00  0.00    +0.000 A 
ATOM     10  C   UNL     1       5.804   7.812  17.352  0.00  0.00    +0.000 A 
ATOM     11  C   UNL     1       5.878   6.507  17.848  0.00  0.00    +0.000 A 
ENDROOT
BRANCH   1  15
ATOM     12  C   UNL     1       1.686   3.678  19.690  0.00  0.00    +0.000 A 
ATOM     13  C   UNL     1       2.266   3.034  18.605  0.00  0.00    +0.000 A 
ATOM     14  C   UNL     1       3.272   3.666  17.887  0.00  0.00    +0.000 A 
ATOM     15  C   UNL     1       3.717   4.973  18.201  0.00  0.00    +0.000 A 
ATOM     16  C   UNL     1       3.056   5.658  19.209  0.00  0.00    +0.000 A 
ATOM     17  C   UNL     1       2.016   5.034  19.944  0.00  0.00    +0.000 A 
BRANCH  12  19
ATOM     18  C   UNL     1       1.385   2.504  21.716  0.00  0.00    +0.000 C 
ATOM     19  O   UNL     1       0.812   2.995  20.495  0.00  0.00    +0.000 OA
ENDBRANCH  12  19
BRANCH  17  20
ATOM     20  O   UNL     1       1.455   5.846  20.895  0.00  0.00    +0.000 OA
ATOM     21  C   UNL     1       1.563   7.256  20.732  0.00  0.00    +0.000 C 
ENDBRANCH  17  20
ENDBRANCH   1  15
BRANCH   3  22
ATOM     22  C   UNL     1       7.219   5.183  15.241  0.00  0.00    +0.000 C 
BRANCH  22  23
ATOM     23  C   UNL     1       6.711   4.546  13.982  0.00  0.00    +0.000 A 
ATOM     24  C   UNL     1       7.527   4.461  12.848  0.00  0.00    +0.000 A 
ATOM     25  C   UNL     1       7.056   3.838  11.694  0.00  0.00    +0.000 A 
ATOM     26  C   UNL     1       5.771   3.299  11.672  0.00  0.00    +0.000 A 
ATOM     27  C   UNL     1       4.951   3.387  12.797  0.00  0.00    +0.000 A 
ATOM     28  C   UNL     1       5.419   4.004  13.950  0.00  0.00    +0.000 A 
ENDBRANCH  22  23
ENDBRANCH   3  22
TORSDOF 5
ENDMDL
MODEL 9
REMARK VINA RESULT:      -7.6      2.119      4.764
REMARK  Name = 
REMARK  7 active torsions:
REMARK  status: ('A' for Active; 'I' for Inactive)
REMARK    1  A    between atoms: C_1  and  O_2
REMARK    2  A    between atoms: O_2  and  C_3
REMARK    3  A    between atoms: C_6  and  C_7
REMARK    4  A    between atoms: N_9  and  C_10
REMARK    5  A    between atoms: C_10  and  C_11
REMARK    6  A    between atoms: C_26  and  O_27
REMARK    7  A    between atoms: O_27  and  C_28
REMARK                            x       y       z     vdW  Elec       q    Type
REMARK                         _______ _______ _______ _____ _____    ______ ____
ROOT
ATOM      1  C   UNL     1       3.730   6.105  18.521  0.00  0.00    +0.000 A 
ATOM      2  N   UNL     1       3.871   5.341  19.572  0.00  0.00    +0.000 NA
ATOM      3  N   UNL     1       5.124   4.760  19.706  0.00  0.00    +0.000 N 
ATOM      4  C   UNL     1       6.192   5.566  19.262  0.00  0.00    +0.000 A 
ATOM      5  O   UNL     1       7.186   5.870  19.899  0.00  0.00    +0.000 OA
ATOM      6  C   UNL     1       6.044   5.904  17.830  0.00  0.00    +0.000 A 
ATOM      7  C   UNL     1       7.124   5.528  17.019  0.00  0.00    +0.000 A 
ATOM      8  C   UNL     1       6.849   4.914  15.806  0.00  0.00    +0.000 A 
ATOM      9  C   UNL     1       5.516   4.709  15.440  0.00  0.00    +0.000 A 
ATOM     10  C   UNL     1       4.444   5.231  16.212  0.00  0.00    +0.000 A 
ATOM     11  C   UNL     1       4.711   5.929  17.393  0.00  0.00    +0.000 A 
ENDROOT
BRANCH   1  15
ATOM     12  C   UNL     1       1.351   9.516  19.653  0.00  0.00    +0.000 A 
ATOM     13  C   UNL     1       1.360   8.337  20.386  0.00  0.00    +0.000 A 
ATOM     14  C   UNL     1       2.098   7.252  19.935  0.00  0.00    +0.000 A 
ATOM     15  C   UNL     1       2.829   7.288  18.723  0.00  0.00    +0.000 A 
ATOM     16  C   UNL     1       2.723   8.423  17.935  0.00  0.00    +0.000 A 
ATOM     17  C   UNL     1       1.961   9.536  18.373  0.00  0.00    +0.000 A 
BRANCH  12  19
ATOM     18  C   UNL     1      -0.642  10.761  19.882  0.00  0.00    +0.000 C 
ATOM     19  O   UNL     1       0.757  10.634  20.177  0.00  0.00    +0.000 OA
ENDBRANCH  12  19
BRANCH  17  20
ATOM     20  O   UNL     1       1.944  10.574  17.477  0.00  0.00    +0.000 OA
ATOM     21  C   UNL     1       2.545  11.807  17.855  0.00  0.00    +0.000 C 
ENDBRANCH  17  20
ENDBRANCH   1  15
BRANCH   3  22
ATOM     22  C   UNL     1       5.130   3.354  19.274  0.00  0.00    +0.000 C 
BRANCH  22  23
ATOM     23  C   UNL     1       3.745   2.794  19.139  0.00  0.00    +0.000 A 
ATOM     24  C   UNL     1       2.894   2.724  20.248  0.00  0.00    +0.000 A 
ATOM     25  C   UNL     1       1.598   2.234  20.102  0.00  0.00    +0.000 A 
ATOM     26  C   UNL     1       1.151   1.813  18.852  0.00  0.00    +0.000 A 
ATOM     27  C   UNL     1       1.997   1.874  17.744  0.00  0.00    +0.000 A 
ATOM     28  C   UNL     1       3.289   2.366  17.885  0.00  0.00    +0.000 A 
ENDBRANCH  22  23
ENDBRANCH   3  22
TORSDOF 5
ENDMDL
