MODEL 1
REMARK VINA RESULT:      -8.7      0.000      0.000
REMARK  Name = 
REMARK  7 active torsions:
REMARK  status: ('A' for Active; 'I' for Inactive)
REMARK    1  A    between atoms: C_1  and  O_2
REMARK    2  A    between atoms: O_2  and  C_3
REMARK    3  A    between atoms: C_6  and  C_7
REMARK    4  A    between atoms: C_12  and  C_14
REMARK    5  A    between atoms: C_14  and  N_15
REMARK    6  A    between atoms: C_28  and  O_29
REMARK    7  A    between atoms: O_29  and  C_30
REMARK                            x       y       z     vdW  Elec       q    Type
REMARK                         _______ _______ _______ _____ _____    ______ ____
ROOT
ATOM      1  C   UNL     1       3.565   5.879  18.562  0.00  0.00    +0.000 A 
ATOM      2  C   UNL     1       3.033   5.032  19.517  0.00  0.00    +0.000 A 
ATOM      3  S   UNL     1       1.893   5.887  20.480  0.00  0.00    +0.000 S 
ATOM      4  C   UNL     1       2.148   7.268  19.514  0.00  0.00    +0.000 A 
ATOM      5  N   UNL     1       1.432   8.374  19.876  0.00  0.00    +0.000 N 
ATOM      6  C   UNL     1       1.386   9.495  19.068  0.00  0.00    +0.000 C 
ATOM      7  O   UNL     1       1.783   9.574  17.909  0.00  0.00    +0.000 OA
ATOM      8  N   UNL     1       3.021   7.152  18.551  0.00  0.00    +0.000 NA
ATOM      9  H   UNL     1       0.828   8.296  20.687  0.00  0.00    +0.000 HD
ENDROOT
BRANCH   1  13
ATOM     10  C   UNL     1       6.568   5.047  15.644  0.00  0.00    +0.000 A 
ATOM     11  C   UNL     1       5.429   4.235  15.756  0.00  0.00    +0.000 A 
ATOM     12  C   UNL     1       4.462   4.494  16.730  0.00  0.00    +0.000 A 
ATOM     13  C   UNL     1       4.640   5.537  17.639  0.00  0.00    +0.000 A 
ATOM     14  C   UNL     1       5.814   6.288  17.581  0.00  0.00    +0.000 A 
ATOM     15  C   UNL     1       6.786   6.056  16.592  0.00  0.00    +0.000 A 
BRANCH  10  17
ATOM     16  C   UNL     1       6.926   4.377  13.402  0.00  0.00    +0.000 C 
ATOM     17  O   UNL     1       7.474   4.854  14.632  0.00  0.00    +0.000 OA
ENDBRANCH  10  17
BRANCH  15  18
ATOM     18  O   UNL     1       7.835   6.932  16.700  0.00  0.00    +0.000 OA
ATOM     19  C   UNL     1       7.700   8.077  17.526  0.00  0.00    +0.000 C 
ENDBRANCH  15  18
ENDBRANCH   1  13
BRANCH   6  20
ATOM     20  C   UNL     1       0.671  10.668  19.726  0.00  0.00    +0.000 C 
BRANCH  20  21
ATOM     21  N   UNL     1      -0.309  11.209  18.813  0.00  0.00    +0.000 N 
ATOM     22  C   UNL     1      -0.231  12.425  18.212  0.00  0.00    +0.000 C 
ATOM     23  O   UNL     1       0.665  13.246  18.297  0.00  0.00    +0.000 OA
ATOM     24  N   UNL     1      -1.394  12.633  17.503  0.00  0.00    +0.000 N 
ATOM     25  C   UNL     1      -2.256  11.480  17.510  0.00  0.00    +0.000 C 
ATOM     26  C   UNL     1      -3.701  11.781  17.907  0.00  0.00    +0.000 C 
ATOM     27  C   UNL     1      -4.543  11.375  16.699  0.00  0.00    +0.000 C 
ATOM     28  C   UNL     1      -3.727  10.289  16.017  0.00  0.00    +0.000 C 
ATOM     29  C   UNL     1      -2.297  10.794  16.141  0.00  0.00    +0.000 C 
ATOM     30  C   UNL     1      -1.508  10.615  18.540  0.00  0.00    +0.000 C 
ATOM     31  O   UNL     1      -1.879   9.541  19.001  0.00  0.00    +0.000 OA
ATOM     32  H   UNL     1      -1.514  13.470  16.945  0.00  0.00    +0.000 HD
ENDBRANCH  20  21
ENDBRANCH   6  20
TORSDOF 5
ENDMDL
MODEL 2
REMARK VINA RESULT:      -8.1      3.178      9.411
REMARK  Name = 
REMARK  7 active torsions:
REMARK  status: ('A' for Active; 'I' for Inactive)
REMARK    1  A    between atoms: C_1  and  O_2
REMARK    2  A    between atoms: O_2  and  C_3
REMARK    3  A    between atoms: C_6  and  C_7
REMARK    4  A    between atoms: C_12  and  C_14
REMARK    5  A    between atoms: C_14  and  N_15
REMARK    6  A    between atoms: C_28  and  O_29
REMARK    7  A    between atoms: O_29  and  C_30
REMARK                            x       y       z     vdW  Elec       q    Type
REMARK                         _______ _______ _______ _____ _____    ______ ____
ROOT
ATOM      1  C   UNL     1       1.077   9.109  19.757  0.00  0.00    +0.000 A 
ATOM      2  C   UNL     1       1.423   9.586  18.506  0.00  0.00    +0.000 A 
ATOM      3  S   UNL     1       2.506   8.486  17.746  0.00  0.00    +0.000 S 
ATOM      4  C   UNL     1       2.367   7.454  19.095  0.00  0.00    +0.000 A 
ATOM      5  N   UNL     1       3.110   6.308  19.033  0.00  0.00    +0.000 N 
ATOM      6  C   UNL     1       2.941   5.292  19.955  0.00  0.00    +0.000 C 
ATOM      7  O   UNL     1       2.030   5.196  20.774  0.00  0.00    +0.000 OA
ATOM      8  N   UNL     1       1.601   7.866  20.068  0.00  0.00    +0.000 NA
ATOM      9  H   UNL     1       3.689   6.170  18.212  0.00  0.00    +0.000 HD
ENDROOT
BRANCH   1  13
ATOM     10  C   UNL     1      -1.038  11.331  22.727  0.00  0.00    +0.000 A 
ATOM     11  C   UNL     1      -0.516  10.061  23.015  0.00  0.00    +0.000 A 
ATOM     12  C   UNL     1       0.152   9.325  22.032  0.00  0.00    +0.000 A 
ATOM     13  C   UNL     1       0.265   9.824  20.735  0.00  0.00    +0.000 A 
ATOM     14  C   UNL     1      -0.331  11.047  20.429  0.00  0.00    +0.000 A 
ATOM     15  C   UNL     1      -0.985  11.811  21.411  0.00  0.00    +0.000 A 
BRANCH  10  17
ATOM     16  C   UNL     1      -3.039  12.173  23.671  0.00  0.00    +0.000 C 
ATOM     17  O   UNL     1      -1.613  12.095  23.710  0.00  0.00    +0.000 OA
ENDBRANCH  10  17
BRANCH  15  18
ATOM     18  O   UNL     1      -1.461  12.991  20.900  0.00  0.00    +0.000 OA
ATOM     19  C   UNL     1      -0.960  13.461  19.659  0.00  0.00    +0.000 C 
ENDBRANCH  15  18
ENDBRANCH   1  13
BRANCH   6  20
ATOM     20  C   UNL     1       3.972   4.182  19.806  0.00  0.00    +0.000 C 
BRANCH  20  21
ATOM     21  N   UNL     1       4.871   4.501  18.721  0.00  0.00    +0.000 N 
ATOM     22  C   UNL     1       6.105   5.052  18.865  0.00  0.00    +0.000 C 
ATOM     23  O   UNL     1       6.681   5.339  19.899  0.00  0.00    +0.000 OA
ATOM     24  N   UNL     1       6.613   5.307  17.610  0.00  0.00    +0.000 N 
ATOM     25  C   UNL     1       5.762   4.808  16.560  0.00  0.00    +0.000 C 
ATOM     26  C   UNL     1       5.441   5.835  15.474  0.00  0.00    +0.000 C 
ATOM     27  C   UNL     1       5.994   5.238  14.181  0.00  0.00    +0.000 C 
ATOM     28  C   UNL     1       5.952   3.736  14.410  0.00  0.00    +0.000 C 
ATOM     29  C   UNL     1       6.376   3.590  15.864  0.00  0.00    +0.000 C 
ATOM     30  C   UNL     1       4.538   4.406  17.400  0.00  0.00    +0.000 C 
ATOM     31  O   UNL     1       3.459   4.006  16.976  0.00  0.00    +0.000 OA
ATOM     32  H   UNL     1       7.548   5.681  17.500  0.00  0.00    +0.000 HD
ENDBRANCH  20  21
ENDBRANCH   6  20
TORSDOF 5
ENDMDL
MODEL 3
REMARK VINA RESULT:      -8.1      1.898      2.940
REMARK  Name = 
REMARK  7 active torsions:
REMARK  status: ('A' for Active; 'I' for Inactive)
REMARK    1  A    between atoms: C_1  and  O_2
REMARK    2  A    between atoms: O_2  and  C_3
REMARK    3  A    between atoms: C_6  and  C_7
REMARK    4  A    between atoms: C_12  and  C_14
REMARK    5  A    between atoms: C_14  and  N_15
REMARK    6  A    between atoms: C_28  and  O_29
REMARK    7  A    between atoms: O_29  and  C_30
REMARK                            x       y       z     vdW  Elec       q    Type
REMARK                         _______ _______ _______ _____ _____    ______ ____
ROOT
ATOM      1  C   UNL     1       3.686   5.310  18.863  0.00  0.00    +0.000 A 
ATOM      2  C   UNL     1       3.182   4.247  19.591  0.00  0.00    +0.000 A 
ATOM      3  S   UNL     1       2.021   4.819  20.724  0.00  0.00    +0.000 S 
ATOM      4  C   UNL     1       2.232   6.395  20.109  0.00  0.00    +0.000 A 
ATOM      5  N   UNL     1       1.486   7.365  20.718  0.00  0.00    +0.000 N 
ATOM      6  C   UNL     1       1.405   8.642  20.195  0.00  0.00    +0.000 C 
ATOM      7  O   UNL     1       1.796   9.002  19.088  0.00  0.00    +0.000 OA
ATOM      8  N   UNL     1       3.106   6.533  19.149  0.00  0.00    +0.000 NA
ATOM      9  H   UNL     1       0.888   7.081  21.486  0.00  0.00    +0.000 HD
ENDROOT
BRANCH   1  13
ATOM     10  C   UNL     1       6.660   5.184  15.802  0.00  0.00    +0.000 A 
ATOM     11  C   UNL     1       5.768   4.116  15.983  0.00  0.00    +0.000 A 
ATOM     12  C   UNL     1       4.814   4.150  17.003  0.00  0.00    +0.000 A 
ATOM     13  C   UNL     1       4.767   5.225  17.889  0.00  0.00    +0.000 A 
ATOM     14  C   UNL     1       5.712   6.244  17.762  0.00  0.00    +0.000 A 
ATOM     15  C   UNL     1       6.663   6.237  16.727  0.00  0.00    +0.000 A 
BRANCH  10  17
ATOM     16  C   UNL     1       7.041   4.635  13.531  0.00  0.00    +0.000 C 
ATOM     17  O   UNL     1       7.536   5.199  14.747  0.00  0.00    +0.000 OA
ENDBRANCH  10  17
BRANCH  15  18
ATOM     18  O   UNL     1       7.463   7.351  16.770  0.00  0.00    +0.000 OA
ATOM     19  C   UNL     1       7.910   7.835  18.025  0.00  0.00    +0.000 C 
ENDBRANCH  15  18
ENDBRANCH   1  13
BRANCH   6  20
ATOM     20  C   UNL     1       0.659   9.607  21.107  0.00  0.00    +0.000 C 
BRANCH  20  21
ATOM     21  N   UNL     1       0.297  10.791  20.363  0.00  0.00    +0.000 N 
ATOM     22  C   UNL     1      -0.657  10.847  19.397  0.00  0.00    +0.000 C 
ATOM     23  O   UNL     1      -1.385   9.949  19.012  0.00  0.00    +0.000 OA
ATOM     24  N   UNL     1      -0.641  12.109  18.846  0.00  0.00    +0.000 N 
ATOM     25  C   UNL     1       0.264  12.996  19.529  0.00  0.00    +0.000 C 
ATOM     26  C   UNL     1       1.229  13.739  18.605  0.00  0.00    +0.000 C 
ATOM     27  C   UNL     1       0.926  15.221  18.815  0.00  0.00    +0.000 C 
ATOM     28  C   UNL     1       0.383  15.299  20.232  0.00  0.00    +0.000 C 
ATOM     29  C   UNL     1      -0.486  14.054  20.343  0.00  0.00    +0.000 C 
ATOM     30  C   UNL     1       0.962  11.981  20.451  0.00  0.00    +0.000 C 
ATOM     31  O   UNL     1       1.914  12.199  21.191  0.00  0.00    +0.000 OA
ATOM     32  H   UNL     1      -1.312  12.367  18.132  0.00  0.00    +0.000 HD
ENDBRANCH  20  21
ENDBRANCH   6  20
TORSDOF 5
ENDMDL
MODEL 4
REMARK VINA RESULT:      -7.8      2.499      3.922
REMARK  Name = 
REMARK  7 active torsions:
REMARK  status: ('A' for Active; 'I' for Inactive)
REMARK    1  A    between atoms: C_1  and  O_2
REMARK    2  A    between atoms: O_2  and  C_3
REMARK    3  A    between atoms: C_6  and  C_7
REMARK    4  A    between atoms: C_12  and  C_14
REMARK    5  A    between atoms: C_14  and  N_15
REMARK    6  A    between atoms: C_28  and  O_29
REMARK    7  A    between atoms: O_29  and  C_30
REMARK                            x       y       z     vdW  Elec       q    Type
REMARK                         _______ _______ _______ _____ _____    ______ ____
ROOT
ATOM      1  C   UNL     1       1.536   7.936  20.296  0.00  0.00    +0.000 A 
ATOM      2  C   UNL     1       1.512   8.398  21.599  0.00  0.00    +0.000 A 
ATOM      3  S   UNL     1       0.611   9.861  21.679  0.00  0.00    +0.000 S 
ATOM      4  C   UNL     1       0.275   9.718  20.014  0.00  0.00    +0.000 A 
ATOM      5  N   UNL     1      -0.475  10.728  19.481  0.00  0.00    +0.000 N 
ATOM      6  C   UNL     1      -0.989  10.640  18.200  0.00  0.00    +0.000 C 
ATOM      7  O   UNL     1      -1.014   9.637  17.492  0.00  0.00    +0.000 OA
ATOM      8  N   UNL     1       0.792   8.688  19.403  0.00  0.00    +0.000 NA
ATOM      9  H   UNL     1      -0.756  11.480  20.100  0.00  0.00    +0.000 HD
ENDROOT
BRANCH   1  13
ATOM     10  C   UNL     1       3.500   4.463  18.777  0.00  0.00    +0.000 A 
ATOM     11  C   UNL     1       2.823   4.427  20.005  0.00  0.00    +0.000 A 
ATOM     12  C   UNL     1       2.205   5.573  20.512  0.00  0.00    +0.000 A 
ATOM     13  C   UNL     1       2.294   6.783  19.825  0.00  0.00    +0.000 A 
ATOM     14  C   UNL     1       3.041   6.837  18.649  0.00  0.00    +0.000 A 
ATOM     15  C   UNL     1       3.649   5.688  18.113  0.00  0.00    +0.000 A 
BRANCH  10  17
ATOM     16  C   UNL     1       3.340   2.112  18.554  0.00  0.00    +0.000 C 
ATOM     17  O   UNL     1       4.029   3.321  18.230  0.00  0.00    +0.000 OA
ENDBRANCH  10  17
BRANCH  15  18
ATOM     18  O   UNL     1       4.297   5.963  16.936  0.00  0.00    +0.000 OA
ATOM     19  C   UNL     1       5.541   6.642  16.972  0.00  0.00    +0.000 C 
ENDBRANCH  15  18
ENDBRANCH   1  13
BRANCH   6  20
ATOM     20  C   UNL     1      -1.655  11.931  17.742  0.00  0.00    +0.000 C 
BRANCH  20  21
ATOM     21  N   UNL     1      -3.079  11.722  17.617  0.00  0.00    +0.000 N 
ATOM     22  C   UNL     1      -3.718  11.350  16.477  0.00  0.00    +0.000 C 
ATOM     23  O   UNL     1      -3.225  11.096  15.392  0.00  0.00    +0.000 OA
ATOM     24  N   UNL     1      -5.074  11.357  16.719  0.00  0.00    +0.000 N 
ATOM     25  C   UNL     1      -5.384  11.624  18.100  0.00  0.00    +0.000 C 
ATOM     26  C   UNL     1      -6.420  12.730  18.306  0.00  0.00    +0.000 C 
ATOM     27  C   UNL     1      -7.585  12.059  19.031  0.00  0.00    +0.000 C 
ATOM     28  C   UNL     1      -6.945  10.909  19.792  0.00  0.00    +0.000 C 
ATOM     29  C   UNL     1      -5.909  10.375  18.814  0.00  0.00    +0.000 C 
ATOM     30  C   UNL     1      -3.981  12.001  18.604  0.00  0.00    +0.000 C 
ATOM     31  O   UNL     1      -3.692  12.421  19.719  0.00  0.00    +0.000 OA
ATOM     32  H   UNL     1      -5.726  11.065  16.001  0.00  0.00    +0.000 HD
ENDBRANCH  20  21
ENDBRANCH   6  20
TORSDOF 5
ENDMDL
MODEL 5
REMARK VINA RESULT:      -7.7      3.177      9.597
REMARK  Name = 
REMARK  7 active torsions:
REMARK  status: ('A' for Active; 'I' for Inactive)
REMARK    1  A    between atoms: C_1  and  O_2
REMARK    2  A    between atoms: O_2  and  C_3
REMARK    3  A    between atoms: C_6  and  C_7
REMARK    4  A    between atoms: C_12  and  C_14
REMARK    5  A    between atoms: C_14  and  N_15
REMARK    6  A    between atoms: C_28  and  O_29
REMARK    7  A    between atoms: O_29  and  C_30
REMARK                            x       y       z     vdW  Elec       q    Type
REMARK                         _______ _______ _______ _____ _____    ______ ____
ROOT
ATOM      1  C   UNL     1       0.964   9.174  19.806  0.00  0.00    +0.000 A 
ATOM      2  C   UNL     1       1.427   9.592  18.572  0.00  0.00    +0.000 A 
ATOM      3  S   UNL     1       2.500   8.413  17.925  0.00  0.00    +0.000 S 
ATOM      4  C   UNL     1       2.206   7.432  19.288  0.00  0.00    +0.000 A 
ATOM      5  N   UNL     1       2.887   6.248  19.313  0.00  0.00    +0.000 N 
ATOM      6  C   UNL     1       2.595   5.272  20.247  0.00  0.00    +0.000 C 
ATOM      7  O   UNL     1       1.623   5.250  20.998  0.00  0.00    +0.000 OA
ATOM      8  N   UNL     1       1.395   7.915  20.189  0.00  0.00    +0.000 NA
ATOM      9  H   UNL     1       3.517   6.054  18.542  0.00  0.00    +0.000 HD
ENDROOT
BRANCH   1  13
ATOM     10  C   UNL     1      -1.241  11.625  22.519  0.00  0.00    +0.000 A 
ATOM     11  C   UNL     1      -0.684  10.408  22.939  0.00  0.00    +0.000 A 
ATOM     12  C   UNL     1       0.014   9.595  22.041  0.00  0.00    +0.000 A 
ATOM     13  C   UNL     1       0.124   9.961  20.700  0.00  0.00    +0.000 A 
ATOM     14  C   UNL     1      -0.506  11.127  20.266  0.00  0.00    +0.000 A 
ATOM     15  C   UNL     1      -1.191  11.968  21.161  0.00  0.00    +0.000 A 
BRANCH  10  17
ATOM     16  C   UNL     1      -3.242  12.247  23.619  0.00  0.00    +0.000 C 
ATOM     17  O   UNL     1      -1.846  12.469  23.415  0.00  0.00    +0.000 OA
ENDBRANCH  10  17
BRANCH  15  18
ATOM     18  O   UNL     1      -1.697  13.074  20.527  0.00  0.00    +0.000 OA
ATOM     19  C   UNL     1      -0.868  14.210  20.349  0.00  0.00    +0.000 C 
ENDBRANCH  15  18
ENDBRANCH   1  13
BRANCH   6  20
ATOM     20  C   UNL     1       3.571   4.104  20.206  0.00  0.00    +0.000 C 
BRANCH  20  21
ATOM     21  N   UNL     1       4.127   3.986  18.878  0.00  0.00    +0.000 N 
ATOM     22  C   UNL     1       3.810   3.017  17.980  0.00  0.00    +0.000 C 
ATOM     23  O   UNL     1       2.999   2.117  18.106  0.00  0.00    +0.000 OA
ATOM     24  N   UNL     1       4.617   3.171  16.874  0.00  0.00    +0.000 N 
ATOM     25  C   UNL     1       5.436   4.353  16.951  0.00  0.00    +0.000 C 
ATOM     26  C   UNL     1       6.920   4.106  16.678  0.00  0.00    +0.000 C 
ATOM     27  C   UNL     1       7.250   4.958  15.455  0.00  0.00    +0.000 C 
ATOM     28  C   UNL     1       6.255   6.105  15.513  0.00  0.00    +0.000 C 
ATOM     29  C   UNL     1       4.969   5.431  15.969  0.00  0.00    +0.000 C 
ATOM     30  C   UNL     1       5.144   4.766  18.404  0.00  0.00    +0.000 C 
ATOM     31  O   UNL     1       5.678   5.676  19.028  0.00  0.00    +0.000 OA
ATOM     32  H   UNL     1       4.505   2.568  16.068  0.00  0.00    +0.000 HD
ENDBRANCH  20  21
ENDBRANCH   6  20
TORSDOF 5
ENDMDL
MODEL 6
REMARK VINA RESULT:      -7.7      2.996      4.632
REMARK  Name = 
REMARK  7 active torsions:
REMARK  status: ('A' for Active; 'I' for Inactive)
REMARK    1  A    between atoms: C_1  and  O_2
REMARK    2  A    between atoms: O_2  and  C_3
REMARK    3  A    between atoms: C_6  and  C_7
REMARK    4  A    between atoms: C_12  and  C_14
REMARK    5  A    between atoms: C_14  and  N_15
REMARK    6  A    between atoms: C_28  and  O_29
REMARK    7  A    between atoms: O_29  and  C_30
REMARK                            x       y       z     vdW  Elec       q    Type
REMARK                         _______ _______ _______ _____ _____    ______ ____
ROOT
ATOM      1  C   UNL     1       2.293   7.487  19.201  0.00  0.00    +0.000 A 
ATOM      2  C   UNL     1       2.417   8.095  17.965  0.00  0.00    +0.000 A 
ATOM      3  S   UNL     1       1.632   9.626  17.991  0.00  0.00    +0.000 S 
ATOM      4  C   UNL     1       1.264   9.383  19.637  0.00  0.00    +0.000 A 
ATOM      5  N   UNL     1       0.555  10.389  20.231  0.00  0.00    +0.000 N 
ATOM      6  C   UNL     1       0.363  10.420  21.600  0.00  0.00    +0.000 C 
ATOM      7  O   UNL     1       0.930   9.715  22.431  0.00  0.00    +0.000 OA
ATOM      8  N   UNL     1       1.657   8.255  20.161  0.00  0.00    +0.000 NA
ATOM      9  H   UNL     1       0.293  11.180  19.655  0.00  0.00    +0.000 HD
ENDROOT
BRANCH   1  13
ATOM     10  C   UNL     1       3.470   3.438  19.871  0.00  0.00    +0.000 A 
ATOM     11  C   UNL     1       2.202   3.893  20.263  0.00  0.00    +0.000 A 
ATOM     12  C   UNL     1       1.831   5.226  20.066  0.00  0.00    +0.000 A 
ATOM     13  C   UNL     1       2.736   6.136  19.522  0.00  0.00    +0.000 A 
ATOM     14  C   UNL     1       4.026   5.702  19.214  0.00  0.00    +0.000 A 
ATOM     15  C   UNL     1       4.407   4.360  19.383  0.00  0.00    +0.000 A 
BRANCH  10  17
ATOM     16  C   UNL     1       3.673   1.350  18.775  0.00  0.00    +0.000 C 
ATOM     17  O   UNL     1       3.807   2.113  19.976  0.00  0.00    +0.000 OA
ENDBRANCH  10  17
BRANCH  15  18
ATOM     18  O   UNL     1       5.703   4.149  18.983  0.00  0.00    +0.000 OA
ATOM     19  C   UNL     1       6.209   4.867  17.871  0.00  0.00    +0.000 C 
ENDBRANCH  15  18
ENDBRANCH   1  13
BRANCH   6  20
ATOM     20  C   UNL     1      -0.584  11.528  22.039  0.00  0.00    +0.000 C 
BRANCH  20  21
ATOM     21  N   UNL     1      -0.610  12.567  21.035  0.00  0.00    +0.000 N 
ATOM     22  C   UNL     1      -1.441  12.595  19.960  0.00  0.00    +0.000 C 
ATOM     23  O   UNL     1      -2.315  11.797  19.669  0.00  0.00    +0.000 OA
ATOM     24  N   UNL     1      -1.100  13.675  19.177  0.00  0.00    +0.000 N 
ATOM     25  C   UNL     1      -0.082  14.494  19.784  0.00  0.00    +0.000 C 
ATOM     26  C   UNL     1       1.100  14.807  18.865  0.00  0.00    +0.000 C 
ATOM     27  C   UNL     1       1.116  16.329  18.737  0.00  0.00    +0.000 C 
ATOM     28  C   UNL     1       0.483  16.824  20.027  0.00  0.00    +0.000 C 
ATOM     29  C   UNL     1      -0.646  15.833  20.267  0.00  0.00    +0.000 C 
ATOM     30  C   UNL     1       0.292  13.590  20.971  0.00  0.00    +0.000 C 
ATOM     31  O   UNL     1       1.202  13.773  21.772  0.00  0.00    +0.000 OA
ATOM     32  H   UNL     1      -1.633  13.897  18.345  0.00  0.00    +0.000 HD
ENDBRANCH  20  21
ENDBRANCH   6  20
TORSDOF 5
ENDMDL
MODEL 7
REMARK VINA RESULT:      -7.6      2.994      9.721
REMARK  Name = 
REMARK  7 active torsions:
REMARK  status: ('A' for Active; 'I' for Inactive)
REMARK    1  A    between atoms: C_1  and  O_2
REMARK    2  A    between atoms: O_2  and  C_3
REMARK    3  A    between atoms: C_6  and  C_7
REMARK    4  A    between atoms: C_12  and  C_14
REMARK    5  A    between atoms: C_14  and  N_15
REMARK    6  A    between atoms: C_28  and  O_29
REMARK    7  A    between atoms: O_29  and  C_30
REMARK                            x       y       z     vdW  Elec       q    Type
REMARK                         _______ _______ _______ _____ _____    ______ ____
ROOT
ATOM      1  C   UNL     1       0.566   9.758  19.850  0.00  0.00    +0.000 A 
ATOM      2  C   UNL     1       1.050  10.247  18.650  0.00  0.00    +0.000 A 
ATOM      3  S   UNL     1       2.148   9.114  17.964  0.00  0.00    +0.000 S 
ATOM      4  C   UNL     1       1.836   8.058  19.265  0.00  0.00    +0.000 A 
ATOM      5  N   UNL     1       2.528   6.880  19.240  0.00  0.00    +0.000 N 
ATOM      6  C   UNL     1       2.226   5.852  20.115  0.00  0.00    +0.000 C 
ATOM      7  O   UNL     1       1.239   5.781  20.842  0.00  0.00    +0.000 OA
ATOM      8  N   UNL     1       1.001   8.484  20.173  0.00  0.00    +0.000 NA
ATOM      9  H   UNL     1       3.175   6.733  18.474  0.00  0.00    +0.000 HD
ENDROOT
BRANCH   1  13
ATOM     10  C   UNL     1      -1.737  12.092  22.584  0.00  0.00    +0.000 A 
ATOM     11  C   UNL     1      -0.927  11.041  23.040  0.00  0.00    +0.000 A 
ATOM     12  C   UNL     1      -0.197  10.262  22.139  0.00  0.00    +0.000 A 
ATOM     13  C   UNL     1      -0.300  10.488  20.767  0.00  0.00    +0.000 A 
ATOM     14  C   UNL     1      -1.173  11.476  20.311  0.00  0.00    +0.000 A 
ATOM     15  C   UNL     1      -1.897  12.284  21.205  0.00  0.00    +0.000 A 
BRANCH  10  17
ATOM     16  C   UNL     1      -1.653  14.081  23.865  0.00  0.00    +0.000 C 
ATOM     17  O   UNL     1      -2.383  12.918  23.468  0.00  0.00    +0.000 OA
ENDBRANCH  10  17
BRANCH  15  18
ATOM     18  O   UNL     1      -2.660  13.212  20.541  0.00  0.00    +0.000 OA
ATOM     19  C   UNL     1      -4.060  13.015  20.444  0.00  0.00    +0.000 C 
ENDBRANCH  15  18
ENDBRANCH   1  13
BRANCH   6  20
ATOM     20  C   UNL     1       3.215   4.696  20.031  0.00  0.00    +0.000 C 
BRANCH  20  21
ATOM     21  N   UNL     1       3.666   4.545  18.667  0.00  0.00    +0.000 N 
ATOM     22  C   UNL     1       2.945   3.984  17.662  0.00  0.00    +0.000 C 
ATOM     23  O   UNL     1       1.808   3.548  17.709  0.00  0.00    +0.000 OA
ATOM     24  N   UNL     1       3.742   3.919  16.540  0.00  0.00    +0.000 N 
ATOM     25  C   UNL     1       5.015   4.566  16.733  0.00  0.00    +0.000 C 
ATOM     26  C   UNL     1       6.218   3.711  16.334  0.00  0.00    +0.000 C 
ATOM     27  C   UNL     1       6.918   4.495  15.226  0.00  0.00    +0.000 C 
ATOM     28  C   UNL     1       6.566   5.946  15.510  0.00  0.00    +0.000 C 
ATOM     29  C   UNL     1       5.110   5.876  15.946  0.00  0.00    +0.000 C 
ATOM     30  C   UNL     1       4.933   4.834  18.246  0.00  0.00    +0.000 C 
ATOM     31  O   UNL     1       5.822   5.288  18.958  0.00  0.00    +0.000 OA
ATOM     32  H   UNL     1       3.372   3.569  15.665  0.00  0.00    +0.000 HD
ENDBRANCH  20  21
ENDBRANCH   6  20
TORSDOF 5
ENDMDL
MODEL 8
REMARK VINA RESULT:      -7.6      2.740      4.320
REMARK  Name = 
REMARK  7 active torsions:
REMARK  status: ('A' for Active; 'I' for Inactive)
REMARK    1  A    between atoms: C_1  and  O_2
REMARK    2  A    between atoms: O_2  and  C_3
REMARK    3  A    between atoms: C_6  and  C_7
REMARK    4  A    between atoms: C_12  and  C_14
REMARK    5  A    between atoms: C_14  and  N_15
REMARK    6  A    between atoms: C_28  and  O_29
REMARK    7  A    between atoms: O_29  and  C_30
REMARK                            x       y       z     vdW  Elec       q    Type
REMARK                         _______ _______ _______ _____ _____    ______ ____
ROOT
ATOM      1  C   UNL     1       1.523   7.882  20.264  0.00  0.00    +0.000 A 
ATOM      2  C   UNL     1       1.557   8.333  21.571  0.00  0.00    +0.000 A 
ATOM      3  S   UNL     1       0.691   9.815  21.696  0.00  0.00    +0.000 S 
ATOM      4  C   UNL     1       0.292   9.694  20.043  0.00  0.00    +0.000 A 
ATOM      5  N   UNL     1      -0.455  10.725  19.546  0.00  0.00    +0.000 N 
ATOM      6  C   UNL     1      -1.018  10.659  18.284  0.00  0.00    +0.000 C 
ATOM      7  O   UNL     1      -1.090   9.663  17.569  0.00  0.00    +0.000 OA
ATOM      8  N   UNL     1       0.764   8.658  19.404  0.00  0.00    +0.000 NA
ATOM      9  H   UNL     1      -0.697  11.476  20.181  0.00  0.00    +0.000 HD
ENDROOT
BRANCH   1  13
ATOM     10  C   UNL     1       3.869   4.574  18.931  0.00  0.00    +0.000 A 
ATOM     11  C   UNL     1       3.846   5.777  18.210  0.00  0.00    +0.000 A 
ATOM     12  C   UNL     1       3.056   6.848  18.634  0.00  0.00    +0.000 A 
ATOM     13  C   UNL     1       2.238   6.719  19.756  0.00  0.00    +0.000 A 
ATOM     14  C   UNL     1       2.196   5.493  20.421  0.00  0.00    +0.000 A 
ATOM     15  C   UNL     1       3.002   4.413  20.021  0.00  0.00    +0.000 A 
BRANCH  10  17
ATOM     16  C   UNL     1       4.114   2.507  17.803  0.00  0.00    +0.000 C 
ATOM     17  O   UNL     1       4.711   3.553  18.572  0.00  0.00    +0.000 OA
ENDBRANCH  10  17
BRANCH  15  18
ATOM     18  O   UNL     1       2.827   3.324  20.836  0.00  0.00    +0.000 OA
ATOM     19  C   UNL     1       1.672   3.249  21.654  0.00  0.00    +0.000 C 
ENDBRANCH  15  18
ENDBRANCH   1  13
BRANCH   6  20
ATOM     20  C   UNL     1      -1.671  11.968  17.861  0.00  0.00    +0.000 C 
BRANCH  20  21
ATOM     21  N   UNL     1      -3.094  11.771  17.711  0.00  0.00    +0.000 N 
ATOM     22  C   UNL     1      -3.719  11.431  16.553  0.00  0.00    +0.000 C 
ATOM     23  O   UNL     1      -3.212  11.201  15.469  0.00  0.00    +0.000 OA
ATOM     24  N   UNL     1      -5.078  11.440  16.775  0.00  0.00    +0.000 N 
ATOM     25  C   UNL     1      -5.407  11.673  18.158  0.00  0.00    +0.000 C 
ATOM     26  C   UNL     1      -6.439  12.780  18.378  0.00  0.00    +0.000 C 
ATOM     27  C   UNL     1      -7.618  12.098  19.069  0.00  0.00    +0.000 C 
ATOM     28  C   UNL     1      -6.996  10.925  19.809  0.00  0.00    +0.000 C 
ATOM     29  C   UNL     1      -5.949  10.410  18.833  0.00  0.00    +0.000 C 
ATOM     30  C   UNL     1      -4.009  12.029  18.691  0.00  0.00    +0.000 C 
ATOM     31  O   UNL     1      -3.734  12.420  19.821  0.00  0.00    +0.000 OA
ATOM     32  H   UNL     1      -5.721  11.169  16.041  0.00  0.00    +0.000 HD
ENDBRANCH  20  21
ENDBRANCH   6  20
TORSDOF 5
ENDMDL
MODEL 9
REMARK VINA RESULT:      -7.5      2.912      9.525
REMARK  Name = 
REMARK  7 active torsions:
REMARK  status: ('A' for Active; 'I' for Inactive)
REMARK    1  A    between atoms: C_1  and  O_2
REMARK    2  A    between atoms: O_2  and  C_3
REMARK    3  A    between atoms: C_6  and  C_7
REMARK    4  A    between atoms: C_12  and  C_14
REMARK    5  A    between atoms: C_14  and  N_15
REMARK    6  A    between atoms: C_28  and  O_29
REMARK    7  A    between atoms: O_29  and  C_30
REMARK                            x       y       z     vdW  Elec       q    Type
REMARK                         _______ _______ _______ _____ _____    ______ ____
ROOT
ATOM      1  C   UNL     1      -1.211  11.544  19.157  0.00  0.00    +0.000 A 
ATOM      2  C   UNL     1      -0.647  12.407  20.078  0.00  0.00    +0.000 A 
ATOM      3  S   UNL     1       0.971  11.924  20.410  0.00  0.00    +0.000 S 
ATOM      4  C   UNL     1       0.807  10.672  19.265  0.00  0.00    +0.000 A 
ATOM      5  N   UNL     1       1.905   9.872  19.112  0.00  0.00    +0.000 N 
ATOM      6  C   UNL     1       1.985   8.952  18.083  0.00  0.00    +0.000 C 
ATOM      7  O   UNL     1       1.230   8.871  17.118  0.00  0.00    +0.000 OA
ATOM      8  N   UNL     1      -0.352  10.572  18.673  0.00  0.00    +0.000 NA
ATOM      9  H   UNL     1       2.712  10.070  19.693  0.00  0.00    +0.000 HD
ENDROOT
BRANCH   1  13
ATOM     10  C   UNL     1      -5.231  11.917  17.769  0.00  0.00    +0.000 A 
ATOM     11  C   UNL     1      -4.875  12.331  19.061  0.00  0.00    +0.000 A 
ATOM     12  C   UNL     1      -3.564  12.182  19.521  0.00  0.00    +0.000 A 
ATOM     13  C   UNL     1      -2.601  11.573  18.718  0.00  0.00    +0.000 A 
ATOM     14  C   UNL     1      -2.978  11.083  17.468  0.00  0.00    +0.000 A 
ATOM     15  C   UNL     1      -4.286  11.246  16.980  0.00  0.00    +0.000 A 
BRANCH  10  17
ATOM     16  C   UNL     1      -7.417  12.711  18.209  0.00  0.00    +0.000 C 
ATOM     17  O   UNL     1      -6.492  12.145  17.279  0.00  0.00    +0.000 OA
ENDBRANCH  10  17
BRANCH  15  18
ATOM     18  O   UNL     1      -4.424  10.724  15.719  0.00  0.00    +0.000 OA
ATOM     19  C   UNL     1      -3.269  10.529  14.920  0.00  0.00    +0.000 C 
ENDBRANCH  15  18
ENDBRANCH   1  13
BRANCH   6  20
ATOM     20  C   UNL     1       3.212   8.056  18.187  0.00  0.00    +0.000 C 
BRANCH  20  21
ATOM     21  N   UNL     1       2.826   6.771  18.724  0.00  0.00    +0.000 N 
ATOM     22  C   UNL     1       2.143   6.580  19.883  0.00  0.00    +0.000 C 
ATOM     23  O   UNL     1       1.711   7.427  20.645  0.00  0.00    +0.000 OA
ATOM     24  N   UNL     1       2.056   5.225  20.116  0.00  0.00    +0.000 N 
ATOM     25  C   UNL     1       2.586   4.445  19.027  0.00  0.00    +0.000 C 
ATOM     26  C   UNL     1       3.590   3.375  19.455  0.00  0.00    +0.000 C 
ATOM     27  C   UNL     1       2.974   2.048  19.018  0.00  0.00    +0.000 C 
ATOM     28  C   UNL     1       2.097   2.410  17.830  0.00  0.00    +0.000 C 
ATOM     29  C   UNL     1       1.476   3.736  18.245  0.00  0.00    +0.000 C 
ATOM     30  C   UNL     1       3.215   5.574  18.193  0.00  0.00    +0.000 C 
ATOM     31  O   UNL     1       3.901   5.444  17.185  0.00  0.00    +0.000 OA
ATOM     32  H   UNL     1       1.543   4.872  20.915  0.00  0.00    +0.000 HD
ENDBRANCH  20  21
ENDBRANCH   6  20
TORSDOF 5
ENDMDL
