MODEL 1
REMARK VINA RESULT:      -8.5      0.000      0.000
REMARK  Name = 
REMARK  9 active torsions:
REMARK  status: ('A' for Active; 'I' for Inactive)
REMARK    1  A    between atoms: C_1  and  C_2
REMARK    2  A    between atoms: C_2  and  C_3
REMARK    3  A    between atoms: C_2  and  C_4
REMARK    4  A    between atoms: C_4  and  C_5
REMARK    5  A    between atoms: C_5  and  N_6
REMARK    6  A    between atoms: C_5  and  C_7
REMARK    7  A    between atoms: N_9  and  N_10
REMARK    8  A    between atoms: C_11  and  C_13
REMARK    9  A    between atoms: C_24  and  C_25
REMARK                            x       y       z     vdW  Elec       q    Type
REMARK                         _______ _______ _______ _____ _____    ______ ____
ROOT
ATOM      1  N   UNL     1       7.849   9.067  17.684  0.00  0.00    +0.000 N 
ATOM      2  C   UNL     1       7.697   7.703  17.876  0.00  0.00    +0.000 C 
ATOM      3  O   UNL     1       8.264   7.124  18.804  0.00  0.00    +0.000 OA
ATOM      4  H   UNL     1       7.649   9.482  16.772  0.00  0.00    +0.000 HD
ENDROOT
BRANCH   2   5
ATOM      5  C   UNL     1       6.663   7.050  16.945  0.00  0.00    +0.000 C 
ATOM      6  C   UNL     1       5.247   7.002  17.579  0.00  0.00    +0.000 C 
ATOM      7  C   UNL     1       4.978   5.682  18.209  0.00  0.00    +0.000 A 
ATOM      8  C   UNL     1       5.825   4.609  18.034  0.00  0.00    +0.000 A 
ATOM      9  N   UNL     1       5.288   3.537  18.696  0.00  0.00    +0.000 N 
ATOM     10  C   UNL     1       4.116   3.909  19.318  0.00  0.00    +0.000 A 
ATOM     11  C   UNL     1       3.236   3.159  20.112  0.00  0.00    +0.000 A 
ATOM     12  C   UNL     1       2.112   3.812  20.628  0.00  0.00    +0.000 A 
ATOM     13  C   UNL     1       1.874   5.158  20.358  0.00  0.00    +0.000 A 
ATOM     14  C   UNL     1       2.757   5.891  19.558  0.00  0.00    +0.000 A 
ATOM     15  C   UNL     1       3.900   5.258  19.029  0.00  0.00    +0.000 A 
ATOM     16  C   UNL     1       7.108   4.603  17.279  0.00  0.00    +0.000 C 
ATOM     17  C   UNL     1       8.315   4.554  18.211  0.00  0.00    +0.000 C 
ATOM     18  N   UNL     1       7.164   5.762  16.354  0.00  0.00    +0.000 NA
ATOM     19  H   UNL     1       5.689   2.610  18.742  0.00  0.00    +0.000 HD
ATOM     20  H   UNL     1       6.512   5.535  15.598  0.00  0.00    +0.000 HD
ENDBRANCH   2   5
BRANCH   1  23
ATOM     21  C   UNL     1       8.965  11.082  18.389  0.00  0.00    +0.000 C 
ATOM     22  O   UNL     1       8.352  11.783  17.583  0.00  0.00    +0.000 OA
ATOM     23  N   UNL     1       8.733   9.731  18.545  0.00  0.00    +0.000 N 
ATOM     24  H   UNL     1       9.418   9.125  18.998  0.00  0.00    +0.000 HD
BRANCH  21  25
ATOM     25  C   UNL     1      10.068  11.631  19.326  0.00  0.00    +0.000 C 
BRANCH  25  26
ATOM     26  N   UNL     1      10.030  10.883  20.605  0.00  0.00    +0.000 NA
ATOM     27  H   UNL     1      10.935  11.021  21.067  0.00  0.00    +0.000 HD
ATOM     28  H   UNL     1      10.014   9.884  20.397  0.00  0.00    +0.000 HD
ENDBRANCH  25  26
BRANCH  25  29
ATOM     29  C   UNL     1      11.476  11.489  18.723  0.00  0.00    +0.000 C 
BRANCH  29  31
ATOM     30  C   UNL     1      11.742  13.251  16.882  0.00  0.00    +0.000 C 
ATOM     31  C   UNL     1      12.173  12.790  18.274  0.00  0.00    +0.000 C 
ATOM     32  C   UNL     1      11.878  13.904  19.286  0.00  0.00    +0.000 C 
ENDBRANCH  29  31
ENDBRANCH  25  29
ENDBRANCH  21  25
ENDBRANCH   1  23
TORSDOF 6
ENDMDL
MODEL 2
REMARK VINA RESULT:      -8.4      1.817      1.948
REMARK  Name = 
REMARK  9 active torsions:
REMARK  status: ('A' for Active; 'I' for Inactive)
REMARK    1  A    between atoms: C_1  and  C_2
REMARK    2  A    between atoms: C_2  and  C_3
REMARK    3  A    between atoms: C_2  and  C_4
REMARK    4  A    between atoms: C_4  and  C_5
REMARK    5  A    between atoms: C_5  and  N_6
REMARK    6  A    between atoms: C_5  and  C_7
REMARK    7  A    between atoms: N_9  and  N_10
REMARK    8  A    between atoms: C_11  and  C_13
REMARK    9  A    between atoms: C_24  and  C_25
REMARK                            x       y       z     vdW  Elec       q    Type
REMARK                         _______ _______ _______ _____ _____    ______ ____
ROOT
ATOM      1  N   UNL     1       7.628   8.492  17.334  0.00  0.00    +0.000 N 
ATOM      2  C   UNL     1       6.937   7.315  17.572  0.00  0.00    +0.000 C 
ATOM      3  O   UNL     1       6.990   6.756  18.668  0.00  0.00    +0.000 OA
ATOM      4  H   UNL     1       7.839   8.780  16.377  0.00  0.00    +0.000 HD
ENDROOT
BRANCH   2   5
ATOM      5  C   UNL     1       6.012   6.888  16.421  0.00  0.00    +0.000 C 
ATOM      6  C   UNL     1       4.573   6.571  16.909  0.00  0.00    +0.000 C 
ATOM      7  C   UNL     1       4.381   5.112  17.123  0.00  0.00    +0.000 A 
ATOM      8  C   UNL     1       5.322   4.190  16.719  0.00  0.00    +0.000 A 
ATOM      9  N   UNL     1       4.841   2.941  17.013  0.00  0.00    +0.000 N 
ATOM     10  C   UNL     1       3.611   3.045  17.625  0.00  0.00    +0.000 A 
ATOM     11  C   UNL     1       2.755   2.045  18.110  0.00  0.00    +0.000 A 
ATOM     12  C   UNL     1       1.555   2.451  18.703  0.00  0.00    +0.000 A 
ATOM     13  C   UNL     1       1.221   3.799  18.803  0.00  0.00    +0.000 A 
ATOM     14  C   UNL     1       2.082   4.785  18.308  0.00  0.00    +0.000 A 
ATOM     15  C   UNL     1       3.300   4.403  17.710  0.00  0.00    +0.000 A 
ATOM     16  C   UNL     1       6.640   4.482  16.090  0.00  0.00    +0.000 C 
ATOM     17  C   UNL     1       7.795   4.247  17.059  0.00  0.00    +0.000 C 
ATOM     18  N   UNL     1       6.649   5.856  15.532  0.00  0.00    +0.000 NA
ATOM     19  H   UNL     1       5.314   2.068  16.828  0.00  0.00    +0.000 HD
ATOM     20  H   UNL     1       6.059   5.812  14.697  0.00  0.00    +0.000 HD
ENDBRANCH   2   5
BRANCH   1  23
ATOM     21  C   UNL     1       8.807  10.296  18.410  0.00  0.00    +0.000 C 
ATOM     22  O   UNL     1       8.370  11.139  17.625  0.00  0.00    +0.000 OA
ATOM     23  N   UNL     1       8.442   8.967  18.372  0.00  0.00    +0.000 N 
ATOM     24  H   UNL     1       9.005   8.249  18.829  0.00  0.00    +0.000 HD
BRANCH  21  25
ATOM     25  C   UNL     1       9.817  10.627  19.537  0.00  0.00    +0.000 C 
BRANCH  25  26
ATOM     26  N   UNL     1      11.013  11.267  18.939  0.00  0.00    +0.000 NA
ATOM     27  H   UNL     1      11.244  12.083  19.515  0.00  0.00    +0.000 HD
ATOM     28  H   UNL     1      10.750  11.671  18.039  0.00  0.00    +0.000 HD
ENDBRANCH  25  26
BRANCH  25  29
ATOM     29  C   UNL     1       9.231  11.584  20.588  0.00  0.00    +0.000 C 
BRANCH  29  31
ATOM     30  C   UNL     1       8.540  13.866  19.648  0.00  0.00    +0.000 C 
ATOM     31  C   UNL     1       9.585  13.079  20.440  0.00  0.00    +0.000 C 
ATOM     32  C   UNL     1       9.740  13.709  21.830  0.00  0.00    +0.000 C 
ENDBRANCH  29  31
ENDBRANCH  25  29
ENDBRANCH  21  25
ENDBRANCH   1  23
TORSDOF 6
ENDMDL
MODEL 3
REMARK VINA RESULT:      -8.4      5.326      7.718
REMARK  Name = 
REMARK  9 active torsions:
REMARK  status: ('A' for Active; 'I' for Inactive)
REMARK    1  A    between atoms: C_1  and  C_2
REMARK    2  A    between atoms: C_2  and  C_3
REMARK    3  A    between atoms: C_2  and  C_4
REMARK    4  A    between atoms: C_4  and  C_5
REMARK    5  A    between atoms: C_5  and  N_6
REMARK    6  A    between atoms: C_5  and  C_7
REMARK    7  A    between atoms: N_9  and  N_10
REMARK    8  A    between atoms: C_11  and  C_13
REMARK    9  A    between atoms: C_24  and  C_25
REMARK                            x       y       z     vdW  Elec       q    Type
REMARK                         _______ _______ _______ _____ _____    ______ ____
ROOT
ATOM      1  N   UNL     1       2.723   5.178  20.643  0.00  0.00    +0.000 N 
ATOM      2  C   UNL     1       2.246   3.896  20.865  0.00  0.00    +0.000 C 
ATOM      3  O   UNL     1       1.146   3.708  21.386  0.00  0.00    +0.000 OA
ATOM      4  H   UNL     1       3.723   5.338  20.511  0.00  0.00    +0.000 HD
ENDROOT
BRANCH   2   5
ATOM      5  C   UNL     1       3.129   2.787  20.269  0.00  0.00    +0.000 C 
ATOM      6  C   UNL     1       4.512   3.318  19.810  0.00  0.00    +0.000 C 
ATOM      7  C   UNL     1       4.527   3.614  18.353  0.00  0.00    +0.000 A 
ATOM      8  C   UNL     1       3.487   3.241  17.528  0.00  0.00    +0.000 A 
ATOM      9  N   UNL     1       3.811   3.610  16.249  0.00  0.00    +0.000 N 
ATOM     10  C   UNL     1       5.037   4.239  16.240  0.00  0.00    +0.000 A 
ATOM     11  C   UNL     1       5.762   4.792  15.173  0.00  0.00    +0.000 A 
ATOM     12  C   UNL     1       6.994   5.385  15.465  0.00  0.00    +0.000 A 
ATOM     13  C   UNL     1       7.486   5.420  16.769  0.00  0.00    +0.000 A 
ATOM     14  C   UNL     1       6.755   4.857  17.821  0.00  0.00    +0.000 A 
ATOM     15  C   UNL     1       5.508   4.257  17.554  0.00  0.00    +0.000 A 
ATOM     16  C   UNL     1       2.222   2.573  17.939  0.00  0.00    +0.000 C 
ATOM     17  C   UNL     1       1.034   3.530  17.897  0.00  0.00    +0.000 C 
ATOM     18  N   UNL     1       2.384   1.943  19.272  0.00  0.00    +0.000 NA
ATOM     19  H   UNL     1       3.240   3.463  15.429  0.00  0.00    +0.000 HD
ATOM     20  H   UNL     1       2.974   1.123  19.113  0.00  0.00    +0.000 HD
ENDBRANCH   2   5
BRANCH   1  23
ATOM     21  C   UNL     1       1.812   7.390  20.363  0.00  0.00    +0.000 C 
ATOM     22  O   UNL     1       2.290   7.517  19.235  0.00  0.00    +0.000 OA
ATOM     23  N   UNL     1       1.930   6.236  21.109  0.00  0.00    +0.000 N 
ATOM     24  H   UNL     1       1.780   6.239  22.118  0.00  0.00    +0.000 HD
BRANCH  21  25
ATOM     25  C   UNL     1       1.017   8.509  21.081  0.00  0.00    +0.000 C 
BRANCH  25  26
ATOM     26  N   UNL     1       1.726   8.881  22.327  0.00  0.00    +0.000 NA
ATOM     27  H   UNL     1       2.004   9.864  22.241  0.00  0.00    +0.000 HD
ATOM     28  H   UNL     1       2.615   8.380  22.357  0.00  0.00    +0.000 HD
ENDBRANCH  25  26
BRANCH  25  29
ATOM     29  C   UNL     1       0.868   9.771  20.214  0.00  0.00    +0.000 C 
BRANCH  29  31
ATOM     30  C   UNL     1      -1.077  11.439  20.198  0.00  0.00    +0.000 C 
ATOM     31  C   UNL     1      -0.549  10.094  19.697  0.00  0.00    +0.000 C 
ATOM     32  C   UNL     1      -0.547  10.096  18.163  0.00  0.00    +0.000 C 
ENDBRANCH  29  31
ENDBRANCH  25  29
ENDBRANCH  21  25
ENDBRANCH   1  23
TORSDOF 6
ENDMDL
MODEL 4
REMARK VINA RESULT:      -8.3      1.186      1.703
REMARK  Name = 
REMARK  9 active torsions:
REMARK  status: ('A' for Active; 'I' for Inactive)
REMARK    1  A    between atoms: C_1  and  C_2
REMARK    2  A    between atoms: C_2  and  C_3
REMARK    3  A    between atoms: C_2  and  C_4
REMARK    4  A    between atoms: C_4  and  C_5
REMARK    5  A    between atoms: C_5  and  N_6
REMARK    6  A    between atoms: C_5  and  C_7
REMARK    7  A    between atoms: N_9  and  N_10
REMARK    8  A    between atoms: C_11  and  C_13
REMARK    9  A    between atoms: C_24  and  C_25
REMARK                            x       y       z     vdW  Elec       q    Type
REMARK                         _______ _______ _______ _____ _____    ______ ____
ROOT
ATOM      1  N   UNL     1       7.690   8.894  17.402  0.00  0.00    +0.000 N 
ATOM      2  C   UNL     1       7.376   7.570  17.660  0.00  0.00    +0.000 C 
ATOM      3  O   UNL     1       7.940   6.945  18.559  0.00  0.00    +0.000 OA
ATOM      4  H   UNL     1       7.469   9.307  16.494  0.00  0.00    +0.000 HD
ENDROOT
BRANCH   2   5
ATOM      5  C   UNL     1       6.187   7.037  16.843  0.00  0.00    +0.000 C 
ATOM      6  C   UNL     1       4.878   6.985  17.675  0.00  0.00    +0.000 C 
ATOM      7  C   UNL     1       4.640   5.626  18.230  0.00  0.00    +0.000 A 
ATOM      8  C   UNL     1       5.400   4.543  17.845  0.00  0.00    +0.000 A 
ATOM      9  N   UNL     1       4.914   3.437  18.490  0.00  0.00    +0.000 N 
ATOM     10  C   UNL     1       3.864   3.795  19.308  0.00  0.00    +0.000 A 
ATOM     11  C   UNL     1       3.074   3.011  20.161  0.00  0.00    +0.000 A 
ATOM     12  C   UNL     1       2.069   3.656  20.890  0.00  0.00    +0.000 A 
ATOM     13  C   UNL     1       1.860   5.028  20.768  0.00  0.00    +0.000 A 
ATOM     14  C   UNL     1       2.652   5.796  19.908  0.00  0.00    +0.000 A 
ATOM     15  C   UNL     1       3.673   5.171  19.165  0.00  0.00    +0.000 A 
ATOM     16  C   UNL     1       6.558   4.557  16.909  0.00  0.00    +0.000 C 
ATOM     17  C   UNL     1       7.884   4.383  17.644  0.00  0.00    +0.000 C 
ATOM     18  N   UNL     1       6.534   5.788  16.082  0.00  0.00    +0.000 NA
ATOM     19  H   UNL     1       5.272   2.496  18.402  0.00  0.00    +0.000 HD
ATOM     20  H   UNL     1       5.769   5.652  15.416  0.00  0.00    +0.000 HD
ENDBRANCH   2   5
BRANCH   1  23
ATOM     21  C   UNL     1       8.934  10.820  18.143  0.00  0.00    +0.000 C 
ATOM     22  O   UNL     1       8.184  11.609  17.567  0.00  0.00    +0.000 OA
ATOM     23  N   UNL     1       8.727   9.456  18.160  0.00  0.00    +0.000 N 
ATOM     24  H   UNL     1       9.480   8.808  18.391  0.00  0.00    +0.000 HD
BRANCH  21  25
ATOM     25  C   UNL     1      10.199  11.262  18.919  0.00  0.00    +0.000 C 
BRANCH  25  26
ATOM     26  N   UNL     1      11.343  11.324  17.980  0.00  0.00    +0.000 NA
ATOM     27  H   UNL     1      11.451  12.301  17.692  0.00  0.00    +0.000 HD
ATOM     28  H   UNL     1      11.083  10.844  17.117  0.00  0.00    +0.000 HD
ENDBRANCH  25  26
BRANCH  25  29
ATOM     29  C   UNL     1      10.033  12.644  19.573  0.00  0.00    +0.000 C 
BRANCH  29  31
ATOM     30  C   UNL     1       9.944  14.108  21.674  0.00  0.00    +0.000 C 
ATOM     31  C   UNL     1      10.057  12.690  21.115  0.00  0.00    +0.000 C 
ATOM     32  C   UNL     1       8.908  11.839  21.669  0.00  0.00    +0.000 C 
ENDBRANCH  29  31
ENDBRANCH  25  29
ENDBRANCH  21  25
ENDBRANCH   1  23
TORSDOF 6
ENDMDL
MODEL 5
REMARK VINA RESULT:      -8.2      7.362     10.662
REMARK  Name = 
REMARK  9 active torsions:
REMARK  status: ('A' for Active; 'I' for Inactive)
REMARK    1  A    between atoms: C_1  and  C_2
REMARK    2  A    between atoms: C_2  and  C_3
REMARK    3  A    between atoms: C_2  and  C_4
REMARK    4  A    between atoms: C_4  and  C_5
REMARK    5  A    between atoms: C_5  and  N_6
REMARK    6  A    between atoms: C_5  and  C_7
REMARK    7  A    between atoms: N_9  and  N_10
REMARK    8  A    between atoms: C_11  and  C_13
REMARK    9  A    between atoms: C_24  and  C_25
REMARK                            x       y       z     vdW  Elec       q    Type
REMARK                         _______ _______ _______ _____ _____    ______ ____
ROOT
ATOM      1  N   UNL     1       1.405   9.412  19.373  0.00  0.00    +0.000 N 
ATOM      2  C   UNL     1       0.300   9.981  19.987  0.00  0.00    +0.000 C 
ATOM      3  O   UNL     1      -0.351   9.361  20.828  0.00  0.00    +0.000 OA
ATOM      4  H   UNL     1       1.745   9.781  18.484  0.00  0.00    +0.000 HD
ENDROOT
BRANCH   2   5
ATOM      5  C   UNL     1       0.083  11.463  19.637  0.00  0.00    +0.000 C 
ATOM      6  C   UNL     1      -0.868  12.171  20.637  0.00  0.00    +0.000 C 
ATOM      7  C   UNL     1      -2.262  12.219  20.123  0.00  0.00    +0.000 A 
ATOM      8  C   UNL     1      -2.569  11.860  18.828  0.00  0.00    +0.000 A 
ATOM      9  N   UNL     1      -3.913  12.051  18.646  0.00  0.00    +0.000 N 
ATOM     10  C   UNL     1      -4.484  12.507  19.814  0.00  0.00    +0.000 A 
ATOM     11  C   UNL     1      -5.819  12.826  20.104  0.00  0.00    +0.000 A 
ATOM     12  C   UNL     1      -6.115  13.262  21.400  0.00  0.00    +0.000 A 
ATOM     13  C   UNL     1      -5.118  13.379  22.365  0.00  0.00    +0.000 A 
ATOM     14  C   UNL     1      -3.790  13.063  22.059  0.00  0.00    +0.000 A 
ATOM     15  C   UNL     1      -3.465  12.618  20.762  0.00  0.00    +0.000 A 
ATOM     16  C   UNL     1      -1.625  11.337  17.803  0.00  0.00    +0.000 C 
ATOM     17  C   UNL     1      -1.821   9.843  17.559  0.00  0.00    +0.000 C 
ATOM     18  N   UNL     1      -0.228  11.662  18.179  0.00  0.00    +0.000 NA
ATOM     19  H   UNL     1      -4.425  11.874  17.793  0.00  0.00    +0.000 HD
ATOM     20  H   UNL     1      -0.131  12.667  18.013  0.00  0.00    +0.000 HD
ENDBRANCH   2   5
BRANCH   1  23
ATOM     21  C   UNL     1       2.509   7.329  18.883  0.00  0.00    +0.000 C 
ATOM     22  O   UNL     1       3.101   7.794  17.909  0.00  0.00    +0.000 OA
ATOM     23  N   UNL     1       1.691   8.080  19.701  0.00  0.00    +0.000 N 
ATOM     24  H   UNL     1       1.007   7.639  20.315  0.00  0.00    +0.000 HD
BRANCH  21  25
ATOM     25  C   UNL     1       2.612   5.843  19.310  0.00  0.00    +0.000 C 
BRANCH  25  26
ATOM     26  N   UNL     1       4.005   5.558  19.728  0.00  0.00    +0.000 NA
ATOM     27  H   UNL     1       4.432   4.979  18.998  0.00  0.00    +0.000 HD
ATOM     28  H   UNL     1       3.980   4.942  20.542  0.00  0.00    +0.000 HD
ENDBRANCH  25  26
BRANCH  25  29
ATOM     29  C   UNL     1       1.675   5.503  20.481  0.00  0.00    +0.000 C 
BRANCH  29  31
ATOM     30  C   UNL     1       1.161   3.373  19.152  0.00  0.00    +0.000 C 
ATOM     31  C   UNL     1       1.088   4.076  20.508  0.00  0.00    +0.000 C 
ATOM     32  C   UNL     1       1.835   3.235  21.550  0.00  0.00    +0.000 C 
ENDBRANCH  29  31
ENDBRANCH  25  29
ENDBRANCH  21  25
ENDBRANCH   1  23
TORSDOF 6
ENDMDL
MODEL 6
REMARK VINA RESULT:      -8.2      6.859     10.442
REMARK  Name = 
REMARK  9 active torsions:
REMARK  status: ('A' for Active; 'I' for Inactive)
REMARK    1  A    between atoms: C_1  and  C_2
REMARK    2  A    between atoms: C_2  and  C_3
REMARK    3  A    between atoms: C_2  and  C_4
REMARK    4  A    between atoms: C_4  and  C_5
REMARK    5  A    between atoms: C_5  and  N_6
REMARK    6  A    between atoms: C_5  and  C_7
REMARK    7  A    between atoms: N_9  and  N_10
REMARK    8  A    between atoms: C_11  and  C_13
REMARK    9  A    between atoms: C_24  and  C_25
REMARK                            x       y       z     vdW  Elec       q    Type
REMARK                         _______ _______ _______ _____ _____    ______ ____
ROOT
ATOM      1  N   UNL     1       1.787   8.080  20.877  0.00  0.00    +0.000 N 
ATOM      2  C   UNL     1       0.655   8.784  21.253  0.00  0.00    +0.000 C 
ATOM      3  O   UNL     1      -0.404   8.203  21.497  0.00  0.00    +0.000 OA
ATOM      4  H   UNL     1       2.546   8.555  20.386  0.00  0.00    +0.000 HD
ENDROOT
BRANCH   2   5
ATOM      5  C   UNL     1       0.896  10.285  21.480  0.00  0.00    +0.000 C 
ATOM      6  C   UNL     1      -0.134  10.906  22.461  0.00  0.00    +0.000 C 
ATOM      7  C   UNL     1      -1.251  11.564  21.733  0.00  0.00    +0.000 A 
ATOM      8  C   UNL     1      -1.213  11.756  20.369  0.00  0.00    +0.000 A 
ATOM      9  N   UNL     1      -2.355  12.420  20.005  0.00  0.00    +0.000 N 
ATOM     10  C   UNL     1      -3.142  12.639  21.115  0.00  0.00    +0.000 A 
ATOM     11  C   UNL     1      -4.393  13.264  21.226  0.00  0.00    +0.000 A 
ATOM     12  C   UNL     1      -4.971  13.335  22.498  0.00  0.00    +0.000 A 
ATOM     13  C   UNL     1      -4.324  12.808  23.613  0.00  0.00    +0.000 A 
ATOM     14  C   UNL     1      -3.073  12.194  23.487  0.00  0.00    +0.000 A 
ATOM     15  C   UNL     1      -2.471  12.106  22.216  0.00  0.00    +0.000 A 
ATOM     16  C   UNL     1      -0.140  11.310  19.438  0.00  0.00    +0.000 C 
ATOM     17  C   UNL     1      -0.582  10.121  18.590  0.00  0.00    +0.000 C 
ATOM     18  N   UNL     1       1.107  11.028  20.190  0.00  0.00    +0.000 NA
ATOM     19  H   UNL     1      -2.602  12.700  19.066  0.00  0.00    +0.000 HD
ATOM     20  H   UNL     1       1.474  11.945  20.458  0.00  0.00    +0.000 HD
ENDBRANCH   2   5
BRANCH   1  23
ATOM     21  C   UNL     1       2.266   6.056  19.663  0.00  0.00    +0.000 C 
ATOM     22  O   UNL     1       3.041   6.623  18.891  0.00  0.00    +0.000 OA
ATOM     23  N   UNL     1       1.645   6.695  20.715  0.00  0.00    +0.000 N 
ATOM     24  H   UNL     1       0.816   6.301  21.160  0.00  0.00    +0.000 HD
BRANCH  21  25
ATOM     25  C   UNL     1       1.896   4.557  19.546  0.00  0.00    +0.000 C 
BRANCH  25  26
ATOM     26  N   UNL     1       0.705   4.288  20.385  0.00  0.00    +0.000 NA
ATOM     27  H   UNL     1       1.015   4.271  21.362  0.00  0.00    +0.000 HD
ATOM     28  H   UNL     1       0.395   3.330  20.213  0.00  0.00    +0.000 HD
ENDBRANCH  25  26
BRANCH  25  29
ATOM     29  C   UNL     1       1.574   4.142  18.100  0.00  0.00    +0.000 C 
BRANCH  29  31
ATOM     30  C   UNL     1       3.867   3.805  17.008  0.00  0.00    +0.000 C 
ATOM     31  C   UNL     1       2.549   3.154  17.428  0.00  0.00    +0.000 C 
ATOM     32  C   UNL     1       2.845   1.995  18.388  0.00  0.00    +0.000 C 
ENDBRANCH  29  31
ENDBRANCH  25  29
ENDBRANCH  21  25
ENDBRANCH   1  23
TORSDOF 6
ENDMDL
MODEL 7
REMARK VINA RESULT:      -8.2      5.189      7.764
REMARK  Name = 
REMARK  9 active torsions:
REMARK  status: ('A' for Active; 'I' for Inactive)
REMARK    1  A    between atoms: C_1  and  C_2
REMARK    2  A    between atoms: C_2  and  C_3
REMARK    3  A    between atoms: C_2  and  C_4
REMARK    4  A    between atoms: C_4  and  C_5
REMARK    5  A    between atoms: C_5  and  N_6
REMARK    6  A    between atoms: C_5  and  C_7
REMARK    7  A    between atoms: N_9  and  N_10
REMARK    8  A    between atoms: C_11  and  C_13
REMARK    9  A    between atoms: C_24  and  C_25
REMARK                            x       y       z     vdW  Elec       q    Type
REMARK                         _______ _______ _______ _____ _____    ______ ____
ROOT
ATOM      1  N   UNL     1       2.755   6.848  19.606  0.00  0.00    +0.000 N 
ATOM      2  C   UNL     1       2.311   5.735  20.301  0.00  0.00    +0.000 C 
ATOM      3  O   UNL     1       1.175   5.692  20.775  0.00  0.00    +0.000 OA
ATOM      4  H   UNL     1       3.756   7.015  19.491  0.00  0.00    +0.000 HD
ENDROOT
BRANCH   2   5
ATOM      5  C   UNL     1       3.290   4.550  20.278  0.00  0.00    +0.000 C 
ATOM      6  C   UNL     1       4.628   4.904  19.577  0.00  0.00    +0.000 C 
ATOM      7  C   UNL     1       4.630   4.466  18.156  0.00  0.00    +0.000 A 
ATOM      8  C   UNL     1       3.634   3.664  17.643  0.00  0.00    +0.000 A 
ATOM      9  N   UNL     1       3.937   3.400  16.334  0.00  0.00    +0.000 N 
ATOM     10  C   UNL     1       5.105   4.043  15.985  0.00  0.00    +0.000 A 
ATOM     11  C   UNL     1       5.789   4.074  14.761  0.00  0.00    +0.000 A 
ATOM     12  C   UNL     1       6.964   4.830  14.694  0.00  0.00    +0.000 A 
ATOM     13  C   UNL     1       7.439   5.523  15.806  0.00  0.00    +0.000 A 
ATOM     14  C   UNL     1       6.749   5.476  17.022  0.00  0.00    +0.000 A 
ATOM     15  C   UNL     1       5.560   4.725  17.115  0.00  0.00    +0.000 A 
ATOM     16  C   UNL     1       2.426   3.176  18.365  0.00  0.00    +0.000 C 
ATOM     17  C   UNL     1       1.162   3.899  17.909  0.00  0.00    +0.000 C 
ATOM     18  N   UNL     1       2.629   3.275  19.830  0.00  0.00    +0.000 NA
ATOM     19  H   UNL     1       3.387   2.834  15.702  0.00  0.00    +0.000 HD
ATOM     20  H   UNL     1       3.289   2.528  20.063  0.00  0.00    +0.000 HD
ENDBRANCH   2   5
BRANCH   1  23
ATOM     21  C   UNL     1       1.872   8.750  18.422  0.00  0.00    +0.000 C 
ATOM     22  O   UNL     1       2.532   8.511  17.410  0.00  0.00    +0.000 OA
ATOM     23  N   UNL     1       1.880   7.940  19.538  0.00  0.00    +0.000 N 
ATOM     24  H   UNL     1       1.562   8.284  20.445  0.00  0.00    +0.000 HD
BRANCH  21  25
ATOM     25  C   UNL     1       0.951   9.988  18.564  0.00  0.00    +0.000 C 
BRANCH  25  26
ATOM     26  N   UNL     1       1.683  11.189  18.096  0.00  0.00    +0.000 NA
ATOM     27  H   UNL     1       2.684  10.974  18.141  0.00  0.00    +0.000 HD
ATOM     28  H   UNL     1       1.563  11.932  18.786  0.00  0.00    +0.000 HD
ENDBRANCH  25  26
BRANCH  25  29
ATOM     29  C   UNL     1      -0.340   9.856  17.739  0.00  0.00    +0.000 C 
BRANCH  29  31
ATOM     30  C   UNL     1      -1.781  11.705  18.775  0.00  0.00    +0.000 C 
ATOM     31  C   UNL     1      -1.660  10.215  18.454  0.00  0.00    +0.000 C 
ATOM     32  C   UNL     1      -2.847   9.792  17.580  0.00  0.00    +0.000 C 
ENDBRANCH  29  31
ENDBRANCH  25  29
ENDBRANCH  21  25
ENDBRANCH   1  23
TORSDOF 6
ENDMDL
MODEL 8
REMARK VINA RESULT:      -8.2      8.067     10.859
REMARK  Name = 
REMARK  9 active torsions:
REMARK  status: ('A' for Active; 'I' for Inactive)
REMARK    1  A    between atoms: C_1  and  C_2
REMARK    2  A    between atoms: C_2  and  C_3
REMARK    3  A    between atoms: C_2  and  C_4
REMARK    4  A    between atoms: C_4  and  C_5
REMARK    5  A    between atoms: C_5  and  N_6
REMARK    6  A    between atoms: C_5  and  C_7
REMARK    7  A    between atoms: N_9  and  N_10
REMARK    8  A    between atoms: C_11  and  C_13
REMARK    9  A    between atoms: C_24  and  C_25
REMARK                            x       y       z     vdW  Elec       q    Type
REMARK                         _______ _______ _______ _____ _____    ______ ____
ROOT
ATOM      1  N   UNL     1       0.636  10.457  18.709  0.00  0.00    +0.000 N 
ATOM      2  C   UNL     1      -0.497  10.821  19.417  0.00  0.00    +0.000 C 
ATOM      3  O   UNL     1      -0.854  10.193  20.415  0.00  0.00    +0.000 OA
ATOM      4  H   UNL     1       0.757  10.760  17.741  0.00  0.00    +0.000 HD
ENDROOT
BRANCH   2   5
ATOM      5  C   UNL     1      -1.139  12.134  18.939  0.00  0.00    +0.000 C 
ATOM      6  C   UNL     1      -2.280  12.608  19.879  0.00  0.00    +0.000 C 
ATOM      7  C   UNL     1      -3.613  12.192  19.370  0.00  0.00    +0.000 A 
ATOM      8  C   UNL     1      -3.771  11.647  18.113  0.00  0.00    +0.000 A 
ATOM      9  N   UNL     1      -5.107  11.411  17.922  0.00  0.00    +0.000 N 
ATOM     10  C   UNL     1      -5.813  11.773  19.049  0.00  0.00    +0.000 A 
ATOM     11  C   UNL     1      -7.188  11.701  19.316  0.00  0.00    +0.000 A 
ATOM     12  C   UNL     1      -7.628  12.137  20.570  0.00  0.00    +0.000 A 
ATOM     13  C   UNL     1      -6.732  12.630  21.516  0.00  0.00    +0.000 A 
ATOM     14  C   UNL     1      -5.364  12.702  21.232  0.00  0.00    +0.000 A 
ATOM     15  C   UNL     1      -4.894  12.265  19.978  0.00  0.00    +0.000 A 
ATOM     16  C   UNL     1      -2.692  11.345  17.133  0.00  0.00    +0.000 C 
ATOM     17  C   UNL     1      -2.428   9.846  17.023  0.00  0.00    +0.000 C 
ATOM     18  N   UNL     1      -1.464  12.106  17.472  0.00  0.00    +0.000 NA
ATOM     19  H   UNL     1      -5.524  11.016  17.090  0.00  0.00    +0.000 HD
ATOM     20  H   UNL     1      -1.669  13.075  17.218  0.00  0.00    +0.000 HD
ENDBRANCH   2   5
BRANCH   1  23
ATOM     21  C   UNL     1       2.112   8.606  18.262  0.00  0.00    +0.000 C 
ATOM     22  O   UNL     1       2.373   9.001  17.125  0.00  0.00    +0.000 OA
ATOM     23  N   UNL     1       1.303   9.301  19.137  0.00  0.00    +0.000 N 
ATOM     24  H   UNL     1       0.880   8.843  19.945  0.00  0.00    +0.000 HD
BRANCH  21  25
ATOM     25  C   UNL     1       2.662   7.282  18.848  0.00  0.00    +0.000 C 
BRANCH  25  26
ATOM     26  N   UNL     1       2.142   7.112  20.225  0.00  0.00    +0.000 NA
ATOM     27  H   UNL     1       2.148   8.035  20.671  0.00  0.00    +0.000 HD
ATOM     28  H   UNL     1       2.822   6.577  20.766  0.00  0.00    +0.000 HD
ENDBRANCH  25  26
BRANCH  25  29
ATOM     29  C   UNL     1       2.245   6.055  18.019  0.00  0.00    +0.000 C 
BRANCH  29  31
ATOM     30  C   UNL     1       1.422   3.649  18.335  0.00  0.00    +0.000 C 
ATOM     31  C   UNL     1       2.517   4.671  18.643  0.00  0.00    +0.000 C 
ATOM     32  C   UNL     1       3.861   4.135  18.134  0.00  0.00    +0.000 C 
ENDBRANCH  29  31
ENDBRANCH  25  29
ENDBRANCH  21  25
ENDBRANCH   1  23
TORSDOF 6
ENDMDL
MODEL 9
REMARK VINA RESULT:      -8.2      7.596     10.806
REMARK  Name = 
REMARK  9 active torsions:
REMARK  status: ('A' for Active; 'I' for Inactive)
REMARK    1  A    between atoms: C_1  and  C_2
REMARK    2  A    between atoms: C_2  and  C_3
REMARK    3  A    between atoms: C_2  and  C_4
REMARK    4  A    between atoms: C_4  and  C_5
REMARK    5  A    between atoms: C_5  and  N_6
REMARK    6  A    between atoms: C_5  and  C_7
REMARK    7  A    between atoms: N_9  and  N_10
REMARK    8  A    between atoms: C_11  and  C_13
REMARK    9  A    between atoms: C_24  and  C_25
REMARK                            x       y       z     vdW  Elec       q    Type
REMARK                         _______ _______ _______ _____ _____    ______ ____
ROOT
ATOM      1  N   UNL     1      -1.171  11.865  18.035  0.00  0.00    +0.000 N 
ATOM      2  C   UNL     1      -0.501  10.653  18.017  0.00  0.00    +0.000 C 
ATOM      3  O   UNL     1      -1.015   9.648  17.525  0.00  0.00    +0.000 OA
ATOM      4  H   UNL     1      -0.897  12.594  18.695  0.00  0.00    +0.000 HD
ENDROOT
BRANCH   2   5
ATOM      5  C   UNL     1       0.953  10.734  18.511  0.00  0.00    +0.000 C 
ATOM      6  C   UNL     1       1.838   9.601  17.926  0.00  0.00    +0.000 C 
ATOM      7  C   UNL     1       1.960   8.462  18.874  0.00  0.00    +0.000 A 
ATOM      8  C   UNL     1       1.506   8.548  20.172  0.00  0.00    +0.000 A 
ATOM      9  N   UNL     1       1.799   7.366  20.800  0.00  0.00    +0.000 N 
ATOM     10  C   UNL     1       2.415   6.507  19.916  0.00  0.00    +0.000 A 
ATOM     11  C   UNL     1       2.879   5.196  20.104  0.00  0.00    +0.000 A 
ATOM     12  C   UNL     1       3.463   4.552  19.008  0.00  0.00    +0.000 A 
ATOM     13  C   UNL     1       3.583   5.192  17.777  0.00  0.00    +0.000 A 
ATOM     14  C   UNL     1       3.122   6.502  17.607  0.00  0.00    +0.000 A 
ATOM     15  C   UNL     1       2.526   7.172  18.694  0.00  0.00    +0.000 A 
ATOM     16  C   UNL     1       0.804   9.704  20.794  0.00  0.00    +0.000 C 
ATOM     17  C   UNL     1      -0.683   9.424  20.995  0.00  0.00    +0.000 C 
ATOM     18  N   UNL     1       1.038  10.934  19.998  0.00  0.00    +0.000 NA
ATOM     19  H   UNL     1       1.587   7.139  21.761  0.00  0.00    +0.000 HD
ATOM     20  H   UNL     1       2.009  11.195  20.185  0.00  0.00    +0.000 HD
ENDBRANCH   2   5
BRANCH   1  23
ATOM     21  C   UNL     1      -3.550  11.917  18.410  0.00  0.00    +0.000 C 
ATOM     22  O   UNL     1      -3.423  12.063  19.626  0.00  0.00    +0.000 OA
ATOM     23  N   UNL     1      -2.482  11.868  17.538  0.00  0.00    +0.000 N 
ATOM     24  H   UNL     1      -2.580  11.477  16.601  0.00  0.00    +0.000 HD
BRANCH  21  25
ATOM     25  C   UNL     1      -4.925  11.772  17.710  0.00  0.00    +0.000 C 
BRANCH  25  26
ATOM     26  N   UNL     1      -4.715  11.245  16.341  0.00  0.00    +0.000 NA
ATOM     27  H   UNL     1      -5.000  10.260  16.345  0.00  0.00    +0.000 HD
ATOM     28  H   UNL     1      -3.712  11.207  16.157  0.00  0.00    +0.000 HD
ENDBRANCH  25  26
BRANCH  25  29
ATOM     29  C   UNL     1      -5.866  10.814  18.459  0.00  0.00    +0.000 C 
BRANCH  29  31
ATOM     30  C   UNL     1      -7.275  11.197  20.566  0.00  0.00    +0.000 C 
ATOM     31  C   UNL     1      -7.147  11.429  19.060  0.00  0.00    +0.000 C 
ATOM     32  C   UNL     1      -7.171  12.937  18.780  0.00  0.00    +0.000 C 
ENDBRANCH  29  31
ENDBRANCH  25  29
ENDBRANCH  21  25
ENDBRANCH   1  23
TORSDOF 6
ENDMDL
