MODEL 1
REMARK VINA RESULT:      -7.4      0.000      0.000
REMARK  Name = 
REMARK  13 active torsions:
REMARK  status: ('A' for Active; 'I' for Inactive)
REMARK    1  A    between atoms: C_1  and  C_2
REMARK    2  A    between atoms: N_4  and  C_5
REMARK    3  A    between atoms: C_8  and  S_9
REMARK    4  A    between atoms: S_9  and  C_10
REMARK    5  A    between atoms: C_10  and  C_11
REMARK    6  A    between atoms: C_11  and  C_12
REMARK    7  A    between atoms: C_11  and  N_16
REMARK    8  A    between atoms: C_12  and  C_13
REMARK    9  A    between atoms: C_13  and  C_14
REMARK   10  A    between atoms: C_13  and  C_15
REMARK   11  A    between atoms: N_19  and  C_20
REMARK   12  A    between atoms: C_20  and  C_21
REMARK   13  A    between atoms: C_21  and  C_22
REMARK                            x       y       z     vdW  Elec       q    Type
REMARK                         _______ _______ _______ _____ _____    ______ ____
ROOT
ATOM      1  C   UNL     1       2.877   6.702  18.915  0.00  0.00    +0.000 C 
ENDROOT
BRANCH   1   2
ATOM      2  N   UNL     1       1.967   7.865  19.109  0.00  0.00    +0.000 N 
ATOM      3  C   UNL     1       1.508   8.635  17.949  0.00  0.00    +0.000 C 
ATOM      4  C   UNL     1       1.895  10.128  18.020  0.00  0.00    +0.000 C 
ATOM      5  N   UNL     1       1.032  10.983  18.855  0.00  0.00    +0.000 NA
ATOM      6  C   UNL     1       1.069  10.554  20.260  0.00  0.00    +0.000 C 
ATOM      7  C   UNL     1       0.443   9.198  20.569  0.00  0.00    +0.000 C 
ATOM      8  C   UNL     1       1.405   8.047  20.368  0.00  0.00    +0.000 C 
ATOM      9  O   UNL     1       1.638   7.281  21.311  0.00  0.00    +0.000 OA
BRANCH   5  10
ATOM     10  C   UNL     1      -0.312  11.130  18.270  0.00  0.00    +0.000 C 
BRANCH  10  11
ATOM     11  C   UNL     1      -1.251  12.082  19.025  0.00  0.00    +0.000 C 
BRANCH  11  12
ATOM     12  C   UNL     1      -2.687  11.855  18.611  0.00  0.00    +0.000 A 
ATOM     13  C   UNL     1      -2.987  11.336  17.343  0.00  0.00    +0.000 A 
ATOM     14  C   UNL     1      -4.314  11.153  16.951  0.00  0.00    +0.000 A 
ATOM     15  C   UNL     1      -5.349  11.495  17.820  0.00  0.00    +0.000 A 
ATOM     16  C   UNL     1      -5.060  12.022  19.078  0.00  0.00    +0.000 A 
ATOM     17  C   UNL     1      -3.735  12.204  19.471  0.00  0.00    +0.000 A 
ENDBRANCH  11  12
ENDBRANCH  10  11
ENDBRANCH   5  10
ENDBRANCH   1   2
BRANCH   1  18
ATOM     18  C   UNL     1       4.195   7.020  18.172  0.00  0.00    +0.000 C 
BRANCH  18  19
ATOM     19  S   UNL     1       5.550   5.869  18.607  0.00  0.00    +0.000 S 
BRANCH  19  23
ATOM     20  C   UNL     1       6.266   3.888  14.523  0.00  0.00    +0.000 A 
ATOM     21  C   UNL     1       5.203   3.501  15.338  0.00  0.00    +0.000 A 
ATOM     22  C   UNL     1       4.977   4.125  16.569  0.00  0.00    +0.000 A 
ATOM     23  C   UNL     1       5.819   5.146  17.003  0.00  0.00    +0.000 A 
ATOM     24  C   UNL     1       6.866   5.564  16.179  0.00  0.00    +0.000 A 
ATOM     25  C   UNL     1       7.098   4.933  14.951  0.00  0.00    +0.000 A 
BRANCH  20  29
ATOM     26  C   UNL     1       6.306   2.154  11.181  0.00  0.00    +0.000 C 
ATOM     27  C   UNL     1       5.716   3.047  12.240  0.00  0.00    +0.000 C 
ATOM     28  O   UNL     1       4.579   3.487  12.121  0.00  0.00    +0.000 OA
ATOM     29  N   UNL     1       6.580   3.257  13.301  0.00  0.00    +0.000 N 
ATOM     30  H   UNL     1       7.538   2.955  13.182  0.00  0.00    +0.000 HD
ENDBRANCH  20  29
ENDBRANCH  19  23
ENDBRANCH  18  19
ENDBRANCH   1  18
BRANCH   1  31
ATOM     31  C   UNL     1       2.099   5.530  18.255  0.00  0.00    +0.000 C 
BRANCH  31  32
ATOM     32  C   UNL     1       2.049   4.216  19.067  0.00  0.00    +0.000 C 
ATOM     33  C   UNL     1       1.093   4.298  20.258  0.00  0.00    +0.000 C 
ATOM     34  C   UNL     1       1.653   3.042  18.169  0.00  0.00    +0.000 C 
ENDBRANCH  31  32
ENDBRANCH   1  31
TORSDOF 10
ENDMDL
MODEL 2
REMARK VINA RESULT:      -7.2      1.318      1.811
REMARK  Name = 
REMARK  13 active torsions:
REMARK  status: ('A' for Active; 'I' for Inactive)
REMARK    1  A    between atoms: C_1  and  C_2
REMARK    2  A    between atoms: N_4  and  C_5
REMARK    3  A    between atoms: C_8  and  S_9
REMARK    4  A    between atoms: S_9  and  C_10
REMARK    5  A    between atoms: C_10  and  C_11
REMARK    6  A    between atoms: C_11  and  C_12
REMARK    7  A    between atoms: C_11  and  N_16
REMARK    8  A    between atoms: C_12  and  C_13
REMARK    9  A    between atoms: C_13  and  C_14
REMARK   10  A    between atoms: C_13  and  C_15
REMARK   11  A    between atoms: N_19  and  C_20
REMARK   12  A    between atoms: C_20  and  C_21
REMARK   13  A    between atoms: C_21  and  C_22
REMARK                            x       y       z     vdW  Elec       q    Type
REMARK                         _______ _______ _______ _____ _____    ______ ____
ROOT
ATOM      1  C   UNL     1       3.131   5.013  18.908  0.00  0.00    +0.000 C 
ENDROOT
BRANCH   1   2
ATOM      2  N   UNL     1       2.252   6.110  19.401  0.00  0.00    +0.000 N 
ATOM      3  C   UNL     1       1.704   7.088  18.455  0.00  0.00    +0.000 C 
ATOM      4  C   UNL     1       2.111   8.541  18.782  0.00  0.00    +0.000 C 
ATOM      5  N   UNL     1       1.329   9.211  19.837  0.00  0.00    +0.000 NA
ATOM      6  C   UNL     1       1.481   8.518  21.124  0.00  0.00    +0.000 C 
ATOM      7  C   UNL     1       0.870   7.124  21.216  0.00  0.00    +0.000 C 
ATOM      8  C   UNL     1       1.800   6.039  20.714  0.00  0.00    +0.000 C 
ATOM      9  O   UNL     1       2.105   5.107  21.467  0.00  0.00    +0.000 OA
BRANCH   5  10
ATOM     10  C   UNL     1      -0.058   9.460  19.408  0.00  0.00    +0.000 C 
BRANCH  10  11
ATOM     11  C   UNL     1      -0.264  10.733  18.574  0.00  0.00    +0.000 C 
BRANCH  11  12
ATOM     12  C   UNL     1      -1.646  10.754  17.963  0.00  0.00    +0.000 A 
ATOM     13  C   UNL     1      -1.938   9.964  16.842  0.00  0.00    +0.000 A 
ATOM     14  C   UNL     1      -3.206  10.005  16.261  0.00  0.00    +0.000 A 
ATOM     15  C   UNL     1      -4.188  10.841  16.792  0.00  0.00    +0.000 A 
ATOM     16  C   UNL     1      -3.902  11.638  17.899  0.00  0.00    +0.000 A 
ATOM     17  C   UNL     1      -2.636  11.597  18.481  0.00  0.00    +0.000 A 
ENDBRANCH  11  12
ENDBRANCH  10  11
ENDBRANCH   5  10
ENDBRANCH   1   2
BRANCH   1  18
ATOM     18  C   UNL     1       4.626   5.383  18.774  0.00  0.00    +0.000 C 
BRANCH  18  19
ATOM     19  S   UNL     1       4.930   6.661  17.500  0.00  0.00    +0.000 S 
BRANCH  19  23
ATOM     20  C   UNL     1       6.180   3.938  14.017  0.00  0.00    +0.000 A 
ATOM     21  C   UNL     1       5.859   5.278  13.808  0.00  0.00    +0.000 A 
ATOM     22  C   UNL     1       5.503   6.107  14.876  0.00  0.00    +0.000 A 
ATOM     23  C   UNL     1       5.459   5.601  16.172  0.00  0.00    +0.000 A 
ATOM     24  C   UNL     1       5.812   4.268  16.397  0.00  0.00    +0.000 A 
ATOM     25  C   UNL     1       6.159   3.436  15.327  0.00  0.00    +0.000 A 
BRANCH  20  29
ATOM     26  C   UNL     1       6.206   1.526  11.126  0.00  0.00    +0.000 C 
ATOM     27  C   UNL     1       5.649   2.663  11.940  0.00  0.00    +0.000 C 
ATOM     28  O   UNL     1       4.554   3.142  11.671  0.00  0.00    +0.000 OA
ATOM     29  N   UNL     1       6.488   3.038  12.974  0.00  0.00    +0.000 N 
ATOM     30  H   UNL     1       7.425   2.654  12.970  0.00  0.00    +0.000 HD
ENDBRANCH  20  29
ENDBRANCH  19  23
ENDBRANCH  18  19
ENDBRANCH   1  18
BRANCH   1  31
ATOM     31  C   UNL     1       2.552   4.427  17.591  0.00  0.00    +0.000 C 
BRANCH  31  32
ATOM     32  C   UNL     1       2.109   2.947  17.653  0.00  0.00    +0.000 C 
ATOM     33  C   UNL     1       3.265   2.001  17.983  0.00  0.00    +0.000 C 
ATOM     34  C   UNL     1       0.985   2.763  18.675  0.00  0.00    +0.000 C 
ENDBRANCH  31  32
ENDBRANCH   1  31
TORSDOF 10
ENDMDL
MODEL 3
REMARK VINA RESULT:      -7.1      3.066     10.171
REMARK  Name = 
REMARK  13 active torsions:
REMARK  status: ('A' for Active; 'I' for Inactive)
REMARK    1  A    between atoms: C_1  and  C_2
REMARK    2  A    between atoms: N_4  and  C_5
REMARK    3  A    between atoms: C_8  and  S_9
REMARK    4  A    between atoms: S_9  and  C_10
REMARK    5  A    between atoms: C_10  and  C_11
REMARK    6  A    between atoms: C_11  and  C_12
REMARK    7  A    between atoms: C_11  and  N_16
REMARK    8  A    between atoms: C_12  and  C_13
REMARK    9  A    between atoms: C_13  and  C_14
REMARK   10  A    between atoms: C_13  and  C_15
REMARK   11  A    between atoms: N_19  and  C_20
REMARK   12  A    between atoms: C_20  and  C_21
REMARK   13  A    between atoms: C_21  and  C_22
REMARK                            x       y       z     vdW  Elec       q    Type
REMARK                         _______ _______ _______ _____ _____    ______ ____
ROOT
ATOM      1  C   UNL     1       2.385   6.106  19.383  0.00  0.00    +0.000 C 
ENDROOT
BRANCH   1   2
ATOM      2  N   UNL     1       3.596   6.018  18.521  0.00  0.00    +0.000 N 
ATOM      3  C   UNL     1       4.464   4.837  18.597  0.00  0.00    +0.000 C 
ATOM      4  C   UNL     1       5.919   5.179  18.984  0.00  0.00    +0.000 C 
ATOM      5  N   UNL     1       6.781   5.670  17.895  0.00  0.00    +0.000 NA
ATOM      6  C   UNL     1       6.270   6.934  17.348  0.00  0.00    +0.000 C 
ATOM      7  C   UNL     1       4.945   6.857  16.595  0.00  0.00    +0.000 C 
ATOM      8  C   UNL     1       3.743   6.961  17.509  0.00  0.00    +0.000 C 
ATOM      9  O   UNL     1       2.909   7.852  17.313  0.00  0.00    +0.000 OA
BRANCH   5  10
ATOM     10  C   UNL     1       7.057   4.614  16.905  0.00  0.00    +0.000 C 
BRANCH  10  11
ATOM     11  C   UNL     1       5.895   4.291  15.955  0.00  0.00    +0.000 C 
BRANCH  11  12
ATOM     12  C   UNL     1       6.366   4.283  14.519  0.00  0.00    +0.000 A 
ATOM     13  C   UNL     1       7.416   5.119  14.112  0.00  0.00    +0.000 A 
ATOM     14  C   UNL     1       7.831   5.132  12.779  0.00  0.00    +0.000 A 
ATOM     15  C   UNL     1       7.195   4.318  11.844  0.00  0.00    +0.000 A 
ATOM     16  C   UNL     1       6.142   3.493  12.238  0.00  0.00    +0.000 A 
ATOM     17  C   UNL     1       5.727   3.478  13.569  0.00  0.00    +0.000 A 
ENDBRANCH  11  12
ENDBRANCH  10  11
ENDBRANCH   5  10
ENDBRANCH   1   2
BRANCH   1  18
ATOM     18  C   UNL     1       2.138   7.491  20.023  0.00  0.00    +0.000 C 
BRANCH  18  19
ATOM     19  S   UNL     1       0.866   7.448  21.339  0.00  0.00    +0.000 S 
BRANCH  19  23
ATOM     20  C   UNL     1      -0.404  11.857  21.082  0.00  0.00    +0.000 A 
ATOM     21  C   UNL     1       0.062  11.172  19.960  0.00  0.00    +0.000 A 
ATOM     22  C   UNL     1       0.424   9.824  20.041  0.00  0.00    +0.000 A 
ATOM     23  C   UNL     1       0.327   9.142  21.251  0.00  0.00    +0.000 A 
ATOM     24  C   UNL     1      -0.170   9.810  22.372  0.00  0.00    +0.000 A 
ATOM     25  C   UNL     1      -0.523  11.163  22.294  0.00  0.00    +0.000 A 
BRANCH  20  29
ATOM     26  C   UNL     1      -0.736  15.561  21.673  0.00  0.00    +0.000 C 
ATOM     27  C   UNL     1      -0.003  14.245  21.680  0.00  0.00    +0.000 C 
ATOM     28  O   UNL     1       1.102  14.151  22.200  0.00  0.00    +0.000 OA
ATOM     29  N   UNL     1      -0.726  13.231  21.077  0.00  0.00    +0.000 N 
ATOM     30  H   UNL     1      -1.552  13.499  20.558  0.00  0.00    +0.000 HD
ENDBRANCH  20  29
ENDBRANCH  19  23
ENDBRANCH  18  19
ENDBRANCH   1  18
BRANCH   1  31
ATOM     31  C   UNL     1       2.408   4.968  20.440  0.00  0.00    +0.000 C 
BRANCH  31  32
ATOM     32  C   UNL     1       1.265   3.932  20.337  0.00  0.00    +0.000 C 
ATOM     33  C   UNL     1       1.171   3.299  18.947  0.00  0.00    +0.000 C 
ATOM     34  C   UNL     1       1.432   2.837  21.391  0.00  0.00    +0.000 C 
ENDBRANCH  31  32
ENDBRANCH   1  31
TORSDOF 10
ENDMDL
MODEL 4
REMARK VINA RESULT:      -6.9      4.061      6.682
REMARK  Name = 
REMARK  13 active torsions:
REMARK  status: ('A' for Active; 'I' for Inactive)
REMARK    1  A    between atoms: C_1  and  C_2
REMARK    2  A    between atoms: N_4  and  C_5
REMARK    3  A    between atoms: C_8  and  S_9
REMARK    4  A    between atoms: S_9  and  C_10
REMARK    5  A    between atoms: C_10  and  C_11
REMARK    6  A    between atoms: C_11  and  C_12
REMARK    7  A    between atoms: C_11  and  N_16
REMARK    8  A    between atoms: C_12  and  C_13
REMARK    9  A    between atoms: C_13  and  C_14
REMARK   10  A    between atoms: C_13  and  C_15
REMARK   11  A    between atoms: N_19  and  C_20
REMARK   12  A    between atoms: C_20  and  C_21
REMARK   13  A    between atoms: C_21  and  C_22
REMARK                            x       y       z     vdW  Elec       q    Type
REMARK                         _______ _______ _______ _____ _____    ______ ____
ROOT
ATOM      1  C   UNL     1      -0.887  11.292  19.034  0.00  0.00    +0.000 C 
ENDROOT
BRANCH   1   2
ATOM      2  N   UNL     1      -0.628  12.552  19.783  0.00  0.00    +0.000 N 
ATOM      3  C   UNL     1       0.401  13.485  19.311  0.00  0.00    +0.000 C 
ATOM      4  C   UNL     1       1.508  13.746  20.355  0.00  0.00    +0.000 C 
ATOM      5  N   UNL     1       1.187  14.726  21.409  0.00  0.00    +0.000 NA
ATOM      6  C   UNL     1       0.052  14.269  22.223  0.00  0.00    +0.000 C 
ATOM      7  C   UNL     1      -1.301  14.212  21.523  0.00  0.00    +0.000 C 
ATOM      8  C   UNL     1      -1.526  12.910  20.783  0.00  0.00    +0.000 C 
ATOM      9  O   UNL     1      -2.514  12.220  21.060  0.00  0.00    +0.000 OA
BRANCH   5  10
ATOM     10  C   UNL     1       1.071  16.089  20.863  0.00  0.00    +0.000 C 
BRANCH  10  11
ATOM     11  C   UNL     1       2.287  16.575  20.060  0.00  0.00    +0.000 C 
BRANCH  11  12
ATOM     12  C   UNL     1       1.846  17.251  18.781  0.00  0.00    +0.000 A 
ATOM     13  C   UNL     1       0.676  18.023  18.753  0.00  0.00    +0.000 A 
ATOM     14  C   UNL     1       0.255  18.623  17.565  0.00  0.00    +0.000 A 
ATOM     15  C   UNL     1       0.996  18.449  16.398  0.00  0.00    +0.000 A 
ATOM     16  C   UNL     1       2.154  17.673  16.414  0.00  0.00    +0.000 A 
ATOM     17  C   UNL     1       2.577  17.074  17.600  0.00  0.00    +0.000 A 
ENDBRANCH  11  12
ENDBRANCH  10  11
ENDBRANCH   5  10
ENDBRANCH   1   2
BRANCH   1  18
ATOM     18  C   UNL     1       0.352  10.392  18.819  0.00  0.00    +0.000 C 
BRANCH  18  19
ATOM     19  S   UNL     1       1.079   9.799  20.390  0.00  0.00    +0.000 S 
BRANCH  19  23
ATOM     20  C   UNL     1       2.572   5.653  19.088  0.00  0.00    +0.000 A 
ATOM     21  C   UNL     1       1.985   5.850  20.337  0.00  0.00    +0.000 A 
ATOM     22  C   UNL     1       1.512   7.110  20.717  0.00  0.00    +0.000 A 
ATOM     23  C   UNL     1       1.623   8.193  19.849  0.00  0.00    +0.000 A 
ATOM     24  C   UNL     1       2.178   7.998  18.582  0.00  0.00    +0.000 A 
ATOM     25  C   UNL     1       2.661   6.739  18.205  0.00  0.00    +0.000 A 
BRANCH  20  29
ATOM     26  C   UNL     1       3.271   2.131  17.953  0.00  0.00    +0.000 C 
ATOM     27  C   UNL     1       2.438   3.380  18.068  0.00  0.00    +0.000 C 
ATOM     28  O   UNL     1       1.280   3.394  17.670  0.00  0.00    +0.000 OA
ATOM     29  N   UNL     1       3.121   4.422  18.671  0.00  0.00    +0.000 N 
ATOM     30  H   UNL     1       4.118   4.304  18.803  0.00  0.00    +0.000 HD
ENDBRANCH  20  29
ENDBRANCH  19  23
ENDBRANCH  18  19
ENDBRANCH   1  18
BRANCH   1  31
ATOM     31  C   UNL     1      -1.617  11.612  17.701  0.00  0.00    +0.000 C 
BRANCH  31  32
ATOM     32  C   UNL     1      -2.155  10.391  16.920  0.00  0.00    +0.000 C 
ATOM     33  C   UNL     1      -3.182   9.589  17.721  0.00  0.00    +0.000 C 
ATOM     34  C   UNL     1      -2.770  10.830  15.589  0.00  0.00    +0.000 C 
ENDBRANCH  31  32
ENDBRANCH   1  31
TORSDOF 10
ENDMDL
MODEL 5
REMARK VINA RESULT:      -6.9      2.966     10.276
REMARK  Name = 
REMARK  13 active torsions:
REMARK  status: ('A' for Active; 'I' for Inactive)
REMARK    1  A    between atoms: C_1  and  C_2
REMARK    2  A    between atoms: N_4  and  C_5
REMARK    3  A    between atoms: C_8  and  S_9
REMARK    4  A    between atoms: S_9  and  C_10
REMARK    5  A    between atoms: C_10  and  C_11
REMARK    6  A    between atoms: C_11  and  C_12
REMARK    7  A    between atoms: C_11  and  N_16
REMARK    8  A    between atoms: C_12  and  C_13
REMARK    9  A    between atoms: C_13  and  C_14
REMARK   10  A    between atoms: C_13  and  C_15
REMARK   11  A    between atoms: N_19  and  C_20
REMARK   12  A    between atoms: C_20  and  C_21
REMARK   13  A    between atoms: C_21  and  C_22
REMARK                            x       y       z     vdW  Elec       q    Type
REMARK                         _______ _______ _______ _____ _____    ______ ____
ROOT
ATOM      1  C   UNL     1       2.150   6.032  19.404  0.00  0.00    +0.000 C 
ENDROOT
BRANCH   1   2
ATOM      2  N   UNL     1       3.374   5.989  18.557  0.00  0.00    +0.000 N 
ATOM      3  C   UNL     1       4.212   4.785  18.542  0.00  0.00    +0.000 C 
ATOM      4  C   UNL     1       5.667   5.053  18.982  0.00  0.00    +0.000 C 
ATOM      5  N   UNL     1       6.561   5.615  17.954  0.00  0.00    +0.000 NA
ATOM      6  C   UNL     1       6.090   6.936  17.513  0.00  0.00    +0.000 C 
ATOM      7  C   UNL     1       4.779   6.960  16.735  0.00  0.00    +0.000 C 
ATOM      8  C   UNL     1       3.562   7.014  17.635  0.00  0.00    +0.000 C 
ATOM      9  O   UNL     1       2.754   7.940  17.505  0.00  0.00    +0.000 OA
BRANCH   5  10
ATOM     10  C   UNL     1       6.829   4.644  16.879  0.00  0.00    +0.000 C 
BRANCH  10  11
ATOM     11  C   UNL     1       7.436   5.238  15.600  0.00  0.00    +0.000 C 
BRANCH  11  12
ATOM     12  C   UNL     1       6.796   4.629  14.373  0.00  0.00    +0.000 A 
ATOM     13  C   UNL     1       5.496   4.108  14.435  0.00  0.00    +0.000 A 
ATOM     14  C   UNL     1       4.917   3.520  13.310  0.00  0.00    +0.000 A 
ATOM     15  C   UNL     1       5.635   3.443  12.118  0.00  0.00    +0.000 A 
ATOM     16  C   UNL     1       6.933   3.948  12.051  0.00  0.00    +0.000 A 
ATOM     17  C   UNL     1       7.513   4.536  13.174  0.00  0.00    +0.000 A 
ENDBRANCH  11  12
ENDBRANCH  10  11
ENDBRANCH   5  10
ENDBRANCH   1   2
BRANCH   1  18
ATOM     18  C   UNL     1       1.631   7.452  19.731  0.00  0.00    +0.000 C 
BRANCH  18  19
ATOM     19  S   UNL     1       1.734   7.851  21.514  0.00  0.00    +0.000 S 
BRANCH  19  23
ATOM     20  C   UNL     1      -1.140  11.436  21.564  0.00  0.00    +0.000 A 
ATOM     21  C   UNL     1      -0.670  10.902  20.365  0.00  0.00    +0.000 A 
ATOM     22  C   UNL     1       0.185   9.797  20.357  0.00  0.00    +0.000 A 
ATOM     23  C   UNL     1       0.586   9.210  21.555  0.00  0.00    +0.000 A 
ATOM     24  C   UNL     1       0.094   9.716  22.760  0.00  0.00    +0.000 A 
ATOM     25  C   UNL     1      -0.755  10.829  22.769  0.00  0.00    +0.000 A 
BRANCH  20  29
ATOM     26  C   UNL     1      -3.848  13.998  22.094  0.00  0.00    +0.000 C 
ATOM     27  C   UNL     1      -3.094  12.734  22.411  0.00  0.00    +0.000 C 
ATOM     28  O   UNL     1      -3.515  11.955  23.259  0.00  0.00    +0.000 OA
ATOM     29  N   UNL     1      -1.955  12.585  21.640  0.00  0.00    +0.000 N 
ATOM     30  H   UNL     1      -1.659  13.386  21.096  0.00  0.00    +0.000 HD
ENDBRANCH  20  29
ENDBRANCH  19  23
ENDBRANCH  18  19
ENDBRANCH   1  18
BRANCH   1  31
ATOM     31  C   UNL     1       2.365   5.178  20.683  0.00  0.00    +0.000 C 
BRANCH  31  32
ATOM     32  C   UNL     1       1.401   3.983  20.862  0.00  0.00    +0.000 C 
ATOM     33  C   UNL     1       0.793   3.516  19.538  0.00  0.00    +0.000 C 
ATOM     34  C   UNL     1       2.113   2.812  21.543  0.00  0.00    +0.000 C 
ENDBRANCH  31  32
ENDBRANCH   1  31
TORSDOF 10
ENDMDL
MODEL 6
REMARK VINA RESULT:      -6.9      2.278      3.172
REMARK  Name = 
REMARK  13 active torsions:
REMARK  status: ('A' for Active; 'I' for Inactive)
REMARK    1  A    between atoms: C_1  and  C_2
REMARK    2  A    between atoms: N_4  and  C_5
REMARK    3  A    between atoms: C_8  and  S_9
REMARK    4  A    between atoms: S_9  and  C_10
REMARK    5  A    between atoms: C_10  and  C_11
REMARK    6  A    between atoms: C_11  and  C_12
REMARK    7  A    between atoms: C_11  and  N_16
REMARK    8  A    between atoms: C_12  and  C_13
REMARK    9  A    between atoms: C_13  and  C_14
REMARK   10  A    between atoms: C_13  and  C_15
REMARK   11  A    between atoms: N_19  and  C_20
REMARK   12  A    between atoms: C_20  and  C_21
REMARK   13  A    between atoms: C_21  and  C_22
REMARK                            x       y       z     vdW  Elec       q    Type
REMARK                         _______ _______ _______ _____ _____    ______ ____
ROOT
ATOM      1  C   UNL     1       2.423   6.235  20.052  0.00  0.00    +0.000 C 
ENDROOT
BRANCH   1   2
ATOM      2  N   UNL     1       1.810   7.592  20.055  0.00  0.00    +0.000 N 
ATOM      3  C   UNL     1       1.274   8.150  21.301  0.00  0.00    +0.000 C 
ATOM      4  C   UNL     1      -0.227   8.502  21.212  0.00  0.00    +0.000 C 
ATOM      5  N   UNL     1      -0.553   9.786  20.566  0.00  0.00    +0.000 NA
ATOM      6  C   UNL     1      -0.118   9.795  19.163  0.00  0.00    +0.000 C 
ATOM      7  C   UNL     1       1.388   9.777  18.923  0.00  0.00    +0.000 C 
ATOM      8  C   UNL     1       1.967   8.378  18.918  0.00  0.00    +0.000 C 
ATOM      9  O   UNL     1       2.590   7.985  17.925  0.00  0.00    +0.000 OA
BRANCH   5  10
ATOM     10  C   UNL     1      -0.105  10.930  21.379  0.00  0.00    +0.000 C 
BRANCH  10  11
ATOM     11  C   UNL     1      -0.676  10.981  22.804  0.00  0.00    +0.000 C 
BRANCH  11  12
ATOM     12  C   UNL     1      -1.514  12.224  22.999  0.00  0.00    +0.000 A 
ATOM     13  C   UNL     1      -0.927  13.495  22.919  0.00  0.00    +0.000 A 
ATOM     14  C   UNL     1      -1.696  14.641  23.128  0.00  0.00    +0.000 A 
ATOM     15  C   UNL     1      -3.053  14.525  23.425  0.00  0.00    +0.000 A 
ATOM     16  C   UNL     1      -3.641  13.264  23.517  0.00  0.00    +0.000 A 
ATOM     17  C   UNL     1      -2.875  12.118  23.308  0.00  0.00    +0.000 A 
ENDBRANCH  11  12
ENDBRANCH  10  11
ENDBRANCH   5  10
ENDBRANCH   1   2
BRANCH   1  18
ATOM     18  C   UNL     1       3.290   5.912  18.812  0.00  0.00    +0.000 C 
BRANCH  18  19
ATOM     19  S   UNL     1       5.041   5.591  19.235  0.00  0.00    +0.000 S 
BRANCH  19  23
ATOM     20  C   UNL     1       6.454   4.152  15.107  0.00  0.00    +0.000 A 
ATOM     21  C   UNL     1       7.148   5.139  15.805  0.00  0.00    +0.000 A 
ATOM     22  C   UNL     1       6.726   5.555  17.071  0.00  0.00    +0.000 A 
ATOM     23  C   UNL     1       5.596   4.988  17.655  0.00  0.00    +0.000 A 
ATOM     24  C   UNL     1       4.913   3.975  16.979  0.00  0.00    +0.000 A 
ATOM     25  C   UNL     1       5.330   3.565  15.707  0.00  0.00    +0.000 A 
BRANCH  20  29
ATOM     26  C   UNL     1       6.583   2.856  11.574  0.00  0.00    +0.000 C 
ATOM     27  C   UNL     1       5.916   3.500  12.760  0.00  0.00    +0.000 C 
ATOM     28  O   UNL     1       4.715   3.741  12.743  0.00  0.00    +0.000 OA
ATOM     29  N   UNL     1       6.795   3.734  13.803  0.00  0.00    +0.000 N 
ATOM     30  H   UNL     1       7.782   3.623  13.607  0.00  0.00    +0.000 HD
ENDBRANCH  20  29
ENDBRANCH  19  23
ENDBRANCH  18  19
ENDBRANCH   1  18
BRANCH   1  31
ATOM     31  C   UNL     1       1.327   5.162  20.295  0.00  0.00    +0.000 C 
BRANCH  31  32
ATOM     32  C   UNL     1       1.799   3.692  20.224  0.00  0.00    +0.000 C 
ATOM     33  C   UNL     1       1.752   2.993  21.584  0.00  0.00    +0.000 C 
ATOM     34  C   UNL     1       0.964   2.905  19.212  0.00  0.00    +0.000 C 
ENDBRANCH  31  32
ENDBRANCH   1  31
TORSDOF 10
ENDMDL
MODEL 7
REMARK VINA RESULT:      -6.8      0.550      1.354
REMARK  Name = 
REMARK  13 active torsions:
REMARK  status: ('A' for Active; 'I' for Inactive)
REMARK    1  A    between atoms: C_1  and  C_2
REMARK    2  A    between atoms: N_4  and  C_5
REMARK    3  A    between atoms: C_8  and  S_9
REMARK    4  A    between atoms: S_9  and  C_10
REMARK    5  A    between atoms: C_10  and  C_11
REMARK    6  A    between atoms: C_11  and  C_12
REMARK    7  A    between atoms: C_11  and  N_16
REMARK    8  A    between atoms: C_12  and  C_13
REMARK    9  A    between atoms: C_13  and  C_14
REMARK   10  A    between atoms: C_13  and  C_15
REMARK   11  A    between atoms: N_19  and  C_20
REMARK   12  A    between atoms: C_20  and  C_21
REMARK   13  A    between atoms: C_21  and  C_22
REMARK                            x       y       z     vdW  Elec       q    Type
REMARK                         _______ _______ _______ _____ _____    ______ ____
ROOT
ATOM      1  C   UNL     1       2.921   6.735  19.267  0.00  0.00    +0.000 C 
ENDROOT
BRANCH   1   2
ATOM      2  N   UNL     1       1.970   7.877  19.364  0.00  0.00    +0.000 N 
ATOM      3  C   UNL     1       1.457   8.506  18.142  0.00  0.00    +0.000 C 
ATOM      4  C   UNL     1       1.786  10.012  18.052  0.00  0.00    +0.000 C 
ATOM      5  N   UNL     1       0.906  10.915  18.816  0.00  0.00    +0.000 NA
ATOM      6  C   UNL     1       0.989  10.635  20.256  0.00  0.00    +0.000 C 
ATOM      7  C   UNL     1       0.424   9.295  20.717  0.00  0.00    +0.000 C 
ATOM      8  C   UNL     1       1.426   8.166  20.611  0.00  0.00    +0.000 C 
ATOM      9  O   UNL     1       1.708   7.511  21.621  0.00  0.00    +0.000 OA
BRANCH   5  10
ATOM     10  C   UNL     1      -0.454  10.951  18.251  0.00  0.00    +0.000 C 
BRANCH  10  11
ATOM     11  C   UNL     1      -1.559  11.357  19.238  0.00  0.00    +0.000 C 
BRANCH  11  12
ATOM     12  C   UNL     1      -2.872  11.557  18.516  0.00  0.00    +0.000 A 
ATOM     13  C   UNL     1      -3.975  12.104  19.188  0.00  0.00    +0.000 A 
ATOM     14  C   UNL     1      -5.195  12.261  18.529  0.00  0.00    +0.000 A 
ATOM     15  C   UNL     1      -5.323  11.867  17.198  0.00  0.00    +0.000 A 
ATOM     16  C   UNL     1      -4.235  11.311  16.527  0.00  0.00    +0.000 A 
ATOM     17  C   UNL     1      -3.015  11.154  17.183  0.00  0.00    +0.000 A 
ENDBRANCH  11  12
ENDBRANCH  10  11
ENDBRANCH   5  10
ENDBRANCH   1   2
BRANCH   1  18
ATOM     18  C   UNL     1       3.682   6.629  17.925  0.00  0.00    +0.000 C 
BRANCH  18  19
ATOM     19  S   UNL     1       5.483   6.397  18.148  0.00  0.00    +0.000 S 
BRANCH  19  23
ATOM     20  C   UNL     1       6.304   3.901  14.378  0.00  0.00    +0.000 A 
ATOM     21  C   UNL     1       7.163   4.927  14.767  0.00  0.00    +0.000 A 
ATOM     22  C   UNL     1       6.920   5.667  15.928  0.00  0.00    +0.000 A 
ATOM     23  C   UNL     1       5.806   5.389  16.717  0.00  0.00    +0.000 A 
ATOM     24  C   UNL     1       4.958   4.341  16.354  0.00  0.00    +0.000 A 
ATOM     25  C   UNL     1       5.195   3.607  15.186  0.00  0.00    +0.000 A 
BRANCH  20  29
ATOM     26  C   UNL     1       5.929   1.999  11.150  0.00  0.00    +0.000 C 
ATOM     27  C   UNL     1       5.532   3.032  12.171  0.00  0.00    +0.000 C 
ATOM     28  O   UNL     1       4.472   3.638  12.063  0.00  0.00    +0.000 OA
ATOM     29  N   UNL     1       6.462   3.161  13.187  0.00  0.00    +0.000 N 
ATOM     30  H   UNL     1       7.356   2.705  13.054  0.00  0.00    +0.000 HD
ENDBRANCH  20  29
ENDBRANCH  19  23
ENDBRANCH  18  19
ENDBRANCH   1  18
BRANCH   1  31
ATOM     31  C   UNL     1       2.193   5.412  19.634  0.00  0.00    +0.000 C 
BRANCH  31  32
ATOM     32  C   UNL     1       2.536   4.191  18.750  0.00  0.00    +0.000 C 
ATOM     33  C   UNL     1       3.374   3.148  19.490  0.00  0.00    +0.000 C 
ATOM     34  C   UNL     1       1.260   3.539  18.213  0.00  0.00    +0.000 C 
ENDBRANCH  31  32
ENDBRANCH   1  31
TORSDOF 10
ENDMDL
MODEL 8
REMARK VINA RESULT:      -6.8      3.250     10.003
REMARK  Name = 
REMARK  13 active torsions:
REMARK  status: ('A' for Active; 'I' for Inactive)
REMARK    1  A    between atoms: C_1  and  C_2
REMARK    2  A    between atoms: N_4  and  C_5
REMARK    3  A    between atoms: C_8  and  S_9
REMARK    4  A    between atoms: S_9  and  C_10
REMARK    5  A    between atoms: C_10  and  C_11
REMARK    6  A    between atoms: C_11  and  C_12
REMARK    7  A    between atoms: C_11  and  N_16
REMARK    8  A    between atoms: C_12  and  C_13
REMARK    9  A    between atoms: C_13  and  C_14
REMARK   10  A    between atoms: C_13  and  C_15
REMARK   11  A    between atoms: N_19  and  C_20
REMARK   12  A    between atoms: C_20  and  C_21
REMARK   13  A    between atoms: C_21  and  C_22
REMARK                            x       y       z     vdW  Elec       q    Type
REMARK                         _______ _______ _______ _____ _____    ______ ____
ROOT
ATOM      1  C   UNL     1       3.553   4.884  18.902  0.00  0.00    +0.000 C 
ENDROOT
BRANCH   1   2
ATOM      2  N   UNL     1       4.691   5.024  17.951  0.00  0.00    +0.000 N 
ATOM      3  C   UNL     1       4.444   4.988  16.505  0.00  0.00    +0.000 C 
ATOM      4  C   UNL     1       5.212   3.856  15.787  0.00  0.00    +0.000 C 
ATOM      5  N   UNL     1       6.627   4.128  15.479  0.00  0.00    +0.000 NA
ATOM      6  C   UNL     1       7.402   4.337  16.710  0.00  0.00    +0.000 C 
ATOM      7  C   UNL     1       7.079   5.597  17.506  0.00  0.00    +0.000 C 
ATOM      8  C   UNL     1       5.925   5.407  18.466  0.00  0.00    +0.000 C 
ATOM      9  O   UNL     1       6.096   5.630  19.670  0.00  0.00    +0.000 OA
BRANCH   5  10
ATOM     10  C   UNL     1       6.766   5.176  14.454  0.00  0.00    +0.000 C 
BRANCH  10  11
ATOM     11  C   UNL     1       7.467   4.735  13.161  0.00  0.00    +0.000 C 
BRANCH  11  12
ATOM     12  C   UNL     1       6.602   3.764  12.390  0.00  0.00    +0.000 A 
ATOM     13  C   UNL     1       5.224   3.990  12.259  0.00  0.00    +0.000 A 
ATOM     14  C   UNL     1       4.422   3.079  11.572  0.00  0.00    +0.000 A 
ATOM     15  C   UNL     1       4.989   1.933  11.017  0.00  0.00    +0.000 A 
ATOM     16  C   UNL     1       6.356   1.695  11.151  0.00  0.00    +0.000 A 
ATOM     17  C   UNL     1       7.159   2.605  11.837  0.00  0.00    +0.000 A 
ENDBRANCH  11  12
ENDBRANCH  10  11
ENDBRANCH   5  10
ENDBRANCH   1   2
BRANCH   1  18
ATOM     18  C   UNL     1       3.295   6.118  19.798  0.00  0.00    +0.000 C 
BRANCH  18  19
ATOM     19  S   UNL     1       1.758   5.972  20.781  0.00  0.00    +0.000 S 
BRANCH  19  23
ATOM     20  C   UNL     1       0.422  10.356  20.456  0.00  0.00    +0.000 A 
ATOM     21  C   UNL     1       1.195   9.760  19.460  0.00  0.00    +0.000 A 
ATOM     22  C   UNL     1       1.578   8.419  19.555  0.00  0.00    +0.000 A 
ATOM     23  C   UNL     1       1.193   7.654  20.653  0.00  0.00    +0.000 A 
ATOM     24  C   UNL     1       0.391   8.233  21.639  0.00  0.00    +0.000 A 
ATOM     25  C   UNL     1       0.016   9.578  21.550  0.00  0.00    +0.000 A 
BRANCH  20  29
ATOM     26  C   UNL     1       0.075  14.076  20.925  0.00  0.00    +0.000 C 
ATOM     27  C   UNL     1       0.842  12.782  20.857  0.00  0.00    +0.000 C 
ATOM     28  O   UNL     1       2.026  12.743  21.169  0.00  0.00    +0.000 OA
ATOM     29  N   UNL     1       0.057  11.719  20.447  0.00  0.00    +0.000 N 
ATOM     30  H   UNL     1      -0.860  11.938  20.077  0.00  0.00    +0.000 HD
ENDBRANCH  20  29
ENDBRANCH  19  23
ENDBRANCH  18  19
ENDBRANCH   1  18
BRANCH   1  31
ATOM     31  C   UNL     1       3.719   3.582  19.732  0.00  0.00    +0.000 C 
BRANCH  31  32
ATOM     32  C   UNL     1       2.850   2.384  19.282  0.00  0.00    +0.000 C 
ATOM     33  C   UNL     1       1.497   2.820  18.718  0.00  0.00    +0.000 C 
ATOM     34  C   UNL     1       3.593   1.540  18.244  0.00  0.00    +0.000 C 
ENDBRANCH  31  32
ENDBRANCH   1  31
TORSDOF 10
ENDMDL
MODEL 9
REMARK VINA RESULT:      -6.7      3.744      9.034
REMARK  Name = 
REMARK  13 active torsions:
REMARK  status: ('A' for Active; 'I' for Inactive)
REMARK    1  A    between atoms: C_1  and  C_2
REMARK    2  A    between atoms: N_4  and  C_5
REMARK    3  A    between atoms: C_8  and  S_9
REMARK    4  A    between atoms: S_9  and  C_10
REMARK    5  A    between atoms: C_10  and  C_11
REMARK    6  A    between atoms: C_11  and  C_12
REMARK    7  A    between atoms: C_11  and  N_16
REMARK    8  A    between atoms: C_12  and  C_13
REMARK    9  A    between atoms: C_13  and  C_14
REMARK   10  A    between atoms: C_13  and  C_15
REMARK   11  A    between atoms: N_19  and  C_20
REMARK   12  A    between atoms: C_20  and  C_21
REMARK   13  A    between atoms: C_21  and  C_22
REMARK                            x       y       z     vdW  Elec       q    Type
REMARK                         _______ _______ _______ _____ _____    ______ ____
ROOT
ATOM      1  C   UNL     1       3.462   4.648  18.455  0.00  0.00    +0.000 C 
ENDROOT
BRANCH   1   2
ATOM      2  N   UNL     1       4.741   5.408  18.401  0.00  0.00    +0.000 N 
ATOM      3  C   UNL     1       4.801   6.688  17.688  0.00  0.00    +0.000 C 
ATOM      4  C   UNL     1       5.839   6.698  16.545  0.00  0.00    +0.000 C 
ATOM      5  N   UNL     1       7.240   6.921  16.944  0.00  0.00    +0.000 NA
ATOM      6  C   UNL     1       7.714   5.845  17.825  0.00  0.00    +0.000 C 
ATOM      7  C   UNL     1       7.075   5.774  19.208  0.00  0.00    +0.000 C 
ATOM      8  C   UNL     1       5.783   4.984  19.219  0.00  0.00    +0.000 C 
ATOM      9  O   UNL     1       5.675   4.012  19.974  0.00  0.00    +0.000 OA
BRANCH   5  10
ATOM     10  C   UNL     1       7.448   8.292  17.444  0.00  0.00    +0.000 C 
BRANCH  10  11
ATOM     11  C   UNL     1       8.540   8.436  18.515  0.00  0.00    +0.000 C 
BRANCH  11  12
ATOM     12  C   UNL     1       8.916   9.888  18.700  0.00  0.00    +0.000 A 
ATOM     13  C   UNL     1       9.559  10.311  19.873  0.00  0.00    +0.000 A 
ATOM     14  C   UNL     1       9.881  11.657  20.055  0.00  0.00    +0.000 A 
ATOM     15  C   UNL     1       9.556  12.589  19.072  0.00  0.00    +0.000 A 
ATOM     16  C   UNL     1       8.907  12.179  17.908  0.00  0.00    +0.000 A 
ATOM     17  C   UNL     1       8.586  10.835  17.724  0.00  0.00    +0.000 A 
ENDBRANCH  11  12
ENDBRANCH  10  11
ENDBRANCH   5  10
ENDBRANCH   1   2
BRANCH   1  18
ATOM     18  C   UNL     1       2.196   5.512  18.658  0.00  0.00    +0.000 C 
BRANCH  18  19
ATOM     19  S   UNL     1       1.954   6.019  20.400  0.00  0.00    +0.000 S 
BRANCH  19  23
ATOM     20  C   UNL     1       1.016  10.471  19.756  0.00  0.00    +0.000 A 
ATOM     21  C   UNL     1       0.887   9.879  21.012  0.00  0.00    +0.000 A 
ATOM     22  C   UNL     1       1.197   8.530  21.205  0.00  0.00    +0.000 A 
ATOM     23  C   UNL     1       1.639   7.751  20.138  0.00  0.00    +0.000 A 
ATOM     24  C   UNL     1       1.804   8.342  18.884  0.00  0.00    +0.000 A 
ATOM     25  C   UNL     1       1.485   9.691  18.688  0.00  0.00    +0.000 A 
BRANCH  20  29
ATOM     26  C   UNL     1      -0.403  13.715  18.474  0.00  0.00    +0.000 C 
ATOM     27  C   UNL     1      -0.438  12.237  18.762  0.00  0.00    +0.000 C 
ATOM     28  O   UNL     1      -1.361  11.545  18.350  0.00  0.00    +0.000 OA
ATOM     29  N   UNL     1       0.662  11.809  19.485  0.00  0.00    +0.000 N 
ATOM     30  H   UNL     1       1.257  12.524  19.885  0.00  0.00    +0.000 HD
ENDBRANCH  20  29
ENDBRANCH  19  23
ENDBRANCH  18  19
ENDBRANCH   1  18
BRANCH   1  31
ATOM     31  C   UNL     1       3.570   3.511  19.508  0.00  0.00    +0.000 C 
BRANCH  31  32
ATOM     32  C   UNL     1       2.768   2.227  19.194  0.00  0.00    +0.000 C 
ATOM     33  C   UNL     1       1.389   2.218  19.855  0.00  0.00    +0.000 C 
ATOM     34  C   UNL     1       2.615   2.044  17.682  0.00  0.00    +0.000 C 
ENDBRANCH  31  32
ENDBRANCH   1  31
TORSDOF 10
ENDMDL
