MODEL 1
REMARK VINA RESULT:      -7.5      0.000      0.000
REMARK  Name = 
REMARK  10 active torsions:
REMARK  status: ('A' for Active; 'I' for Inactive)
REMARK    1  A    between atoms: C_1  and  N_2
REMARK    2  A    between atoms: N_2  and  C_3
REMARK    3  A    between atoms: N_2  and  C_4
REMARK    4  A    between atoms: N_7  and  C_8
REMARK    5  A    between atoms: C_11  and  N_12
REMARK    6  A    between atoms: C_13  and  C_15
REMARK    7  A    between atoms: C_15  and  C_16
REMARK    8  A    between atoms: C_16  and  C_17
REMARK    9  A    between atoms: C_17  and  C_18
REMARK   10  A    between atoms: C_18  and  C_20
REMARK                            x       y       z     vdW  Elec       q    Type
REMARK                         _______ _______ _______ _____ _____    ______ ____
ROOT
ATOM      1  N   UNL     1       2.699   5.189  20.368  0.00  0.00    +0.000 N 
ATOM      2  C   UNL     1       1.881   4.073  20.471  0.00  0.00    +0.000 C 
ATOM      3  O   UNL     1       0.654   4.058  20.372  0.00  0.00    +0.000 OA
ATOM      4  H   UNL     1       3.700   5.038  20.301  0.00  0.00    +0.000 HD
ENDROOT
BRANCH   1   8
ATOM      5  C   UNL     1       1.229   9.138  19.755  0.00  0.00    +0.000 A 
ATOM      6  C   UNL     1       1.021   8.468  20.962  0.00  0.00    +0.000 A 
ATOM      7  C   UNL     1       1.527   7.187  21.178  0.00  0.00    +0.000 A 
ATOM      8  C   UNL     1       2.236   6.513  20.187  0.00  0.00    +0.000 A 
ATOM      9  C   UNL     1       2.481   7.175  18.982  0.00  0.00    +0.000 A 
ATOM     10  C   UNL     1       1.966   8.468  18.767  0.00  0.00    +0.000 A 
BRANCH   5  14
ATOM     11  C   UNL     1      -1.000  11.984  20.162  0.00  0.00    +0.000 C 
ATOM     12  C   UNL     1       0.314  12.331  20.867  0.00  0.00    +0.000 C 
ATOM     13  C   UNL     1       1.389  11.584  20.089  0.00  0.00    +0.000 C 
ATOM     14  N   UNL     1       0.717  10.413  19.497  0.00  0.00    +0.000 N 
ATOM     15  C   UNL     1      -0.739  10.510  19.748  0.00  0.00    +0.000 C 
BRANCH  11  17
ATOM     16  C   UNL     1      -0.523  14.112  18.964  0.00  0.00    +0.000 C 
ATOM     17  N   UNL     1      -1.413  12.965  19.130  0.00  0.00    +0.000 NA
ATOM     18  C   UNL     1      -1.626  12.318  17.834  0.00  0.00    +0.000 C 
ENDBRANCH  11  17
ENDBRANCH   5  14
ENDBRANCH   1   8
BRANCH   2  19
ATOM     19  C   UNL     1       2.621   2.767  20.636  0.00  0.00    +0.000 C 
BRANCH  19  20
ATOM     20  C   UNL     1       2.507   1.924  19.362  0.00  0.00    +0.000 C 
BRANCH  20  21
ATOM     21  C   UNL     1       3.668   2.097  18.378  0.00  0.00    +0.000 C 
BRANCH  21  22
ATOM     22  C   UNL     1       3.496   3.287  17.452  0.00  0.00    +0.000 C 
ATOM     23  O   UNL     1       2.549   3.388  16.674  0.00  0.00    +0.000 OA
BRANCH  22  24
ATOM     24  C   UNL     1       4.525   4.366  17.467  0.00  0.00    +0.000 A 
ATOM     25  C   UNL     1       4.600   5.345  16.467  0.00  0.00    +0.000 A 
ATOM     26  C   UNL     1       5.595   6.323  16.524  0.00  0.00    +0.000 A 
ATOM     27  C   UNL     1       6.508   6.332  17.580  0.00  0.00    +0.000 A 
ATOM     28 CL   UNL     1       7.736   7.534  17.638  0.00  0.00    +0.000 Cl
ATOM     29  C   UNL     1       6.435   5.370  18.585  0.00  0.00    +0.000 A 
ATOM     30  C   UNL     1       5.443   4.389  18.528  0.00  0.00    +0.000 A 
ENDBRANCH  22  24
ENDBRANCH  21  22
ENDBRANCH  20  21
ENDBRANCH  19  20
ENDBRANCH   2  19
TORSDOF 8
ENDMDL
MODEL 2
REMARK VINA RESULT:      -7.2      1.304      2.065
REMARK  Name = 
REMARK  10 active torsions:
REMARK  status: ('A' for Active; 'I' for Inactive)
REMARK    1  A    between atoms: C_1  and  N_2
REMARK    2  A    between atoms: N_2  and  C_3
REMARK    3  A    between atoms: N_2  and  C_4
REMARK    4  A    between atoms: N_7  and  C_8
REMARK    5  A    between atoms: C_11  and  N_12
REMARK    6  A    between atoms: C_13  and  C_15
REMARK    7  A    between atoms: C_15  and  C_16
REMARK    8  A    between atoms: C_16  and  C_17
REMARK    9  A    between atoms: C_17  and  C_18
REMARK   10  A    between atoms: C_18  and  C_20
REMARK                            x       y       z     vdW  Elec       q    Type
REMARK                         _______ _______ _______ _____ _____    ______ ____
ROOT
ATOM      1  N   UNL     1       3.116   5.708  19.853  0.00  0.00    +0.000 N 
ATOM      2  C   UNL     1       2.507   4.462  19.879  0.00  0.00    +0.000 C 
ATOM      3  O   UNL     1       1.312   4.232  19.693  0.00  0.00    +0.000 OA
ATOM      4  H   UNL     1       4.129   5.741  19.853  0.00  0.00    +0.000 HD
ENDROOT
BRANCH   1   8
ATOM      5  C   UNL     1       1.142   9.446  19.341  0.00  0.00    +0.000 A 
ATOM      6  C   UNL     1       1.832   8.842  18.288  0.00  0.00    +0.000 A 
ATOM      7  C   UNL     1       2.453   7.604  18.442  0.00  0.00    +0.000 A 
ATOM      8  C   UNL     1       2.435   6.934  19.663  0.00  0.00    +0.000 A 
ATOM      9  C   UNL     1       1.727   7.505  20.721  0.00  0.00    +0.000 A 
ATOM     10  C   UNL     1       1.103   8.757  20.562  0.00  0.00    +0.000 A 
BRANCH   5  14
ATOM     11  C   UNL     1      -0.218  12.616  20.500  0.00  0.00    +0.000 C 
ATOM     12  C   UNL     1       1.156  12.907  19.889  0.00  0.00    +0.000 C 
ATOM     13  C   UNL     1       1.337  11.853  18.804  0.00  0.00    +0.000 C 
ATOM     14  N   UNL     1       0.527  10.697  19.226  0.00  0.00    +0.000 N 
ATOM     15  C   UNL     1      -0.257  11.065  20.428  0.00  0.00    +0.000 C 
BRANCH  11  17
ATOM     16  C   UNL     1      -2.661  12.830  20.080  0.00  0.00    +0.000 C 
ATOM     17  N   UNL     1      -1.326  13.398  19.902  0.00  0.00    +0.000 NA
ATOM     18  C   UNL     1      -1.316  14.784  20.375  0.00  0.00    +0.000 C 
ENDBRANCH  11  17
ENDBRANCH   5  14
ENDBRANCH   1   8
BRANCH   2  19
ATOM     19  C   UNL     1       3.458   3.305  20.073  0.00  0.00    +0.000 C 
BRANCH  19  20
ATOM     20  C   UNL     1       4.653   3.432  19.123  0.00  0.00    +0.000 C 
BRANCH  20  21
ATOM     21  C   UNL     1       4.286   3.444  17.636  0.00  0.00    +0.000 C 
BRANCH  21  22
ATOM     22  C   UNL     1       5.405   3.954  16.746  0.00  0.00    +0.000 C 
ATOM     23  O   UNL     1       5.690   3.422  15.674  0.00  0.00    +0.000 OA
BRANCH  22  24
ATOM     24  C   UNL     1       6.205   5.129  17.196  0.00  0.00    +0.000 A 
ATOM     25  C   UNL     1       7.298   5.002  18.064  0.00  0.00    +0.000 A 
ATOM     26  C   UNL     1       8.002   6.140  18.466  0.00  0.00    +0.000 A 
ATOM     27  C   UNL     1       7.625   7.399  17.996  0.00  0.00    +0.000 A 
ATOM     28 CL   UNL     1       8.490   8.795  18.502  0.00  0.00    +0.000 Cl
ATOM     29  C   UNL     1       6.546   7.533  17.123  0.00  0.00    +0.000 A 
ATOM     30  C   UNL     1       5.839   6.398  16.724  0.00  0.00    +0.000 A 
ENDBRANCH  22  24
ENDBRANCH  21  22
ENDBRANCH  20  21
ENDBRANCH  19  20
ENDBRANCH   2  19
TORSDOF 8
ENDMDL
MODEL 3
REMARK VINA RESULT:      -7.0      1.011      1.500
REMARK  Name = 
REMARK  10 active torsions:
REMARK  status: ('A' for Active; 'I' for Inactive)
REMARK    1  A    between atoms: C_1  and  N_2
REMARK    2  A    between atoms: N_2  and  C_3
REMARK    3  A    between atoms: N_2  and  C_4
REMARK    4  A    between atoms: N_7  and  C_8
REMARK    5  A    between atoms: C_11  and  N_12
REMARK    6  A    between atoms: C_13  and  C_15
REMARK    7  A    between atoms: C_15  and  C_16
REMARK    8  A    between atoms: C_16  and  C_17
REMARK    9  A    between atoms: C_17  and  C_18
REMARK   10  A    between atoms: C_18  and  C_20
REMARK                            x       y       z     vdW  Elec       q    Type
REMARK                         _______ _______ _______ _____ _____    ______ ____
ROOT
ATOM      1  N   UNL     1       2.342   5.689  20.946  0.00  0.00    +0.000 N 
ATOM      2  C   UNL     1       1.666   4.492  20.753  0.00  0.00    +0.000 C 
ATOM      3  O   UNL     1       0.538   4.361  20.279  0.00  0.00    +0.000 OA
ATOM      4  H   UNL     1       3.326   5.644  21.186  0.00  0.00    +0.000 HD
ENDROOT
BRANCH   1   8
ATOM      5  C   UNL     1       0.659   9.498  20.060  0.00  0.00    +0.000 A 
ATOM      6  C   UNL     1       0.377   8.845  21.261  0.00  0.00    +0.000 A 
ATOM      7  C   UNL     1       0.951   7.612  21.569  0.00  0.00    +0.000 A 
ATOM      8  C   UNL     1       1.805   6.969  20.677  0.00  0.00    +0.000 A 
ATOM      9  C   UNL     1       2.123   7.617  19.482  0.00  0.00    +0.000 A 
ATOM     10  C   UNL     1       1.540   8.861  19.174  0.00  0.00    +0.000 A 
BRANCH   5  14
ATOM     11  C   UNL     1       0.126  13.095  20.200  0.00  0.00    +0.000 C 
ATOM     12  C   UNL     1       0.987  12.811  18.966  0.00  0.00    +0.000 C 
ATOM     13  C   UNL     1       0.569  11.420  18.505  0.00  0.00    +0.000 C 
ATOM     14  N   UNL     1       0.085  10.724  19.710  0.00  0.00    +0.000 N 
ATOM     15  C   UNL     1       0.041  11.682  20.840  0.00  0.00    +0.000 C 
BRANCH  11  17
ATOM     16  C   UNL     1      -2.358  13.164  20.310  0.00  0.00    +0.000 C 
ATOM     17  N   UNL     1      -1.124  13.836  19.911  0.00  0.00    +0.000 NA
ATOM     18  C   UNL     1      -1.091  15.182  20.486  0.00  0.00    +0.000 C 
ENDBRANCH  11  17
ENDBRANCH   5  14
ENDBRANCH   1   8
BRANCH   2  19
ATOM     19  C   UNL     1       2.469   3.259  21.095  0.00  0.00    +0.000 C 
BRANCH  19  20
ATOM     20  C   UNL     1       3.651   3.109  20.132  0.00  0.00    +0.000 C 
BRANCH  20  21
ATOM     21  C   UNL     1       3.302   2.454  18.792  0.00  0.00    +0.000 C 
BRANCH  21  22
ATOM     22  C   UNL     1       3.336   3.423  17.624  0.00  0.00    +0.000 C 
ATOM     23  O   UNL     1       2.503   3.396  16.720  0.00  0.00    +0.000 OA
BRANCH  22  24
ATOM     24  C   UNL     1       4.431   4.432  17.557  0.00  0.00    +0.000 A 
ATOM     25  C   UNL     1       5.781   4.083  17.696  0.00  0.00    +0.000 A 
ATOM     26  C   UNL     1       6.765   5.073  17.641  0.00  0.00    +0.000 A 
ATOM     27  C   UNL     1       6.405   6.406  17.437  0.00  0.00    +0.000 A 
ATOM     28 CL   UNL     1       7.622   7.620  17.379  0.00  0.00    +0.000 Cl
ATOM     29  C   UNL     1       5.067   6.762  17.287  0.00  0.00    +0.000 A 
ATOM     30  C   UNL     1       4.082   5.775  17.345  0.00  0.00    +0.000 A 
ENDBRANCH  22  24
ENDBRANCH  21  22
ENDBRANCH  20  21
ENDBRANCH  19  20
ENDBRANCH   2  19
TORSDOF 8
ENDMDL
MODEL 4
REMARK VINA RESULT:      -7.0      1.375      1.828
REMARK  Name = 
REMARK  10 active torsions:
REMARK  status: ('A' for Active; 'I' for Inactive)
REMARK    1  A    between atoms: C_1  and  N_2
REMARK    2  A    between atoms: N_2  and  C_3
REMARK    3  A    between atoms: N_2  and  C_4
REMARK    4  A    between atoms: N_7  and  C_8
REMARK    5  A    between atoms: C_11  and  N_12
REMARK    6  A    between atoms: C_13  and  C_15
REMARK    7  A    between atoms: C_15  and  C_16
REMARK    8  A    between atoms: C_16  and  C_17
REMARK    9  A    between atoms: C_17  and  C_18
REMARK   10  A    between atoms: C_18  and  C_20
REMARK                            x       y       z     vdW  Elec       q    Type
REMARK                         _______ _______ _______ _____ _____    ______ ____
ROOT
ATOM      1  N   UNL     1       2.387   5.592  20.484  0.00  0.00    +0.000 N 
ATOM      2  C   UNL     1       1.493   4.534  20.565  0.00  0.00    +0.000 C 
ATOM      3  O   UNL     1       0.280   4.588  20.365  0.00  0.00    +0.000 OA
ATOM      4  H   UNL     1       3.378   5.378  20.506  0.00  0.00    +0.000 HD
ENDROOT
BRANCH   1   8
ATOM      5  C   UNL     1       1.220   9.589  19.592  0.00  0.00    +0.000 A 
ATOM      6  C   UNL     1       0.970   9.024  20.844  0.00  0.00    +0.000 A 
ATOM      7  C   UNL     1       1.378   7.727  21.151  0.00  0.00    +0.000 A 
ATOM      8  C   UNL     1       2.026   6.932  20.209  0.00  0.00    +0.000 A 
ATOM      9  C   UNL     1       2.312   7.485  18.960  0.00  0.00    +0.000 A 
ATOM     10  C   UNL     1       1.896   8.795  18.654  0.00  0.00    +0.000 A 
BRANCH   5  14
ATOM     11  C   UNL     1       0.586  13.137  20.087  0.00  0.00    +0.000 C 
ATOM     12  C   UNL     1       1.879  13.015  19.277  0.00  0.00    +0.000 C 
ATOM     13  C   UNL     1       1.719  11.735  18.467  0.00  0.00    +0.000 C 
ATOM     14  N   UNL     1       0.806  10.878  19.245  0.00  0.00    +0.000 N 
ATOM     15  C   UNL     1       0.284  11.646  20.399  0.00  0.00    +0.000 C 
BRANCH  11  17
ATOM     16  C   UNL     1      -1.563  14.372  20.310  0.00  0.00    +0.000 C 
ATOM     17  N   UNL     1      -0.459  13.968  19.442  0.00  0.00    +0.000 NA
ATOM     18  C   UNL     1       0.121  15.152  18.804  0.00  0.00    +0.000 C 
ENDBRANCH  11  17
ENDBRANCH   5  14
ENDBRANCH   1   8
BRANCH   2  19
ATOM     19  C   UNL     1       2.133   3.195  20.846  0.00  0.00    +0.000 C 
BRANCH  19  20
ATOM     20  C   UNL     1       1.755   2.184  19.758  0.00  0.00    +0.000 C 
BRANCH  20  21
ATOM     21  C   UNL     1       2.940   1.647  18.950  0.00  0.00    +0.000 C 
BRANCH  21  22
ATOM     22  C   UNL     1       4.269   2.257  19.355  0.00  0.00    +0.000 C 
ATOM     23  O   UNL     1       5.007   1.736  20.190  0.00  0.00    +0.000 OA
BRANCH  22  24
ATOM     24  C   UNL     1       4.689   3.547  18.736  0.00  0.00    +0.000 A 
ATOM     25  C   UNL     1       5.577   4.427  19.369  0.00  0.00    +0.000 A 
ATOM     26  C   UNL     1       5.922   5.630  18.749  0.00  0.00    +0.000 A 
ATOM     27  C   UNL     1       5.392   5.951  17.498  0.00  0.00    +0.000 A 
ATOM     28 CL   UNL     1       5.815   7.438  16.747  0.00  0.00    +0.000 Cl
ATOM     29  C   UNL     1       4.516   5.077  16.857  0.00  0.00    +0.000 A 
ATOM     30  C   UNL     1       4.167   3.876  17.476  0.00  0.00    +0.000 A 
ENDBRANCH  22  24
ENDBRANCH  21  22
ENDBRANCH  20  21
ENDBRANCH  19  20
ENDBRANCH   2  19
TORSDOF 8
ENDMDL
MODEL 5
REMARK VINA RESULT:      -7.0      2.117      2.882
REMARK  Name = 
REMARK  10 active torsions:
REMARK  status: ('A' for Active; 'I' for Inactive)
REMARK    1  A    between atoms: C_1  and  N_2
REMARK    2  A    between atoms: N_2  and  C_3
REMARK    3  A    between atoms: N_2  and  C_4
REMARK    4  A    between atoms: N_7  and  C_8
REMARK    5  A    between atoms: C_11  and  N_12
REMARK    6  A    between atoms: C_13  and  C_15
REMARK    7  A    between atoms: C_15  and  C_16
REMARK    8  A    between atoms: C_16  and  C_17
REMARK    9  A    between atoms: C_17  and  C_18
REMARK   10  A    between atoms: C_18  and  C_20
REMARK                            x       y       z     vdW  Elec       q    Type
REMARK                         _______ _______ _______ _____ _____    ______ ____
ROOT
ATOM      1  N   UNL     1       2.904   6.101  19.914  0.00  0.00    +0.000 N 
ATOM      2  C   UNL     1       2.325   4.848  20.049  0.00  0.00    +0.000 C 
ATOM      3  O   UNL     1       1.119   4.602  20.081  0.00  0.00    +0.000 OA
ATOM      4  H   UNL     1       3.901   6.146  19.732  0.00  0.00    +0.000 HD
ENDROOT
BRANCH   1   8
ATOM      5  C   UNL     1       0.818   9.811  19.775  0.00  0.00    +0.000 A 
ATOM      6  C   UNL     1       1.441   9.289  18.640  0.00  0.00    +0.000 A 
ATOM      7  C   UNL     1       2.099   8.060  18.674  0.00  0.00    +0.000 A 
ATOM      8  C   UNL     1       2.185   7.318  19.848  0.00  0.00    +0.000 A 
ATOM      9  C   UNL     1       1.544   7.806  20.988  0.00  0.00    +0.000 A 
ATOM     10  C   UNL     1       0.883   9.049  20.951  0.00  0.00    +0.000 A 
BRANCH   5  14
ATOM     11  C   UNL     1       0.012  13.163  18.612  0.00  0.00    +0.000 C 
ATOM     12  C   UNL     1      -1.122  12.239  18.157  0.00  0.00    +0.000 C 
ATOM     13  C   UNL     1      -1.189  11.145  19.215  0.00  0.00    +0.000 C 
ATOM     14  N   UNL     1       0.169  11.049  19.782  0.00  0.00    +0.000 N 
ATOM     15  C   UNL     1       1.004  12.140  19.229  0.00  0.00    +0.000 C 
BRANCH  11  17
ATOM     16  C   UNL     1       0.102  14.378  20.781  0.00  0.00    +0.000 C 
ATOM     17  N   UNL     1      -0.436  14.319  19.424  0.00  0.00    +0.000 NA
ATOM     18  C   UNL     1      -0.175  15.586  18.738  0.00  0.00    +0.000 C 
ENDBRANCH  11  17
ENDBRANCH   5  14
ENDBRANCH   1   8
BRANCH   2  19
ATOM     19  C   UNL     1       3.310   3.703  20.070  0.00  0.00    +0.000 C 
BRANCH  19  20
ATOM     20  C   UNL     1       3.982   3.553  18.701  0.00  0.00    +0.000 C 
BRANCH  20  21
ATOM     21  C   UNL     1       5.368   4.198  18.599  0.00  0.00    +0.000 C 
BRANCH  21  22
ATOM     22  C   UNL     1       5.443   5.294  17.552  0.00  0.00    +0.000 C 
ATOM     23  O   UNL     1       5.143   6.461  17.795  0.00  0.00    +0.000 OA
BRANCH  22  24
ATOM     24  C   UNL     1       5.877   4.940  16.170  0.00  0.00    +0.000 A 
ATOM     25  C   UNL     1       7.176   5.186  15.706  0.00  0.00    +0.000 A 
ATOM     26  C   UNL     1       7.523   4.849  14.396  0.00  0.00    +0.000 A 
ATOM     27  C   UNL     1       6.579   4.260  13.552  0.00  0.00    +0.000 A 
ATOM     28 CL   UNL     1       7.010   3.856  11.938  0.00  0.00    +0.000 Cl
ATOM     29  C   UNL     1       5.288   4.002  14.007  0.00  0.00    +0.000 A 
ATOM     30  C   UNL     1       4.939   4.341  15.315  0.00  0.00    +0.000 A 
ENDBRANCH  22  24
ENDBRANCH  21  22
ENDBRANCH  20  21
ENDBRANCH  19  20
ENDBRANCH   2  19
TORSDOF 8
ENDMDL
MODEL 6
REMARK VINA RESULT:      -6.9      1.387      2.072
REMARK  Name = 
REMARK  10 active torsions:
REMARK  status: ('A' for Active; 'I' for Inactive)
REMARK    1  A    between atoms: C_1  and  N_2
REMARK    2  A    between atoms: N_2  and  C_3
REMARK    3  A    between atoms: N_2  and  C_4
REMARK    4  A    between atoms: N_7  and  C_8
REMARK    5  A    between atoms: C_11  and  N_12
REMARK    6  A    between atoms: C_13  and  C_15
REMARK    7  A    between atoms: C_15  and  C_16
REMARK    8  A    between atoms: C_16  and  C_17
REMARK    9  A    between atoms: C_17  and  C_18
REMARK   10  A    between atoms: C_18  and  C_20
REMARK                            x       y       z     vdW  Elec       q    Type
REMARK                         _______ _______ _______ _____ _____    ______ ____
ROOT
ATOM      1  N   UNL     1       3.255   5.964  19.318  0.00  0.00    +0.000 N 
ATOM      2  C   UNL     1       2.871   4.692  19.718  0.00  0.00    +0.000 C 
ATOM      3  O   UNL     1       1.779   4.376  20.190  0.00  0.00    +0.000 OA
ATOM      4  H   UNL     1       4.117   6.055  18.791  0.00  0.00    +0.000 HD
ENDROOT
BRANCH   1   8
ATOM      5  C   UNL     1       0.931   9.503  19.771  0.00  0.00    +0.000 A 
ATOM      6  C   UNL     1       1.524   9.179  18.549  0.00  0.00    +0.000 A 
ATOM      7  C   UNL     1       2.259   8.005  18.389  0.00  0.00    +0.000 A 
ATOM      8  C   UNL     1       2.457   7.125  19.449  0.00  0.00    +0.000 A 
ATOM      9  C   UNL     1       1.850   7.414  20.672  0.00  0.00    +0.000 A 
ATOM     10  C   UNL     1       1.109   8.602  20.831  0.00  0.00    +0.000 A 
BRANCH   5  14
ATOM     11  C   UNL     1       0.432  13.077  20.238  0.00  0.00    +0.000 C 
ATOM     12  C   UNL     1       0.070  12.753  18.786  0.00  0.00    +0.000 C 
ATOM     13  C   UNL     1      -0.449  11.321  18.818  0.00  0.00    +0.000 C 
ATOM     14  N   UNL     1       0.206  10.681  19.973  0.00  0.00    +0.000 N 
ATOM     15  C   UNL     1       0.966  11.703  20.729  0.00  0.00    +0.000 C 
BRANCH  11  17
ATOM     16  C   UNL     1      -1.952  13.783  20.336  0.00  0.00    +0.000 C 
ATOM     17  N   UNL     1      -0.650  13.748  20.998  0.00  0.00    +0.000 NA
ATOM     18  C   UNL     1      -0.796  13.173  22.337  0.00  0.00    +0.000 C 
ENDBRANCH  11  17
ENDBRANCH   5  14
ENDBRANCH   1   8
BRANCH   2  19
ATOM     19  C   UNL     1       3.895   3.616  19.447  0.00  0.00    +0.000 C 
BRANCH  19  20
ATOM     20  C   UNL     1       3.579   2.898  18.131  0.00  0.00    +0.000 C 
BRANCH  20  21
ATOM     21  C   UNL     1       3.725   3.769  16.880  0.00  0.00    +0.000 C 
BRANCH  21  22
ATOM     22  C   UNL     1       5.166   3.941  16.433  0.00  0.00    +0.000 C 
ATOM     23  O   UNL     1       5.726   3.137  15.689  0.00  0.00    +0.000 OA
BRANCH  22  24
ATOM     24  C   UNL     1       5.939   5.114  16.929  0.00  0.00    +0.000 A 
ATOM     25  C   UNL     1       5.593   6.432  16.603  0.00  0.00    +0.000 A 
ATOM     26  C   UNL     1       6.364   7.493  17.083  0.00  0.00    +0.000 A 
ATOM     27  C   UNL     1       7.471   7.242  17.896  0.00  0.00    +0.000 A 
ATOM     28 CL   UNL     1       8.420   8.553  18.476  0.00  0.00    +0.000 Cl
ATOM     29  C   UNL     1       7.817   5.936  18.235  0.00  0.00    +0.000 A 
ATOM     30  C   UNL     1       7.050   4.874  17.752  0.00  0.00    +0.000 A 
ENDBRANCH  22  24
ENDBRANCH  21  22
ENDBRANCH  20  21
ENDBRANCH  19  20
ENDBRANCH   2  19
TORSDOF 8
ENDMDL
MODEL 7
REMARK VINA RESULT:      -6.9      1.003      1.661
REMARK  Name = 
REMARK  10 active torsions:
REMARK  status: ('A' for Active; 'I' for Inactive)
REMARK    1  A    between atoms: C_1  and  N_2
REMARK    2  A    between atoms: N_2  and  C_3
REMARK    3  A    between atoms: N_2  and  C_4
REMARK    4  A    between atoms: N_7  and  C_8
REMARK    5  A    between atoms: C_11  and  N_12
REMARK    6  A    between atoms: C_13  and  C_15
REMARK    7  A    between atoms: C_15  and  C_16
REMARK    8  A    between atoms: C_16  and  C_17
REMARK    9  A    between atoms: C_17  and  C_18
REMARK   10  A    between atoms: C_18  and  C_20
REMARK                            x       y       z     vdW  Elec       q    Type
REMARK                         _______ _______ _______ _____ _____    ______ ____
ROOT
ATOM      1  N   UNL     1       2.291   5.562  20.868  0.00  0.00    +0.000 N 
ATOM      2  C   UNL     1       1.526   4.425  20.650  0.00  0.00    +0.000 C 
ATOM      3  O   UNL     1       0.390   4.392  20.177  0.00  0.00    +0.000 OA
ATOM      4  H   UNL     1       3.270   5.436  21.103  0.00  0.00    +0.000 HD
ENDROOT
BRANCH   1   8
ATOM      5  C   UNL     1       1.049   9.583  20.220  0.00  0.00    +0.000 A 
ATOM      6  C   UNL     1       1.723   8.865  19.230  0.00  0.00    +0.000 A 
ATOM      7  C   UNL     1       2.103   7.539  19.427  0.00  0.00    +0.000 A 
ATOM      8  C   UNL     1       1.853   6.886  20.630  0.00  0.00    +0.000 A 
ATOM      9  C   UNL     1       1.156   7.574  21.624  0.00  0.00    +0.000 A 
ATOM     10  C   UNL     1       0.775   8.915  21.423  0.00  0.00    +0.000 A 
BRANCH   5  14
ATOM     11  C   UNL     1       0.693  12.771  18.505  0.00  0.00    +0.000 C 
ATOM     12  C   UNL     1      -0.669  12.074  18.456  0.00  0.00    +0.000 C 
ATOM     13  C   UNL     1      -0.727  11.231  19.723  0.00  0.00    +0.000 C 
ATOM     14  N   UNL     1       0.673  10.920  20.064  0.00  0.00    +0.000 N 
ATOM     15  C   UNL     1       1.572  11.670  19.157  0.00  0.00    +0.000 C 
BRANCH  11  17
ATOM     16  C   UNL     1       1.773  15.001  18.745  0.00  0.00    +0.000 C 
ATOM     17  N   UNL     1       0.661  14.125  19.108  0.00  0.00    +0.000 NA
ATOM     18  C   UNL     1      -0.607  14.803  18.830  0.00  0.00    +0.000 C 
ENDBRANCH  11  17
ENDBRANCH   5  14
ENDBRANCH   1   8
BRANCH   2  19
ATOM     19  C   UNL     1       2.232   3.127  20.959  0.00  0.00    +0.000 C 
BRANCH  19  20
ATOM     20  C   UNL     1       3.520   3.011  20.137  0.00  0.00    +0.000 C 
BRANCH  20  21
ATOM     21  C   UNL     1       3.342   2.357  18.763  0.00  0.00    +0.000 C 
BRANCH  21  22
ATOM     22  C   UNL     1       3.302   3.359  17.623  0.00  0.00    +0.000 C 
ATOM     23  O   UNL     1       2.457   3.309  16.730  0.00  0.00    +0.000 OA
BRANCH  22  24
ATOM     24  C   UNL     1       4.337   4.430  17.569  0.00  0.00    +0.000 A 
ATOM     25  C   UNL     1       4.013   5.774  17.345  0.00  0.00    +0.000 A 
ATOM     26  C   UNL     1       5.026   6.734  17.288  0.00  0.00    +0.000 A 
ATOM     27  C   UNL     1       6.359   6.356  17.462  0.00  0.00    +0.000 A 
ATOM     28 CL   UNL     1       7.601   7.541  17.381  0.00  0.00    +0.000 Cl
ATOM     29  C   UNL     1       6.690   5.023  17.696  0.00  0.00    +0.000 A 
ATOM     30  C   UNL     1       5.680   4.062  17.750  0.00  0.00    +0.000 A 
ENDBRANCH  22  24
ENDBRANCH  21  22
ENDBRANCH  20  21
ENDBRANCH  19  20
ENDBRANCH   2  19
TORSDOF 8
ENDMDL
MODEL 8
REMARK VINA RESULT:      -6.8      1.361      2.144
REMARK  Name = 
REMARK  10 active torsions:
REMARK  status: ('A' for Active; 'I' for Inactive)
REMARK    1  A    between atoms: C_1  and  N_2
REMARK    2  A    between atoms: N_2  and  C_3
REMARK    3  A    between atoms: N_2  and  C_4
REMARK    4  A    between atoms: N_7  and  C_8
REMARK    5  A    between atoms: C_11  and  N_12
REMARK    6  A    between atoms: C_13  and  C_15
REMARK    7  A    between atoms: C_15  and  C_16
REMARK    8  A    between atoms: C_16  and  C_17
REMARK    9  A    between atoms: C_17  and  C_18
REMARK   10  A    between atoms: C_18  and  C_20
REMARK                            x       y       z     vdW  Elec       q    Type
REMARK                         _______ _______ _______ _____ _____    ______ ____
ROOT
ATOM      1  N   UNL     1       2.678   5.984  19.248  0.00  0.00    +0.000 N 
ATOM      2  C   UNL     1       2.121   4.841  19.802  0.00  0.00    +0.000 C 
ATOM      3  O   UNL     1       1.077   4.780  20.452  0.00  0.00    +0.000 OA
ATOM      4  H   UNL     1       3.447   5.869  18.597  0.00  0.00    +0.000 HD
ENDROOT
BRANCH   1   8
ATOM      5  C   UNL     1       1.008   9.881  19.640  0.00  0.00    +0.000 A 
ATOM      6  C   UNL     1       1.102   9.021  20.736  0.00  0.00    +0.000 A 
ATOM      7  C   UNL     1       1.676   7.756  20.618  0.00  0.00    +0.000 A 
ATOM      8  C   UNL     1       2.153   7.289  19.397  0.00  0.00    +0.000 A 
ATOM      9  C   UNL     1       2.096   8.143  18.294  0.00  0.00    +0.000 A 
ATOM     10  C   UNL     1       1.512   9.419  18.416  0.00  0.00    +0.000 A 
BRANCH   5  14
ATOM     11  C   UNL     1      -0.033  13.157  18.447  0.00  0.00    +0.000 C 
ATOM     12  C   UNL     1      -1.271  12.256  18.439  0.00  0.00    +0.000 C 
ATOM     13  C   UNL     1      -1.043  11.262  19.571  0.00  0.00    +0.000 C 
ATOM     14  N   UNL     1       0.419  11.147  19.718  0.00  0.00    +0.000 N 
ATOM     15  C   UNL     1       1.076  12.142  18.840  0.00  0.00    +0.000 C 
BRANCH  11  17
ATOM     16  C   UNL     1      -1.346  14.430  20.134  0.00  0.00    +0.000 C 
ATOM     17  N   UNL     1      -0.192  14.400  19.239  0.00  0.00    +0.000 NA
ATOM     18  C   UNL     1       1.023  14.708  19.996  0.00  0.00    +0.000 C 
ENDBRANCH  11  17
ENDBRANCH   5  14
ENDBRANCH   1   8
BRANCH   2  19
ATOM     19  C   UNL     1       2.859   3.564  19.476  0.00  0.00    +0.000 C 
BRANCH  19  20
ATOM     20  C   UNL     1       4.171   3.877  18.750  0.00  0.00    +0.000 C 
BRANCH  20  21
ATOM     21  C   UNL     1       4.142   3.612  17.242  0.00  0.00    +0.000 C 
BRANCH  21  22
ATOM     22  C   UNL     1       5.437   3.985  16.542  0.00  0.00    +0.000 C 
ATOM     23  O   UNL     1       5.855   3.376  15.558  0.00  0.00    +0.000 OA
BRANCH  22  24
ATOM     24  C   UNL     1       6.246   5.117  17.078  0.00  0.00    +0.000 A 
ATOM     25  C   UNL     1       7.288   4.924  17.995  0.00  0.00    +0.000 A 
ATOM     26  C   UNL     1       8.002   6.024  18.476  0.00  0.00    +0.000 A 
ATOM     27  C   UNL     1       7.685   7.311  18.038  0.00  0.00    +0.000 A 
ATOM     28 CL   UNL     1       8.563   8.660  18.643  0.00  0.00    +0.000 Cl
ATOM     29  C   UNL     1       6.657   7.511  17.119  0.00  0.00    +0.000 A 
ATOM     30  C   UNL     1       5.940   6.414  16.639  0.00  0.00    +0.000 A 
ENDBRANCH  22  24
ENDBRANCH  21  22
ENDBRANCH  20  21
ENDBRANCH  19  20
ENDBRANCH   2  19
TORSDOF 8
ENDMDL
MODEL 9
REMARK VINA RESULT:      -6.8      4.510     10.141
REMARK  Name = 
REMARK  10 active torsions:
REMARK  status: ('A' for Active; 'I' for Inactive)
REMARK    1  A    between atoms: C_1  and  N_2
REMARK    2  A    between atoms: N_2  and  C_3
REMARK    3  A    between atoms: N_2  and  C_4
REMARK    4  A    between atoms: N_7  and  C_8
REMARK    5  A    between atoms: C_11  and  N_12
REMARK    6  A    between atoms: C_13  and  C_15
REMARK    7  A    between atoms: C_15  and  C_16
REMARK    8  A    between atoms: C_16  and  C_17
REMARK    9  A    between atoms: C_17  and  C_18
REMARK   10  A    between atoms: C_18  and  C_20
REMARK                            x       y       z     vdW  Elec       q    Type
REMARK                         _______ _______ _______ _____ _____    ______ ____
ROOT
ATOM      1  N   UNL     1       0.606  11.057  19.050  0.00  0.00    +0.000 N 
ATOM      2  C   UNL     1       1.301  12.218  18.745  0.00  0.00    +0.000 C 
ATOM      3  O   UNL     1       2.499  12.300  18.474  0.00  0.00    +0.000 OA
ATOM      4  H   UNL     1      -0.406  11.106  19.087  0.00  0.00    +0.000 HD
ENDROOT
BRANCH   1   8
ATOM      5  C   UNL     1       2.265   7.148  19.371  0.00  0.00    +0.000 A 
ATOM      6  C   UNL     1       2.308   7.856  18.168  0.00  0.00    +0.000 A 
ATOM      7  C   UNL     1       1.794   9.148  18.067  0.00  0.00    +0.000 A 
ATOM      8  C   UNL     1       1.190   9.773  19.155  0.00  0.00    +0.000 A 
ATOM      9  C   UNL     1       1.162   9.096  20.375  0.00  0.00    +0.000 A 
ATOM     10  C   UNL     1       1.680   7.790  20.472  0.00  0.00    +0.000 A 
BRANCH   5  14
ATOM     11  C   UNL     1       2.174   3.517  19.170  0.00  0.00    +0.000 C 
ATOM     12  C   UNL     1       2.990   4.017  17.976  0.00  0.00    +0.000 C 
ATOM     13  C   UNL     1       3.642   5.308  18.456  0.00  0.00    +0.000 C 
ATOM     14  N   UNL     1       2.751   5.844  19.501  0.00  0.00    +0.000 N 
ATOM     15  C   UNL     1       1.684   4.857  19.783  0.00  0.00    +0.000 C 
BRANCH  11  17
ATOM     16  C   UNL     1       4.337   2.488  19.842  0.00  0.00    +0.000 C 
ATOM     17  N   UNL     1       2.890   2.545  20.031  0.00  0.00    +0.000 NA
ATOM     18  C   UNL     1       2.589   2.763  21.447  0.00  0.00    +0.000 C 
ENDBRANCH  11  17
ENDBRANCH   5  14
ENDBRANCH   1   8
BRANCH   2  19
ATOM     19  C   UNL     1       0.443  13.459  18.669  0.00  0.00    +0.000 C 
BRANCH  19  20
ATOM     20  C   UNL     1      -1.007  13.128  19.037  0.00  0.00    +0.000 C 
BRANCH  20  21
ATOM     21  C   UNL     1      -1.447  13.637  20.413  0.00  0.00    +0.000 C 
BRANCH  21  22
ATOM     22  C   UNL     1      -1.897  12.529  21.347  0.00  0.00    +0.000 C 
ATOM     23  O   UNL     1      -1.224  11.519  21.546  0.00  0.00    +0.000 OA
BRANCH  22  24
ATOM     24  C   UNL     1      -3.215  12.656  22.033  0.00  0.00    +0.000 A 
ATOM     25  C   UNL     1      -4.414  12.822  21.328  0.00  0.00    +0.000 A 
ATOM     26  C   UNL     1      -5.618  12.952  22.024  0.00  0.00    +0.000 A 
ATOM     27  C   UNL     1      -5.628  12.906  23.419  0.00  0.00    +0.000 A 
ATOM     28 CL   UNL     1      -7.113  13.076  24.269  0.00  0.00    +0.000 Cl
ATOM     29  C   UNL     1      -4.442  12.730  24.129  0.00  0.00    +0.000 A 
ATOM     30  C   UNL     1      -3.237  12.604  23.436  0.00  0.00    +0.000 A 
ENDBRANCH  22  24
ENDBRANCH  21  22
ENDBRANCH  20  21
ENDBRANCH  19  20
ENDBRANCH   2  19
TORSDOF 8
ENDMDL
