MODEL 1
REMARK VINA RESULT:      -6.3      0.000      0.000
REMARK  Name = 
REMARK  3 active torsions:
REMARK  status: ('A' for Active; 'I' for Inactive)
REMARK    1  A    between atoms: C_1  and  C_2
REMARK    2  A    between atoms: C_3  and  O_4
REMARK    3  A    between atoms: C_12  and  O_13
REMARK                            x       y       z     vdW  Elec       q    Type
REMARK                         _______ _______ _______ _____ _____    ______ ____
ROOT
ATOM      1  C   UNL     1       7.832   7.350  17.795  0.00  0.00    +0.000 C 
ATOM      2  C   UNL     1       6.886   6.254  18.186  0.00  0.00    +0.000 A 
ATOM      3  C   UNL     1       6.968   5.510  19.350  0.00  0.00    +0.000 A 
ATOM      4  N   UNL     1       6.119   4.521  19.677  0.00  0.00    +0.000 NA
ATOM      5  C   UNL     1       5.127   4.198  18.855  0.00  0.00    +0.000 A 
ATOM      6  N   UNL     1       4.335   3.190  19.229  0.00  0.00    +0.000 NA
ATOM      7  C   UNL     1       3.319   2.809  18.430  0.00  0.00    +0.000 A 
ATOM      8  C   UNL     1       3.031   3.410  17.228  0.00  0.00    +0.000 A 
ATOM      9  C   UNL     1       3.842   4.462  16.828  0.00  0.00    +0.000 A 
ATOM     10  C   UNL     1       4.923   4.881  17.644  0.00  0.00    +0.000 A 
ATOM     11  C   UNL     1       5.826   5.923  17.334  0.00  0.00    +0.000 A 
ENDROOT
BRANCH   3  12
ATOM     12  O   UNL     1       7.927   5.700  20.298  0.00  0.00    +0.000 OA
ATOM     13  H   UNL     1       8.802   5.698  19.895  0.00  0.00    +0.000 HD
ENDBRANCH   3  12
BRANCH  11  14
ATOM     14  O   UNL     1       5.726   6.666  16.181  0.00  0.00    +0.000 OA
ATOM     15  H   UNL     1       4.941   6.410  15.676  0.00  0.00    +0.000 HD
ENDBRANCH  11  14
TORSDOF 2
ENDMDL
MODEL 2
REMARK VINA RESULT:      -6.2      2.234      2.749
REMARK  Name = 
REMARK  3 active torsions:
REMARK  status: ('A' for Active; 'I' for Inactive)
REMARK    1  A    between atoms: C_1  and  C_2
REMARK    2  A    between atoms: C_3  and  O_4
REMARK    3  A    between atoms: C_12  and  O_13
REMARK                            x       y       z     vdW  Elec       q    Type
REMARK                         _______ _______ _______ _____ _____    ______ ____
ROOT
ATOM      1  C   UNL     1       5.373   6.598  17.211  0.00  0.00    +0.000 C 
ATOM      2  C   UNL     1       4.831   5.543  18.130  0.00  0.00    +0.000 A 
ATOM      3  C   UNL     1       5.531   4.429  18.561  0.00  0.00    +0.000 A 
ATOM      4  N   UNL     1       5.023   3.486  19.374  0.00  0.00    +0.000 NA
ATOM      5  C   UNL     1       3.773   3.587  19.810  0.00  0.00    +0.000 A 
ATOM      6  N   UNL     1       3.324   2.604  20.594  0.00  0.00    +0.000 NA
ATOM      7  C   UNL     1       2.059   2.644  21.056  0.00  0.00    +0.000 A 
ATOM      8  C   UNL     1       1.179   3.661  20.773  0.00  0.00    +0.000 A 
ATOM      9  C   UNL     1       1.632   4.693  19.964  0.00  0.00    +0.000 A 
ATOM     10  C   UNL     1       2.956   4.675  19.456  0.00  0.00    +0.000 A 
ATOM     11  C   UNL     1       3.521   5.654  18.609  0.00  0.00    +0.000 A 
ENDROOT
BRANCH   3  12
ATOM     12  O   UNL     1       6.818   4.163  18.205  0.00  0.00    +0.000 OA
ATOM     13  H   UNL     1       7.385   4.153  18.984  0.00  0.00    +0.000 HD
ENDBRANCH   3  12
BRANCH  11  14
ATOM     14  O   UNL     1       2.822   6.766  18.199  0.00  0.00    +0.000 OA
ATOM     15  H   UNL     1       2.374   6.596  17.358  0.00  0.00    +0.000 HD
ENDBRANCH  11  14
TORSDOF 2
ENDMDL
MODEL 3
REMARK VINA RESULT:      -5.9      1.716      1.947
REMARK  Name = 
REMARK  3 active torsions:
REMARK  status: ('A' for Active; 'I' for Inactive)
REMARK    1  A    between atoms: C_1  and  C_2
REMARK    2  A    between atoms: C_3  and  O_4
REMARK    3  A    between atoms: C_12  and  O_13
REMARK                            x       y       z     vdW  Elec       q    Type
REMARK                         _______ _______ _______ _____ _____    ______ ____
ROOT
ATOM      1  C   UNL     1       7.445   4.637  17.037  0.00  0.00    +0.000 C 
ATOM      2  C   UNL     1       6.168   4.663  17.824  0.00  0.00    +0.000 A 
ATOM      3  C   UNL     1       6.056   5.063  19.144  0.00  0.00    +0.000 A 
ATOM      4  N   UNL     1       4.905   5.066  19.838  0.00  0.00    +0.000 NA
ATOM      5  C   UNL     1       3.780   4.660  19.261  0.00  0.00    +0.000 A 
ATOM      6  N   UNL     1       2.678   4.665  20.014  0.00  0.00    +0.000 NA
ATOM      7  C   UNL     1       1.508   4.251  19.487  0.00  0.00    +0.000 A 
ATOM      8  C   UNL     1       1.369   3.821  18.189  0.00  0.00    +0.000 A 
ATOM      9  C   UNL     1       2.506   3.815  17.392  0.00  0.00    +0.000 A 
ATOM     10  C   UNL     1       3.751   4.237  17.921  0.00  0.00    +0.000 A 
ATOM     11  C   UNL     1       4.976   4.256  17.215  0.00  0.00    +0.000 A 
ENDROOT
BRANCH   3  12
ATOM     12  O   UNL     1       7.108   5.499  19.891  0.00  0.00    +0.000 OA
ATOM     13  H   UNL     1       6.942   5.341  20.827  0.00  0.00    +0.000 HD
ENDBRANCH   3  12
BRANCH  11  14
ATOM     14  O   UNL     1       5.073   3.871  15.898  0.00  0.00    +0.000 OA
ATOM     15  H   UNL     1       5.502   4.560  15.371  0.00  0.00    +0.000 HD
ENDBRANCH  11  14
TORSDOF 2
ENDMDL
MODEL 4
REMARK VINA RESULT:      -5.9      2.995      4.701
REMARK  Name = 
REMARK  3 active torsions:
REMARK  status: ('A' for Active; 'I' for Inactive)
REMARK    1  A    between atoms: C_1  and  C_2
REMARK    2  A    between atoms: C_3  and  O_4
REMARK    3  A    between atoms: C_12  and  O_13
REMARK                            x       y       z     vdW  Elec       q    Type
REMARK                         _______ _______ _______ _____ _____    ______ ____
ROOT
ATOM      1  C   UNL     1       1.055   3.715  20.297  0.00  0.00    +0.000 C 
ATOM      2  C   UNL     1       2.043   3.851  19.176  0.00  0.00    +0.000 A 
ATOM      3  C   UNL     1       2.491   2.811  18.380  0.00  0.00    +0.000 A 
ATOM      4  N   UNL     1       3.388   2.950  17.389  0.00  0.00    +0.000 NA
ATOM      5  C   UNL     1       3.910   4.144  17.128  0.00  0.00    +0.000 A 
ATOM      6  N   UNL     1       4.814   4.207  16.147  0.00  0.00    +0.000 NA
ATOM      7  C   UNL     1       5.388   5.388  15.845  0.00  0.00    +0.000 A 
ATOM      8  C   UNL     1       5.091   6.565  16.491  0.00  0.00    +0.000 A 
ATOM      9  C   UNL     1       4.150   6.515  17.509  0.00  0.00    +0.000 A 
ATOM     10  C   UNL     1       3.534   5.286  17.855  0.00  0.00    +0.000 A 
ATOM     11  C   UNL     1       2.581   5.109  18.883  0.00  0.00    +0.000 A 
ENDROOT
BRANCH   3  12
ATOM     12  O   UNL     1       2.069   1.524  18.515  0.00  0.00    +0.000 OA
ATOM     13  H   UNL     1       2.443   0.974  17.817  0.00  0.00    +0.000 HD
ENDBRANCH   3  12
BRANCH  11  14
ATOM     14  O   UNL     1       2.132   6.152  19.658  0.00  0.00    +0.000 OA
ATOM     15  H   UNL     1       1.701   5.821  20.460  0.00  0.00    +0.000 HD
ENDBRANCH  11  14
TORSDOF 2
ENDMDL
MODEL 5
REMARK VINA RESULT:      -5.9      2.472      4.245
REMARK  Name = 
REMARK  3 active torsions:
REMARK  status: ('A' for Active; 'I' for Inactive)
REMARK    1  A    between atoms: C_1  and  C_2
REMARK    2  A    between atoms: C_3  and  O_4
REMARK    3  A    between atoms: C_12  and  O_13
REMARK                            x       y       z     vdW  Elec       q    Type
REMARK                         _______ _______ _______ _____ _____    ______ ____
ROOT
ATOM      1  C   UNL     1       1.178   2.399  19.051  0.00  0.00    +0.000 C 
ATOM      2  C   UNL     1       2.588   2.891  18.912  0.00  0.00    +0.000 A 
ATOM      3  C   UNL     1       3.526   2.914  19.928  0.00  0.00    +0.000 A 
ATOM      4  N   UNL     1       4.782   3.373  19.788  0.00  0.00    +0.000 NA
ATOM      5  C   UNL     1       5.188   3.851  18.617  0.00  0.00    +0.000 A 
ATOM      6  N   UNL     1       6.439   4.313  18.553  0.00  0.00    +0.000 NA
ATOM      7  C   UNL     1       6.903   4.822  17.395  0.00  0.00    +0.000 A 
ATOM      8  C   UNL     1       6.157   4.891  16.242  0.00  0.00    +0.000 A 
ATOM      9  C   UNL     1       4.857   4.410  16.292  0.00  0.00    +0.000 A 
ATOM     10  C   UNL     1       4.338   3.876  17.498  0.00  0.00    +0.000 A 
ATOM     11  C   UNL     1       3.028   3.376  17.675  0.00  0.00    +0.000 A 
ENDROOT
BRANCH   3  12
ATOM     12  O   UNL     1       3.278   2.473  21.193  0.00  0.00    +0.000 OA
ATOM     13  H   UNL     1       3.376   3.195  21.824  0.00  0.00    +0.000 HD
ENDBRANCH   3  12
BRANCH  11  14
ATOM     14  O   UNL     1       2.108   3.344  16.653  0.00  0.00    +0.000 OA
ATOM     15  H   UNL     1       1.869   4.241  16.379  0.00  0.00    +0.000 HD
ENDBRANCH  11  14
TORSDOF 2
ENDMDL
MODEL 6
REMARK VINA RESULT:      -5.9      2.623      3.243
REMARK  Name = 
REMARK  3 active torsions:
REMARK  status: ('A' for Active; 'I' for Inactive)
REMARK    1  A    between atoms: C_1  and  C_2
REMARK    2  A    between atoms: C_3  and  O_4
REMARK    3  A    between atoms: C_12  and  O_13
REMARK                            x       y       z     vdW  Elec       q    Type
REMARK                         _______ _______ _______ _____ _____    ______ ____
ROOT
ATOM      1  C   UNL     1       5.054   6.329  16.322  0.00  0.00    +0.000 C 
ATOM      2  C   UNL     1       4.397   5.258  17.141  0.00  0.00    +0.000 A 
ATOM      3  C   UNL     1       4.675   3.905  17.053  0.00  0.00    +0.000 A 
ATOM      4  N   UNL     1       4.065   2.958  17.786  0.00  0.00    +0.000 NA
ATOM      5  C   UNL     1       3.122   3.297  18.658  0.00  0.00    +0.000 A 
ATOM      6  N   UNL     1       2.540   2.305  19.335  0.00  0.00    +0.000 NA
ATOM      7  C   UNL     1       1.568   2.586  20.225  0.00  0.00    +0.000 A 
ATOM      8  C   UNL     1       1.130   3.861  20.495  0.00  0.00    +0.000 A 
ATOM      9  C   UNL     1       1.730   4.903  19.803  0.00  0.00    +0.000 A 
ATOM     10  C   UNL     1       2.750   4.638  18.855  0.00  0.00    +0.000 A 
ATOM     11  C   UNL     1       3.418   5.611  18.077  0.00  0.00    +0.000 A 
ENDROOT
BRANCH   3  12
ATOM     12  O   UNL     1       5.604   3.381  16.206  0.00  0.00    +0.000 OA
ATOM     13  H   UNL     1       6.280   2.907  16.703  0.00  0.00    +0.000 HD
ENDBRANCH   3  12
BRANCH  11  14
ATOM     14  O   UNL     1       3.144   6.955  18.184  0.00  0.00    +0.000 OA
ATOM     15  H   UNL     1       3.481   7.435  17.414  0.00  0.00    +0.000 HD
ENDBRANCH  11  14
TORSDOF 2
ENDMDL
MODEL 7
REMARK VINA RESULT:      -5.9      3.103      4.459
REMARK  Name = 
REMARK  3 active torsions:
REMARK  status: ('A' for Active; 'I' for Inactive)
REMARK    1  A    between atoms: C_1  and  C_2
REMARK    2  A    between atoms: C_3  and  O_4
REMARK    3  A    between atoms: C_12  and  O_13
REMARK                            x       y       z     vdW  Elec       q    Type
REMARK                         _______ _______ _______ _____ _____    ______ ____
ROOT
ATOM      1  C   UNL     1       2.380   2.597  21.429  0.00  0.00    +0.000 C 
ATOM      2  C   UNL     1       3.056   3.429  20.380  0.00  0.00    +0.000 A 
ATOM      3  C   UNL     1       4.228   3.087  19.728  0.00  0.00    +0.000 A 
ATOM      4  N   UNL     1       4.828   3.853  18.800  0.00  0.00    +0.000 NA
ATOM      5  C   UNL     1       4.300   5.024  18.462  0.00  0.00    +0.000 A 
ATOM      6  N   UNL     1       4.960   5.745  17.552  0.00  0.00    +0.000 NA
ATOM      7  C   UNL     1       4.480   6.947  17.179  0.00  0.00    +0.000 A 
ATOM      8  C   UNL     1       3.321   7.492  17.680  0.00  0.00    +0.000 A 
ATOM      9  C   UNL     1       2.622   6.752  18.622  0.00  0.00    +0.000 A 
ATOM     10  C   UNL     1       3.106   5.487  19.040  0.00  0.00    +0.000 A 
ATOM     11  C   UNL     1       2.494   4.654  20.004  0.00  0.00    +0.000 A 
ENDROOT
BRANCH   3  12
ATOM     12  O   UNL     1       4.908   1.930  19.958  0.00  0.00    +0.000 OA
ATOM     13  H   UNL     1       5.381   1.981  20.796  0.00  0.00    +0.000 HD
ENDBRANCH   3  12
BRANCH  11  14
ATOM     14  O   UNL     1       1.321   4.997  20.635  0.00  0.00    +0.000 OA
ATOM     15  H   UNL     1       1.477   5.683  21.300  0.00  0.00    +0.000 HD
ENDBRANCH  11  14
TORSDOF 2
ENDMDL
MODEL 8
REMARK VINA RESULT:      -5.9      1.485      2.775
REMARK  Name = 
REMARK  3 active torsions:
REMARK  status: ('A' for Active; 'I' for Inactive)
REMARK    1  A    between atoms: C_1  and  C_2
REMARK    2  A    between atoms: C_3  and  O_4
REMARK    3  A    between atoms: C_12  and  O_13
REMARK                            x       y       z     vdW  Elec       q    Type
REMARK                         _______ _______ _______ _____ _____    ______ ____
ROOT
ATOM      1  C   UNL     1       7.432   6.938  17.781  0.00  0.00    +0.000 C 
ATOM      2  C   UNL     1       6.328   5.936  17.615  0.00  0.00    +0.000 A 
ATOM      3  C   UNL     1       5.548   5.794  16.481  0.00  0.00    +0.000 A 
ATOM      4  N   UNL     1       4.553   4.898  16.355  0.00  0.00    +0.000 NA
ATOM      5  C   UNL     1       4.261   4.084  17.363  0.00  0.00    +0.000 A 
ATOM      6  N   UNL     1       3.246   3.236  17.180  0.00  0.00    +0.000 NA
ATOM      7  C   UNL     1       2.895   2.393  18.172  0.00  0.00    +0.000 A 
ATOM      8  C   UNL     1       3.535   2.341  19.387  0.00  0.00    +0.000 A 
ATOM      9  C   UNL     1       4.596   3.212  19.589  0.00  0.00    +0.000 A 
ATOM     10  C   UNL     1       4.984   4.116  18.568  0.00  0.00    +0.000 A 
ATOM     11  C   UNL     1       6.030   5.060  18.665  0.00  0.00    +0.000 A 
ENDROOT
BRANCH   3  12
ATOM     12  O   UNL     1       5.702   6.551  15.360  0.00  0.00    +0.000 OA
ATOM     13  H   UNL     1       6.283   7.299  15.539  0.00  0.00    +0.000 HD
ENDBRANCH   3  12
BRANCH  11  14
ATOM     14  O   UNL     1       6.810   5.183  19.791  0.00  0.00    +0.000 OA
ATOM     15  H   UNL     1       6.632   4.461  20.411  0.00  0.00    +0.000 HD
ENDBRANCH  11  14
TORSDOF 2
ENDMDL
MODEL 9
REMARK VINA RESULT:      -5.8      1.398      1.434
REMARK  Name = 
REMARK  3 active torsions:
REMARK  status: ('A' for Active; 'I' for Inactive)
REMARK    1  A    between atoms: C_1  and  C_2
REMARK    2  A    between atoms: C_3  and  O_4
REMARK    3  A    between atoms: C_12  and  O_13
REMARK                            x       y       z     vdW  Elec       q    Type
REMARK                         _______ _______ _______ _____ _____    ______ ____
ROOT
ATOM      1  C   UNL     1       6.785   7.131  17.322  0.00  0.00    +0.000 C 
ATOM      2  C   UNL     1       5.919   6.026  17.850  0.00  0.00    +0.000 A 
ATOM      3  C   UNL     1       6.379   4.910  18.526  0.00  0.00    +0.000 A 
ATOM      4  N   UNL     1       5.588   3.922  18.980  0.00  0.00    +0.000 NA
ATOM      5  C   UNL     1       4.275   3.977  18.782  0.00  0.00    +0.000 A 
ATOM      6  N   UNL     1       3.552   2.951  19.237  0.00  0.00    +0.000 NA
ATOM      7  C   UNL     1       2.217   2.945  19.055  0.00  0.00    +0.000 A 
ATOM      8  C   UNL     1       1.531   3.955  18.422  0.00  0.00    +0.000 A 
ATOM      9  C   UNL     1       2.270   5.030  17.949  0.00  0.00    +0.000 A 
ATOM     10  C   UNL     1       3.676   5.062  18.119  0.00  0.00    +0.000 A 
ATOM     11  C   UNL     1       4.533   6.089  17.663  0.00  0.00    +0.000 A 
ENDROOT
BRANCH   3  12
ATOM     12  O   UNL     1       7.692   4.687  18.807  0.00  0.00    +0.000 OA
ATOM     13  H   UNL     1       7.809   4.515  19.748  0.00  0.00    +0.000 HD
ENDBRANCH   3  12
BRANCH  11  14
ATOM     14  O   UNL     1       4.064   7.202  17.006  0.00  0.00    +0.000 OA
ATOM     15  H   UNL     1       4.667   7.950  17.127  0.00  0.00    +0.000 HD
ENDBRANCH  11  14
TORSDOF 2
ENDMDL
