MODEL 1
REMARK VINA RESULT:      -7.1      0.000      0.000
REMARK  Name = 
REMARK  6 active torsions:
REMARK  status: ('A' for Active; 'I' for Inactive)
REMARK    1  A    between atoms: C_4  and  O_5
REMARK    2  A    between atoms: C_7  and  S_8
REMARK    3  A    between atoms: S_8  and  C_9
REMARK    4  A    between atoms: C_9  and  C_10
REMARK    5  A    between atoms: C_10  and  S_11
REMARK    6  A    between atoms: S_11  and  C_12
REMARK                            x       y       z     vdW  Elec       q    Type
REMARK                         _______ _______ _______ _____ _____    ______ ____
ROOT
ATOM      1  N   UNL     1       5.611   2.869  11.900  0.00  0.00    +0.000 N 
ATOM      2  C   UNL     1       6.270   3.733  12.778  0.00  0.00    +0.000 A 
ATOM      3  C   UNL     1       7.326   4.487  12.315  0.00  0.00    +0.000 A 
ATOM      4  C   UNL     1       7.938   5.275  13.252  0.00  0.00    +0.000 A 
ATOM      5  N   UNL     1       7.575   5.328  14.532  0.00  0.00    +0.000 NA
ATOM      6  C   UNL     1       6.553   4.540  14.896  0.00  0.00    +0.000 A 
ATOM      7  N   UNL     1       5.871   3.736  14.060  0.00  0.00    +0.000 NA
ATOM      8  H   UNL     1       5.325   3.321  11.038  0.00  0.00    +0.000 HD
ATOM      9  H   UNL     1       4.828   2.441  12.387  0.00  0.00    +0.000 HD
ENDROOT
BRANCH   4  10
ATOM     10  O   UNL     1       8.991   6.078  12.924  0.00  0.00    +0.000 OA
ATOM     11  H   UNL     1       9.225   5.923  11.998  0.00  0.00    +0.000 HD
ENDBRANCH   4  10
BRANCH   6  12
ATOM     12  S   UNL     1       6.140   4.620  16.625  0.00  0.00    +0.000 S 
BRANCH  12  13
ATOM     13  C   UNL     1       5.579   6.344  16.839  0.00  0.00    +0.000 C 
BRANCH  13  14
ATOM     14  C   UNL     1       4.422   6.339  17.848  0.00  0.00    +0.000 C 
BRANCH  14  15
ATOM     15  S   UNL     1       4.784   5.219  19.250  0.00  0.00    +0.000 S 
BRANCH  15  16
ATOM     16  C   UNL     1       3.223   4.380  19.567  0.00  0.00    +0.000 A 
ATOM     17  C   UNL     1       2.151   4.928  20.286  0.00  0.00    +0.000 A 
ATOM     18  C   UNL     1       0.971   4.196  20.488  0.00  0.00    +0.000 A 
ATOM     19  C   UNL     1       0.839   2.909  19.976  0.00  0.00    +0.000 A 
ATOM     20  C   UNL     1       1.888   2.348  19.256  0.00  0.00    +0.000 A 
ATOM     21  C   UNL     1       3.062   3.079  19.057  0.00  0.00    +0.000 A 
ATOM     22  F   UNL     1       4.045   2.496  18.355  0.00  0.00    +0.000 F 
ENDBRANCH  15  16
ENDBRANCH  14  15
ENDBRANCH  13  14
ENDBRANCH  12  13
ENDBRANCH   6  12
TORSDOF 6
ENDMDL
MODEL 2
REMARK VINA RESULT:      -6.9      1.116      1.561
REMARK  Name = 
REMARK  6 active torsions:
REMARK  status: ('A' for Active; 'I' for Inactive)
REMARK    1  A    between atoms: C_4  and  O_5
REMARK    2  A    between atoms: C_7  and  S_8
REMARK    3  A    between atoms: S_8  and  C_9
REMARK    4  A    between atoms: C_9  and  C_10
REMARK    5  A    between atoms: C_10  and  S_11
REMARK    6  A    between atoms: S_11  and  C_12
REMARK                            x       y       z     vdW  Elec       q    Type
REMARK                         _______ _______ _______ _____ _____    ______ ____
ROOT
ATOM      1  N   UNL     1       5.763   2.370  11.825  0.00  0.00    +0.000 N 
ATOM      2  C   UNL     1       6.262   3.399  12.629  0.00  0.00    +0.000 A 
ATOM      3  C   UNL     1       7.249   4.222  12.133  0.00  0.00    +0.000 A 
ATOM      4  C   UNL     1       7.707   5.176  13.001  0.00  0.00    +0.000 A 
ATOM      5  N   UNL     1       7.263   5.322  14.248  0.00  0.00    +0.000 NA
ATOM      6  C   UNL     1       6.319   4.460  14.651  0.00  0.00    +0.000 A 
ATOM      7  N   UNL     1       5.787   3.492  13.882  0.00  0.00    +0.000 NA
ATOM      8  H   UNL     1       5.479   2.688  10.904  0.00  0.00    +0.000 HD
ATOM      9  H   UNL     1       5.006   1.906  12.321  0.00  0.00    +0.000 HD
ENDROOT
BRANCH   4  10
ATOM     10  O   UNL     1       8.678   6.061  12.633  0.00  0.00    +0.000 OA
ATOM     11  H   UNL     1       9.282   5.624  12.016  0.00  0.00    +0.000 HD
ENDBRANCH   4  10
BRANCH   6  12
ATOM     12  S   UNL     1       5.795   4.676  16.337  0.00  0.00    +0.000 S 
BRANCH  12  13
ATOM     13  C   UNL     1       5.089   6.360  16.340  0.00  0.00    +0.000 C 
BRANCH  13  14
ATOM     14  C   UNL     1       4.060   6.435  17.478  0.00  0.00    +0.000 C 
BRANCH  14  15
ATOM     15  S   UNL     1       4.533   5.332  18.859  0.00  0.00    +0.000 S 
BRANCH  15  16
ATOM     16  C   UNL     1       3.110   4.251  19.077  0.00  0.00    +0.000 A 
ATOM     17  C   UNL     1       2.913   3.041  18.397  0.00  0.00    +0.000 A 
ATOM     18  C   UNL     1       1.768   2.264  18.628  0.00  0.00    +0.000 A 
ATOM     19  C   UNL     1       0.803   2.677  19.542  0.00  0.00    +0.000 A 
ATOM     20  C   UNL     1       0.982   3.872  20.231  0.00  0.00    +0.000 A 
ATOM     21  C   UNL     1       2.123   4.644  19.998  0.00  0.00    +0.000 A 
ATOM     22  F   UNL     1       2.250   5.788  20.688  0.00  0.00    +0.000 F 
ENDBRANCH  15  16
ENDBRANCH  14  15
ENDBRANCH  13  14
ENDBRANCH  12  13
ENDBRANCH   6  12
TORSDOF 6
ENDMDL
MODEL 3
REMARK VINA RESULT:      -6.9      3.130      4.169
REMARK  Name = 
REMARK  6 active torsions:
REMARK  status: ('A' for Active; 'I' for Inactive)
REMARK    1  A    between atoms: C_4  and  O_5
REMARK    2  A    between atoms: C_7  and  S_8
REMARK    3  A    between atoms: S_8  and  C_9
REMARK    4  A    between atoms: C_9  and  C_10
REMARK    5  A    between atoms: C_10  and  S_11
REMARK    6  A    between atoms: S_11  and  C_12
REMARK                            x       y       z     vdW  Elec       q    Type
REMARK                         _______ _______ _______ _____ _____    ______ ____
ROOT
ATOM      1  N   UNL     1       7.957   8.868  17.346  0.00  0.00    +0.000 N 
ATOM      2  C   UNL     1       7.808   7.524  17.699  0.00  0.00    +0.000 A 
ATOM      3  C   UNL     1       8.124   7.125  18.979  0.00  0.00    +0.000 A 
ATOM      4  C   UNL     1       7.986   5.785  19.225  0.00  0.00    +0.000 A 
ATOM      5  N   UNL     1       7.589   4.898  18.315  0.00  0.00    +0.000 NA
ATOM      6  C   UNL     1       7.328   5.376  17.090  0.00  0.00    +0.000 A 
ATOM      7  N   UNL     1       7.417   6.671  16.738  0.00  0.00    +0.000 NA
ATOM      8  H   UNL     1       7.506   9.502  17.998  0.00  0.00    +0.000 HD
ATOM      9  H   UNL     1       7.624   8.995  16.394  0.00  0.00    +0.000 HD
ENDROOT
BRANCH   4  10
ATOM     10  O   UNL     1       8.258   5.259  20.455  0.00  0.00    +0.000 OA
ATOM     11  H   UNL     1       7.429   4.965  20.859  0.00  0.00    +0.000 HD
ENDBRANCH   4  10
BRANCH   6  12
ATOM     12  S   UNL     1       6.844   4.140  15.906  0.00  0.00    +0.000 S 
BRANCH  12  13
ATOM     13  C   UNL     1       5.206   4.720  15.345  0.00  0.00    +0.000 C 
BRANCH  13  14
ATOM     14  C   UNL     1       4.308   4.862  16.584  0.00  0.00    +0.000 C 
BRANCH  14  15
ATOM     15  S   UNL     1       3.763   3.222  17.185  0.00  0.00    +0.000 S 
BRANCH  15  16
ATOM     16  C   UNL     1       2.794   3.584  18.659  0.00  0.00    +0.000 A 
ATOM     17  C   UNL     1       2.487   4.873  19.118  0.00  0.00    +0.000 A 
ATOM     18  C   UNL     1       1.727   5.060  20.283  0.00  0.00    +0.000 A 
ATOM     19  C   UNL     1       1.257   3.967  21.006  0.00  0.00    +0.000 A 
ATOM     20  C   UNL     1       1.546   2.680  20.564  0.00  0.00    +0.000 A 
ATOM     21  C   UNL     1       2.304   2.497  19.405  0.00  0.00    +0.000 A 
ATOM     22  F   UNL     1       2.555   1.237  19.019  0.00  0.00    +0.000 F 
ENDBRANCH  15  16
ENDBRANCH  14  15
ENDBRANCH  13  14
ENDBRANCH  12  13
ENDBRANCH   6  12
TORSDOF 6
ENDMDL
MODEL 4
REMARK VINA RESULT:      -6.9      1.641      2.126
REMARK  Name = 
REMARK  6 active torsions:
REMARK  status: ('A' for Active; 'I' for Inactive)
REMARK    1  A    between atoms: C_4  and  O_5
REMARK    2  A    between atoms: C_7  and  S_8
REMARK    3  A    between atoms: S_8  and  C_9
REMARK    4  A    between atoms: C_9  and  C_10
REMARK    5  A    between atoms: C_10  and  S_11
REMARK    6  A    between atoms: S_11  and  C_12
REMARK                            x       y       z     vdW  Elec       q    Type
REMARK                         _______ _______ _______ _____ _____    ______ ____
ROOT
ATOM      1  N   UNL     1       8.550   6.331  12.199  0.00  0.00    +0.000 N 
ATOM      2  C   UNL     1       7.772   5.339  12.801  0.00  0.00    +0.000 A 
ATOM      3  C   UNL     1       7.199   4.363  12.016  0.00  0.00    +0.000 A 
ATOM      4  C   UNL     1       6.422   3.456  12.684  0.00  0.00    +0.000 A 
ATOM      5  N   UNL     1       6.202   3.488  13.997  0.00  0.00    +0.000 NA
ATOM      6  C   UNL     1       6.780   4.489  14.675  0.00  0.00    +0.000 A 
ATOM      7  N   UNL     1       7.572   5.428  14.127  0.00  0.00    +0.000 NA
ATOM      8  H   UNL     1       9.265   5.957  11.585  0.00  0.00    +0.000 HD
ATOM      9  H   UNL     1       8.940   6.927  12.924  0.00  0.00    +0.000 HD
ENDROOT
BRANCH   4  10
ATOM     10  O   UNL     1       5.803   2.433  12.026  0.00  0.00    +0.000 OA
ATOM     11  H   UNL     1       4.847   2.582  12.043  0.00  0.00    +0.000 HD
ENDBRANCH   4  10
BRANCH   6  12
ATOM     12  S   UNL     1       6.416   4.506  16.416  0.00  0.00    +0.000 S 
BRANCH  12  13
ATOM     13  C   UNL     1       5.308   5.946  16.595  0.00  0.00    +0.000 C 
BRANCH  13  14
ATOM     14  C   UNL     1       4.843   6.002  18.057  0.00  0.00    +0.000 C 
BRANCH  14  15
ATOM     15  S   UNL     1       3.083   6.490  18.164  0.00  0.00    +0.000 S 
BRANCH  15  16
ATOM     16  C   UNL     1       2.266   5.064  18.899  0.00  0.00    +0.000 A 
ATOM     17  C   UNL     1       1.774   5.011  20.210  0.00  0.00    +0.000 A 
ATOM     18  C   UNL     1       1.154   3.851  20.700  0.00  0.00    +0.000 A 
ATOM     19  C   UNL     1       1.010   2.728  19.890  0.00  0.00    +0.000 A 
ATOM     20  C   UNL     1       1.486   2.762  18.584  0.00  0.00    +0.000 A 
ATOM     21  C   UNL     1       2.105   3.918  18.100  0.00  0.00    +0.000 A 
ATOM     22  F   UNL     1       2.546   3.902  16.833  0.00  0.00    +0.000 F 
ENDBRANCH  15  16
ENDBRANCH  14  15
ENDBRANCH  13  14
ENDBRANCH  12  13
ENDBRANCH   6  12
TORSDOF 6
ENDMDL
MODEL 5
REMARK VINA RESULT:      -6.9      1.287      1.933
REMARK  Name = 
REMARK  6 active torsions:
REMARK  status: ('A' for Active; 'I' for Inactive)
REMARK    1  A    between atoms: C_4  and  O_5
REMARK    2  A    between atoms: C_7  and  S_8
REMARK    3  A    between atoms: S_8  and  C_9
REMARK    4  A    between atoms: C_9  and  C_10
REMARK    5  A    between atoms: C_10  and  S_11
REMARK    6  A    between atoms: S_11  and  C_12
REMARK                            x       y       z     vdW  Elec       q    Type
REMARK                         _______ _______ _______ _____ _____    ______ ____
ROOT
ATOM      1  N   UNL     1       8.920   6.032  13.012  0.00  0.00    +0.000 N 
ATOM      2  C   UNL     1       7.853   5.171  13.278  0.00  0.00    +0.000 A 
ATOM      3  C   UNL     1       7.433   4.296  12.299  0.00  0.00    +0.000 A 
ATOM      4  C   UNL     1       6.358   3.518  12.632  0.00  0.00    +0.000 A 
ATOM      5  N   UNL     1       5.728   3.580  13.803  0.00  0.00    +0.000 NA
ATOM      6  C   UNL     1       6.191   4.479  14.684  0.00  0.00    +0.000 A 
ATOM      7  N   UNL     1       7.246   5.286  14.471  0.00  0.00    +0.000 NA
ATOM      8  H   UNL     1       9.735   5.554  12.642  0.00  0.00    +0.000 HD
ATOM      9  H   UNL     1       9.134   6.559  13.854  0.00  0.00    +0.000 HD
ENDROOT
BRANCH   4  10
ATOM     10  O   UNL     1       5.847   2.604  11.757  0.00  0.00    +0.000 OA
ATOM     11  H   UNL     1       6.178   1.726  11.992  0.00  0.00    +0.000 HD
ENDBRANCH   4  10
BRANCH   6  12
ATOM     12  S   UNL     1       5.285   4.547  16.213  0.00  0.00    +0.000 S 
BRANCH  12  13
ATOM     13  C   UNL     1       5.076   6.340  16.492  0.00  0.00    +0.000 C 
BRANCH  13  14
ATOM     14  C   UNL     1       4.354   6.525  17.835  0.00  0.00    +0.000 C 
BRANCH  14  15
ATOM     15  S   UNL     1       4.904   5.271  19.050  0.00  0.00    +0.000 S 
BRANCH  15  16
ATOM     16  C   UNL     1       3.383   4.483  19.601  0.00  0.00    +0.000 A 
ATOM     17  C   UNL     1       2.283   5.159  20.147  0.00  0.00    +0.000 A 
ATOM     18  C   UNL     1       1.137   4.459  20.555  0.00  0.00    +0.000 A 
ATOM     19  C   UNL     1       1.067   3.075  20.422  0.00  0.00    +0.000 A 
ATOM     20  C   UNL     1       2.145   2.386  19.878  0.00  0.00    +0.000 A 
ATOM     21  C   UNL     1       3.285   3.086  19.474  0.00  0.00    +0.000 A 
ATOM     22  F   UNL     1       4.298   2.376  18.954  0.00  0.00    +0.000 F 
ENDBRANCH  15  16
ENDBRANCH  14  15
ENDBRANCH  13  14
ENDBRANCH  12  13
ENDBRANCH   6  12
TORSDOF 6
ENDMDL
MODEL 6
REMARK VINA RESULT:      -6.9      4.470      5.705
REMARK  Name = 
REMARK  6 active torsions:
REMARK  status: ('A' for Active; 'I' for Inactive)
REMARK    1  A    between atoms: C_4  and  O_5
REMARK    2  A    between atoms: C_7  and  S_8
REMARK    3  A    between atoms: S_8  and  C_9
REMARK    4  A    between atoms: C_9  and  C_10
REMARK    5  A    between atoms: C_10  and  S_11
REMARK    6  A    between atoms: S_11  and  C_12
REMARK                            x       y       z     vdW  Elec       q    Type
REMARK                         _______ _______ _______ _____ _____    ______ ____
ROOT
ATOM      1  N   UNL     1       1.714   7.156  21.036  0.00  0.00    +0.000 N 
ATOM      2  C   UNL     1       2.147   7.591  19.781  0.00  0.00    +0.000 A 
ATOM      3  C   UNL     1       1.619   8.748  19.250  0.00  0.00    +0.000 A 
ATOM      4  C   UNL     1       2.070   9.077  18.000  0.00  0.00    +0.000 A 
ATOM      5  N   UNL     1       2.946   8.350  17.309  0.00  0.00    +0.000 NA
ATOM      6  C   UNL     1       3.386   7.228  17.896  0.00  0.00    +0.000 A 
ATOM      7  N   UNL     1       3.022   6.812  19.123  0.00  0.00    +0.000 NA
ATOM      8  H   UNL     1       1.760   7.881  21.745  0.00  0.00    +0.000 HD
ATOM      9  H   UNL     1       2.245   6.330  21.298  0.00  0.00    +0.000 HD
ENDROOT
BRANCH   4  10
ATOM     10  O   UNL     1       1.633  10.202  17.363  0.00  0.00    +0.000 OA
ATOM     11  H   UNL     1       0.716  10.372  17.622  0.00  0.00    +0.000 HD
ENDBRANCH   4  10
BRANCH   6  12
ATOM     12  S   UNL     1       4.520   6.277  16.910  0.00  0.00    +0.000 S 
BRANCH  12  13
ATOM     13  C   UNL     1       5.790   5.763  18.118  0.00  0.00    +0.000 C 
BRANCH  13  14
ATOM     14  C   UNL     1       5.696   4.238  18.276  0.00  0.00    +0.000 C 
BRANCH  14  15
ATOM     15  S   UNL     1       4.124   3.605  17.587  0.00  0.00    +0.000 S 
BRANCH  15  16
ATOM     16  C   UNL     1       3.074   3.350  19.027  0.00  0.00    +0.000 A 
ATOM     17  C   UNL     1       3.500   2.787  20.239  0.00  0.00    +0.000 A 
ATOM     18  C   UNL     1       2.607   2.622  21.309  0.00  0.00    +0.000 A 
ATOM     19  C   UNL     1       1.278   3.017  21.190  0.00  0.00    +0.000 A 
ATOM     20  C   UNL     1       0.836   3.581  19.999  0.00  0.00    +0.000 A 
ATOM     21  C   UNL     1       1.727   3.744  18.935  0.00  0.00    +0.000 A 
ATOM     22  F   UNL     1       1.253   4.294  17.807  0.00  0.00    +0.000 F 
ENDBRANCH  15  16
ENDBRANCH  14  15
ENDBRANCH  13  14
ENDBRANCH  12  13
ENDBRANCH   6  12
TORSDOF 6
ENDMDL
MODEL 7
REMARK VINA RESULT:      -6.7      1.394      1.694
REMARK  Name = 
REMARK  6 active torsions:
REMARK  status: ('A' for Active; 'I' for Inactive)
REMARK    1  A    between atoms: C_4  and  O_5
REMARK    2  A    between atoms: C_7  and  S_8
REMARK    3  A    between atoms: S_8  and  C_9
REMARK    4  A    between atoms: C_9  and  C_10
REMARK    5  A    between atoms: C_10  and  S_11
REMARK    6  A    between atoms: S_11  and  C_12
REMARK                            x       y       z     vdW  Elec       q    Type
REMARK                         _______ _______ _______ _____ _____    ______ ____
ROOT
ATOM      1  N   UNL     1       5.721   2.597  12.069  0.00  0.00    +0.000 N 
ATOM      2  C   UNL     1       6.209   3.635  12.866  0.00  0.00    +0.000 A 
ATOM      3  C   UNL     1       7.391   4.252  12.520  0.00  0.00    +0.000 A 
ATOM      4  C   UNL     1       7.814   5.230  13.378  0.00  0.00    +0.000 A 
ATOM      5  N   UNL     1       7.163   5.582  14.485  0.00  0.00    +0.000 NA
ATOM      6  C   UNL     1       6.035   4.909  14.754  0.00  0.00    +0.000 A 
ATOM      7  N   UNL     1       5.519   3.939  13.978  0.00  0.00    +0.000 NA
ATOM      8  H   UNL     1       5.677   2.839  11.084  0.00  0.00    +0.000 HD
ATOM      9  H   UNL     1       4.819   2.301  12.432  0.00  0.00    +0.000 HD
ENDROOT
BRANCH   4  10
ATOM     10  O   UNL     1       8.966   5.926  13.148  0.00  0.00    +0.000 OA
ATOM     11  H   UNL     1       9.134   5.944  12.195  0.00  0.00    +0.000 HD
ENDBRANCH   4  10
BRANCH   6  12
ATOM     12  S   UNL     1       5.232   5.392  16.266  0.00  0.00    +0.000 S 
BRANCH  12  13
ATOM     13  C   UNL     1       5.916   4.222  17.491  0.00  0.00    +0.000 C 
BRANCH  13  14
ATOM     14  C   UNL     1       5.605   4.773  18.890  0.00  0.00    +0.000 C 
BRANCH  14  15
ATOM     15  S   UNL     1       4.043   5.727  18.884  0.00  0.00    +0.000 S 
BRANCH  15  16
ATOM     16  C   UNL     1       2.757   4.483  19.089  0.00  0.00    +0.000 A 
ATOM     17  C   UNL     1       2.328   3.603  18.085  0.00  0.00    +0.000 A 
ATOM     18  C   UNL     1       1.313   2.667  18.335  0.00  0.00    +0.000 A 
ATOM     19  C   UNL     1       0.712   2.590  19.588  0.00  0.00    +0.000 A 
ATOM     20  C   UNL     1       1.127   3.451  20.599  0.00  0.00    +0.000 A 
ATOM     21  C   UNL     1       2.137   4.382  20.347  0.00  0.00    +0.000 A 
ATOM     22  F   UNL     1       2.503   5.189  21.354  0.00  0.00    +0.000 F 
ENDBRANCH  15  16
ENDBRANCH  14  15
ENDBRANCH  13  14
ENDBRANCH  12  13
ENDBRANCH   6  12
TORSDOF 6
ENDMDL
MODEL 8
REMARK VINA RESULT:      -6.7      1.842      2.581
REMARK  Name = 
REMARK  6 active torsions:
REMARK  status: ('A' for Active; 'I' for Inactive)
REMARK    1  A    between atoms: C_4  and  O_5
REMARK    2  A    between atoms: C_7  and  S_8
REMARK    3  A    between atoms: S_8  and  C_9
REMARK    4  A    between atoms: C_9  and  C_10
REMARK    5  A    between atoms: C_10  and  S_11
REMARK    6  A    between atoms: S_11  and  C_12
REMARK                            x       y       z     vdW  Elec       q    Type
REMARK                         _______ _______ _______ _____ _____    ______ ____
ROOT
ATOM      1  N   UNL     1       9.002   5.972  12.986  0.00  0.00    +0.000 N 
ATOM      2  C   UNL     1       7.853   5.240  13.294  0.00  0.00    +0.000 A 
ATOM      3  C   UNL     1       7.354   4.348  12.369  0.00  0.00    +0.000 A 
ATOM      4  C   UNL     1       6.204   3.704  12.738  0.00  0.00    +0.000 A 
ATOM      5  N   UNL     1       5.576   3.906  13.895  0.00  0.00    +0.000 NA
ATOM      6  C   UNL     1       6.121   4.810  14.720  0.00  0.00    +0.000 A 
ATOM      7  N   UNL     1       7.253   5.494  14.468  0.00  0.00    +0.000 NA
ATOM      8  H   UNL     1       9.767   5.392  12.659  0.00  0.00    +0.000 HD
ATOM      9  H   UNL     1       9.262   6.530  13.795  0.00  0.00    +0.000 HD
ENDROOT
BRANCH   4  10
ATOM     10  O   UNL     1       5.611   2.789  11.918  0.00  0.00    +0.000 OA
ATOM     11  H   UNL     1       5.378   3.221  11.084  0.00  0.00    +0.000 HD
ENDBRANCH   4  10
BRANCH   6  12
ATOM     12  S   UNL     1       5.216   5.070  16.229  0.00  0.00    +0.000 S 
BRANCH  12  13
ATOM     13  C   UNL     1       6.378   4.494  17.515  0.00  0.00    +0.000 C 
BRANCH  13  14
ATOM     14  C   UNL     1       5.765   4.825  18.884  0.00  0.00    +0.000 C 
BRANCH  14  15
ATOM     15  S   UNL     1       4.203   5.759  18.691  0.00  0.00    +0.000 S 
BRANCH  15  16
ATOM     16  C   UNL     1       2.915   4.563  19.080  0.00  0.00    +0.000 A 
ATOM     17  C   UNL     1       2.801   3.292  18.500  0.00  0.00    +0.000 A 
ATOM     18  C   UNL     1       1.758   2.426  18.863  0.00  0.00    +0.000 A 
ATOM     19  C   UNL     1       0.814   2.811  19.811  0.00  0.00    +0.000 A 
ATOM     20  C   UNL     1       0.912   4.066  20.402  0.00  0.00    +0.000 A 
ATOM     21  C   UNL     1       1.951   4.927  20.038  0.00  0.00    +0.000 A 
ATOM     22  F   UNL     1       2.003   6.125  20.637  0.00  0.00    +0.000 F 
ENDBRANCH  15  16
ENDBRANCH  14  15
ENDBRANCH  13  14
ENDBRANCH  12  13
ENDBRANCH   6  12
TORSDOF 6
ENDMDL
MODEL 9
REMARK VINA RESULT:      -6.7      1.404      1.631
REMARK  Name = 
REMARK  6 active torsions:
REMARK  status: ('A' for Active; 'I' for Inactive)
REMARK    1  A    between atoms: C_4  and  O_5
REMARK    2  A    between atoms: C_7  and  S_8
REMARK    3  A    between atoms: S_8  and  C_9
REMARK    4  A    between atoms: C_9  and  C_10
REMARK    5  A    between atoms: C_10  and  S_11
REMARK    6  A    between atoms: S_11  and  C_12
REMARK                            x       y       z     vdW  Elec       q    Type
REMARK                         _______ _______ _______ _____ _____    ______ ____
ROOT
ATOM      1  N   UNL     1       5.789   2.652  12.043  0.00  0.00    +0.000 N 
ATOM      2  C   UNL     1       6.399   3.646  12.813  0.00  0.00    +0.000 A 
ATOM      3  C   UNL     1       7.369   4.440  12.241  0.00  0.00    +0.000 A 
ATOM      4  C   UNL     1       7.940   5.360  13.078  0.00  0.00    +0.000 A 
ATOM      5  N   UNL     1       7.617   5.501  14.362  0.00  0.00    +0.000 NA
ATOM      6  C   UNL     1       6.680   4.667  14.837  0.00  0.00    +0.000 A 
ATOM      7  N   UNL     1       6.044   3.734  14.105  0.00  0.00    +0.000 NA
ATOM      8  H   UNL     1       5.436   2.997  11.156  0.00  0.00    +0.000 HD
ATOM      9  H   UNL     1       5.063   2.208  12.598  0.00  0.00    +0.000 HD
ENDROOT
BRANCH   4  10
ATOM     10  O   UNL     1       8.908   6.215  12.637  0.00  0.00    +0.000 OA
ATOM     11  H   UNL     1       9.410   6.540  13.398  0.00  0.00    +0.000 HD
ENDBRANCH   4  10
BRANCH   6  12
ATOM     12  S   UNL     1       6.320   4.872  16.567  0.00  0.00    +0.000 S 
BRANCH  12  13
ATOM     13  C   UNL     1       4.646   5.602  16.559  0.00  0.00    +0.000 C 
BRANCH  13  14
ATOM     14  C   UNL     1       4.581   6.637  17.691  0.00  0.00    +0.000 C 
BRANCH  14  15
ATOM     15  S   UNL     1       3.239   6.233  18.868  0.00  0.00    +0.000 S 
BRANCH  15  16
ATOM     16  C   UNL     1       3.159   4.435  18.857  0.00  0.00    +0.000 A 
ATOM     17  C   UNL     1       4.076   3.589  19.496  0.00  0.00    +0.000 A 
ATOM     18  C   UNL     1       3.937   2.194  19.428  0.00  0.00    +0.000 A 
ATOM     19  C   UNL     1       2.880   1.620  18.727  0.00  0.00    +0.000 A 
ATOM     20  C   UNL     1       1.956   2.442  18.090  0.00  0.00    +0.000 A 
ATOM     21  C   UNL     1       2.098   3.830  18.158  0.00  0.00    +0.000 A 
ATOM     22  F   UNL     1       1.181   4.580  17.529  0.00  0.00    +0.000 F 
ENDBRANCH  15  16
ENDBRANCH  14  15
ENDBRANCH  13  14
ENDBRANCH  12  13
ENDBRANCH   6  12
TORSDOF 6
ENDMDL
