MODEL 1
REMARK VINA RESULT:      -7.6      0.000      0.000
REMARK  Name = 
REMARK  8 active torsions:
REMARK  status: ('A' for Active; 'I' for Inactive)
REMARK    1  A    between atoms: C_5  and  C_6
REMARK    2  A    between atoms: C_6  and  C_7
REMARK    3  A    between atoms: C_7  and  C_8
REMARK    4  A    between atoms: C_8  and  N_9
REMARK    5  A    between atoms: N_9  and  C_10
REMARK    6  A    between atoms: C_10  and  C_11
REMARK    7  A    between atoms: C_11  and  O_12
REMARK    8  A    between atoms: O_12  and  C_13
REMARK                            x       y       z     vdW  Elec       q    Type
REMARK                         _______ _______ _______ _____ _____    ______ ____
ROOT
ATOM      1  N   UNL     1       2.069   3.360  19.201  0.00  0.00    +0.000 NA
ATOM      2  H   UNL     1       2.353   3.244  18.227  0.00  0.00    +0.000 HD
ENDROOT
BRANCH   1   3
ATOM      3  C   UNL     1       1.790   4.774  19.458  0.00  0.00    +0.000 C 
BRANCH   3   4
ATOM      4  C   UNL     1       2.178   5.594  18.230  0.00  0.00    +0.000 C 
BRANCH   4   5
ATOM      5  C   UNL     1       3.015   6.814  18.618  0.00  0.00    +0.000 C 
BRANCH   5  10
ATOM      6  C   UNL     1      -0.114  10.134  21.494  0.00  0.00    +0.000 A 
ATOM      7  C   UNL     1       0.461   8.949  21.945  0.00  0.00    +0.000 A 
ATOM      8  C   UNL     1       1.246   8.164  21.089  0.00  0.00    +0.000 A 
ATOM      9  C   UNL     1       1.455   8.586  19.759  0.00  0.00    +0.000 A 
ATOM     10  C   UNL     1       2.188   8.058  18.645  0.00  0.00    +0.000 A 
ATOM     11  C   UNL     1       2.016   8.938  17.596  0.00  0.00    +0.000 A 
ATOM     12  N   UNL     1       1.218   9.965  18.025  0.00  0.00    +0.000 N 
ATOM     13  C   UNL     1       0.864   9.779  19.340  0.00  0.00    +0.000 A 
ATOM     14  C   UNL     1       0.078  10.573  20.182  0.00  0.00    +0.000 A 
ATOM     15  H   UNL     1       0.936  10.757  17.464  0.00  0.00    +0.000 HD
ENDBRANCH   5  10
ENDBRANCH   4   5
ENDBRANCH   3   4
ENDBRANCH   1   3
BRANCH   1  16
ATOM     16  C   UNL     1       3.121   2.817  20.069  0.00  0.00    +0.000 C 
BRANCH  16  17
ATOM     17  C   UNL     1       4.421   2.482  19.327  0.00  0.00    +0.000 C 
BRANCH  17  18
ATOM     18  O   UNL     1       5.262   3.638  19.310  0.00  0.00    +0.000 OA
BRANCH  18  19
ATOM     19  C   UNL     1       5.498   4.163  18.062  0.00  0.00    +0.000 A 
ATOM     20  C   UNL     1       4.851   3.724  16.894  0.00  0.00    +0.000 A 
ATOM     21  C   UNL     1       5.102   4.325  15.660  0.00  0.00    +0.000 A 
ATOM     22  C   UNL     1       5.997   5.389  15.543  0.00  0.00    +0.000 A 
ATOM     23  C   UNL     1       6.632   5.825  16.711  0.00  0.00    +0.000 A 
ATOM     24  N   UNL     1       7.540   6.844  16.894  0.00  0.00    +0.000 N 
ATOM     25  C   UNL     1       7.907   6.921  18.210  0.00  0.00    +0.000 A 
ATOM     26  C   UNL     1       7.225   5.940  18.893  0.00  0.00    +0.000 A 
ATOM     27  C   UNL     1       6.406   5.241  17.960  0.00  0.00    +0.000 A 
ATOM     28  H   UNL     1       7.880   7.446  16.158  0.00  0.00    +0.000 HD
ENDBRANCH  18  19
ENDBRANCH  17  18
ENDBRANCH  16  17
ENDBRANCH   1  16
TORSDOF 8
ENDMDL
MODEL 2
REMARK VINA RESULT:      -7.3      1.722      6.753
REMARK  Name = 
REMARK  8 active torsions:
REMARK  status: ('A' for Active; 'I' for Inactive)
REMARK    1  A    between atoms: C_5  and  C_6
REMARK    2  A    between atoms: C_6  and  C_7
REMARK    3  A    between atoms: C_7  and  C_8
REMARK    4  A    between atoms: C_8  and  N_9
REMARK    5  A    between atoms: N_9  and  C_10
REMARK    6  A    between atoms: C_10  and  C_11
REMARK    7  A    between atoms: C_11  and  O_12
REMARK    8  A    between atoms: O_12  and  C_13
REMARK                            x       y       z     vdW  Elec       q    Type
REMARK                         _______ _______ _______ _____ _____    ______ ____
ROOT
ATOM      1  N   UNL     1       0.793   2.939  20.699  0.00  0.00    +0.000 NA
ATOM      2  H   UNL     1       1.011   2.166  21.329  0.00  0.00    +0.000 HD
ENDROOT
BRANCH   1   3
ATOM      3  C   UNL     1       0.843   2.464  19.315  0.00  0.00    +0.000 C 
BRANCH   3   4
ATOM      4  C   UNL     1       2.268   2.027  18.985  0.00  0.00    +0.000 C 
BRANCH   4   5
ATOM      5  C   UNL     1       2.781   2.712  17.717  0.00  0.00    +0.000 C 
BRANCH   5  10
ATOM      6  C   UNL     1       7.048   5.181  15.533  0.00  0.00    +0.000 A 
ATOM      7  C   UNL     1       5.910   4.754  14.856  0.00  0.00    +0.000 A 
ATOM      8  C   UNL     1       4.871   4.107  15.540  0.00  0.00    +0.000 A 
ATOM      9  C   UNL     1       4.986   3.893  16.930  0.00  0.00    +0.000 A 
ATOM     10  C   UNL     1       4.141   3.296  17.923  0.00  0.00    +0.000 A 
ATOM     11  C   UNL     1       4.806   3.390  19.128  0.00  0.00    +0.000 A 
ATOM     12  N   UNL     1       6.006   4.013  18.907  0.00  0.00    +0.000 N 
ATOM     13  C   UNL     1       6.140   4.334  17.578  0.00  0.00    +0.000 A 
ATOM     14  C   UNL     1       7.185   4.981  16.909  0.00  0.00    +0.000 A 
ATOM     15  H   UNL     1       6.693   4.222  19.618  0.00  0.00    +0.000 HD
ENDBRANCH   5  10
ENDBRANCH   4   5
ENDBRANCH   3   4
ENDBRANCH   1   3
BRANCH   1  16
ATOM     16  C   UNL     1       1.727   4.040  20.959  0.00  0.00    +0.000 C 
BRANCH  16  17
ATOM     17  C   UNL     1       1.554   5.233  20.011  0.00  0.00    +0.000 C 
BRANCH  17  18
ATOM     18  O   UNL     1       2.008   6.421  20.664  0.00  0.00    +0.000 OA
BRANCH  18  19
ATOM     19  C   UNL     1       1.867   7.574  19.930  0.00  0.00    +0.000 A 
ATOM     20  C   UNL     1       2.279   7.706  18.592  0.00  0.00    +0.000 A 
ATOM     21  C   UNL     1       2.071   8.891  17.885  0.00  0.00    +0.000 A 
ATOM     22  C   UNL     1       1.438   9.983  18.477  0.00  0.00    +0.000 A 
ATOM     23  C   UNL     1       1.024   9.844  19.806  0.00  0.00    +0.000 A 
ATOM     24  N   UNL     1       0.375  10.738  20.627  0.00  0.00    +0.000 N 
ATOM     25  C   UNL     1       0.164  10.184  21.861  0.00  0.00    +0.000 A 
ATOM     26  C   UNL     1       0.681   8.909  21.839  0.00  0.00    +0.000 A 
ATOM     27  C   UNL     1       1.222   8.673  20.542  0.00  0.00    +0.000 A 
ATOM     28  H   UNL     1       0.095  11.669  20.351  0.00  0.00    +0.000 HD
ENDBRANCH  18  19
ENDBRANCH  17  18
ENDBRANCH  16  17
ENDBRANCH   1  16
TORSDOF 8
ENDMDL
MODEL 3
REMARK VINA RESULT:      -7.1      1.493      2.692
REMARK  Name = 
REMARK  8 active torsions:
REMARK  status: ('A' for Active; 'I' for Inactive)
REMARK    1  A    between atoms: C_5  and  C_6
REMARK    2  A    between atoms: C_6  and  C_7
REMARK    3  A    between atoms: C_7  and  C_8
REMARK    4  A    between atoms: C_8  and  N_9
REMARK    5  A    between atoms: N_9  and  C_10
REMARK    6  A    between atoms: C_10  and  C_11
REMARK    7  A    between atoms: C_11  and  O_12
REMARK    8  A    between atoms: O_12  and  C_13
REMARK                            x       y       z     vdW  Elec       q    Type
REMARK                         _______ _______ _______ _____ _____    ______ ____
ROOT
ATOM      1  N   UNL     1       1.434   3.544  19.028  0.00  0.00    +0.000 NA
ATOM      2  H   UNL     1       1.914   4.373  18.675  0.00  0.00    +0.000 HD
ENDROOT
BRANCH   1   3
ATOM      3  C   UNL     1       1.529   3.517  20.489  0.00  0.00    +0.000 C 
BRANCH   3   4
ATOM      4  C   UNL     1       2.218   4.790  20.972  0.00  0.00    +0.000 C 
BRANCH   4   5
ATOM      5  C   UNL     1       2.306   5.832  19.855  0.00  0.00    +0.000 C 
BRANCH   5  10
ATOM      6  C   UNL     1       1.231  10.963  18.590  0.00  0.00    +0.000 A 
ATOM      7  C   UNL     1       1.907  10.044  17.793  0.00  0.00    +0.000 A 
ATOM      8  C   UNL     1       2.137   8.737  18.246  0.00  0.00    +0.000 A 
ATOM      9  C   UNL     1       1.673   8.356  19.522  0.00  0.00    +0.000 A 
ATOM     10  C   UNL     1       1.717   7.139  20.281  0.00  0.00    +0.000 A 
ATOM     11  C   UNL     1       1.078   7.386  21.478  0.00  0.00    +0.000 A 
ATOM     12  N   UNL     1       0.654   8.689  21.475  0.00  0.00    +0.000 N 
ATOM     13  C   UNL     1       1.000   9.302  20.296  0.00  0.00    +0.000 A 
ATOM     14  C   UNL     1       0.763  10.610  19.857  0.00  0.00    +0.000 A 
ATOM     15  H   UNL     1       0.147   9.138  22.226  0.00  0.00    +0.000 HD
ENDBRANCH   5  10
ENDBRANCH   4   5
ENDBRANCH   3   4
ENDBRANCH   1   3
BRANCH   1  16
ATOM     16  C   UNL     1       2.014   2.354  18.395  0.00  0.00    +0.000 C 
BRANCH  16  17
ATOM     17  C   UNL     1       3.542   2.400  18.279  0.00  0.00    +0.000 C 
BRANCH  17  18
ATOM     18  O   UNL     1       3.904   3.266  17.201  0.00  0.00    +0.000 OA
BRANCH  18  19
ATOM     19  C   UNL     1       4.996   4.066  17.442  0.00  0.00    +0.000 A 
ATOM     20  C   UNL     1       5.371   4.511  18.722  0.00  0.00    +0.000 A 
ATOM     21  C   UNL     1       6.515   5.288  18.911  0.00  0.00    +0.000 A 
ATOM     22  C   UNL     1       7.332   5.642  17.837  0.00  0.00    +0.000 A 
ATOM     23  C   UNL     1       6.957   5.189  16.567  0.00  0.00    +0.000 A 
ATOM     24  N   UNL     1       7.569   5.373  15.348  0.00  0.00    +0.000 N 
ATOM     25  C   UNL     1       6.853   4.755  14.359  0.00  0.00    +0.000 A 
ATOM     26  C   UNL     1       5.762   4.157  14.945  0.00  0.00    +0.000 A 
ATOM     27  C   UNL     1       5.816   4.415  16.345  0.00  0.00    +0.000 A 
ATOM     28  H   UNL     1       8.426   5.890  15.210  0.00  0.00    +0.000 HD
ENDBRANCH  18  19
ENDBRANCH  17  18
ENDBRANCH  16  17
ENDBRANCH   1  16
TORSDOF 8
ENDMDL
MODEL 4
REMARK VINA RESULT:      -7.0      3.846      7.797
REMARK  Name = 
REMARK  8 active torsions:
REMARK  status: ('A' for Active; 'I' for Inactive)
REMARK    1  A    between atoms: C_5  and  C_6
REMARK    2  A    between atoms: C_6  and  C_7
REMARK    3  A    between atoms: C_7  and  C_8
REMARK    4  A    between atoms: C_8  and  N_9
REMARK    5  A    between atoms: N_9  and  C_10
REMARK    6  A    between atoms: C_10  and  C_11
REMARK    7  A    between atoms: C_11  and  O_12
REMARK    8  A    between atoms: O_12  and  C_13
REMARK                            x       y       z     vdW  Elec       q    Type
REMARK                         _______ _______ _______ _____ _____    ______ ____
ROOT
ATOM      1  N   UNL     1       7.609   5.923  17.550  0.00  0.00    +0.000 NA
ATOM      2  H   UNL     1       8.222   5.788  18.355  0.00  0.00    +0.000 HD
ENDROOT
BRANCH   1   3
ATOM      3  C   UNL     1       7.458   7.357  17.292  0.00  0.00    +0.000 C 
BRANCH   3   4
ATOM      4  C   UNL     1       8.225   8.141  18.354  0.00  0.00    +0.000 C 
BRANCH   4   5
ATOM      5  C   UNL     1       8.436   9.595  17.927  0.00  0.00    +0.000 C 
BRANCH   5  10
ATOM      6  C   UNL     1      12.318  13.218  18.865  0.00  0.00    +0.000 A 
ATOM      7  C   UNL     1      11.904  12.761  17.618  0.00  0.00    +0.000 A 
ATOM      8  C   UNL     1      10.889  11.801  17.509  0.00  0.00    +0.000 A 
ATOM      9  C   UNL     1      10.282  11.299  18.680  0.00  0.00    +0.000 A 
ATOM     10  C   UNL     1       9.238  10.349  18.938  0.00  0.00    +0.000 A 
ATOM     11  C   UNL     1       9.083  10.283  20.307  0.00  0.00    +0.000 A 
ATOM     12  N   UNL     1       9.980  11.144  20.881  0.00  0.00    +0.000 N 
ATOM     13  C   UNL     1      10.721  11.778  19.914  0.00  0.00    +0.000 A 
ATOM     14  C   UNL     1      11.733  12.737  20.039  0.00  0.00    +0.000 A 
ATOM     15  H   UNL     1      10.079  11.304  21.875  0.00  0.00    +0.000 HD
ENDBRANCH   5  10
ENDBRANCH   4   5
ENDBRANCH   3   4
ENDBRANCH   1   3
BRANCH   1  16
ATOM     16  C   UNL     1       6.330   5.252  17.812  0.00  0.00    +0.000 C 
BRANCH  16  17
ATOM     17  C   UNL     1       5.154   5.833  17.017  0.00  0.00    +0.000 C 
BRANCH  17  18
ATOM     18  O   UNL     1       4.039   4.943  17.111  0.00  0.00    +0.000 OA
BRANCH  18  19
ATOM     19  C   UNL     1       3.250   5.119  18.222  0.00  0.00    +0.000 A 
ATOM     20  C   UNL     1       3.261   6.282  19.012  0.00  0.00    +0.000 A 
ATOM     21  C   UNL     1       2.405   6.421  20.106  0.00  0.00    +0.000 A 
ATOM     22  C   UNL     1       1.503   5.414  20.449  0.00  0.00    +0.000 A 
ATOM     23  C   UNL     1       1.493   4.262  19.655  0.00  0.00    +0.000 A 
ATOM     24  N   UNL     1       0.714   3.131  19.749  0.00  0.00    +0.000 N 
ATOM     25  C   UNL     1       1.042   2.244  18.760  0.00  0.00    +0.000 A 
ATOM     26  C   UNL     1       2.047   2.809  18.010  0.00  0.00    +0.000 A 
ATOM     27  C   UNL     1       2.340   4.091  18.557  0.00  0.00    +0.000 A 
ATOM     28  H   UNL     1       0.001   2.984  20.450  0.00  0.00    +0.000 HD
ENDBRANCH  18  19
ENDBRANCH  17  18
ENDBRANCH  16  17
ENDBRANCH   1  16
TORSDOF 8
ENDMDL
MODEL 5
REMARK VINA RESULT:      -7.0      1.441      2.668
REMARK  Name = 
REMARK  8 active torsions:
REMARK  status: ('A' for Active; 'I' for Inactive)
REMARK    1  A    between atoms: C_5  and  C_6
REMARK    2  A    between atoms: C_6  and  C_7
REMARK    3  A    between atoms: C_7  and  C_8
REMARK    4  A    between atoms: C_8  and  N_9
REMARK    5  A    between atoms: N_9  and  C_10
REMARK    6  A    between atoms: C_10  and  C_11
REMARK    7  A    between atoms: C_11  and  O_12
REMARK    8  A    between atoms: O_12  and  C_13
REMARK                            x       y       z     vdW  Elec       q    Type
REMARK                         _______ _______ _______ _____ _____    ______ ____
ROOT
ATOM      1  N   UNL     1       3.124   2.120  17.973  0.00  0.00    +0.000 NA
ATOM      2  H   UNL     1       4.054   1.833  17.666  0.00  0.00    +0.000 HD
ENDROOT
BRANCH   1   3
ATOM      3  C   UNL     1       2.593   3.118  17.042  0.00  0.00    +0.000 C 
BRANCH   3   4
ATOM      4  C   UNL     1       1.885   4.215  17.832  0.00  0.00    +0.000 C 
BRANCH   4   5
ATOM      5  C   UNL     1       2.687   5.517  17.817  0.00  0.00    +0.000 C 
BRANCH   5  10
ATOM      6  C   UNL     1       1.109  10.446  19.334  0.00  0.00    +0.000 A 
ATOM      7  C   UNL     1       1.445  10.051  18.042  0.00  0.00    +0.000 A 
ATOM      8  C   UNL     1       1.857   8.737  17.780  0.00  0.00    +0.000 A 
ATOM      9  C   UNL     1       1.926   7.809  18.840  0.00  0.00    +0.000 A 
ATOM     10  C   UNL     1       2.281   6.423  18.935  0.00  0.00    +0.000 A 
ATOM     11  C   UNL     1       2.146   6.061  20.259  0.00  0.00    +0.000 A 
ATOM     12  N   UNL     1       1.728   7.160  20.962  0.00  0.00    +0.000 N 
ATOM     13  C   UNL     1       1.582   8.237  20.123  0.00  0.00    +0.000 A 
ATOM     14  C   UNL     1       1.169   9.546  20.400  0.00  0.00    +0.000 A 
ATOM     15  H   UNL     1       1.539   7.178  21.955  0.00  0.00    +0.000 HD
ENDBRANCH   5  10
ENDBRANCH   4   5
ENDBRANCH   3   4
ENDBRANCH   1   3
BRANCH   1  16
ATOM     16  C   UNL     1       3.214   2.616  19.352  0.00  0.00    +0.000 C 
BRANCH  16  17
ATOM     17  C   UNL     1       4.576   3.230  19.699  0.00  0.00    +0.000 C 
BRANCH  17  18
ATOM     18  O   UNL     1       5.444   3.114  18.569  0.00  0.00    +0.000 OA
BRANCH  18  19
ATOM     19  C   UNL     1       6.065   4.281  18.196  0.00  0.00    +0.000 A 
ATOM     20  C   UNL     1       6.506   5.259  19.105  0.00  0.00    +0.000 A 
ATOM     21  C   UNL     1       7.170   6.406  18.668  0.00  0.00    +0.000 A 
ATOM     22  C   UNL     1       7.427   6.619  17.314  0.00  0.00    +0.000 A 
ATOM     23  C   UNL     1       6.992   5.640  16.415  0.00  0.00    +0.000 A 
ATOM     24  N   UNL     1       7.116   5.581  15.045  0.00  0.00    +0.000 N 
ATOM     25  C   UNL     1       6.539   4.437  14.564  0.00  0.00    +0.000 A 
ATOM     26  C   UNL     1       6.036   3.740  15.639  0.00  0.00    +0.000 A 
ATOM     27  C   UNL     1       6.321   4.483  16.820  0.00  0.00    +0.000 A 
ATOM     28  H   UNL     1       7.572   6.285  14.481  0.00  0.00    +0.000 HD
ENDBRANCH  18  19
ENDBRANCH  17  18
ENDBRANCH  16  17
ENDBRANCH   1  16
TORSDOF 8
ENDMDL
MODEL 6
REMARK VINA RESULT:      -7.0      4.208      7.229
REMARK  Name = 
REMARK  8 active torsions:
REMARK  status: ('A' for Active; 'I' for Inactive)
REMARK    1  A    between atoms: C_5  and  C_6
REMARK    2  A    between atoms: C_6  and  C_7
REMARK    3  A    between atoms: C_7  and  C_8
REMARK    4  A    between atoms: C_8  and  N_9
REMARK    5  A    between atoms: N_9  and  C_10
REMARK    6  A    between atoms: C_10  and  C_11
REMARK    7  A    between atoms: C_11  and  O_12
REMARK    8  A    between atoms: O_12  and  C_13
REMARK                            x       y       z     vdW  Elec       q    Type
REMARK                         _______ _______ _______ _____ _____    ______ ____
ROOT
ATOM      1  N   UNL     1       8.191   7.073  18.752  0.00  0.00    +0.000 NA
ATOM      2  H   UNL     1       7.743   7.477  19.575  0.00  0.00    +0.000 HD
ENDROOT
BRANCH   1   3
ATOM      3  C   UNL     1       7.887   7.897  17.581  0.00  0.00    +0.000 C 
BRANCH   3   4
ATOM      4  C   UNL     1       8.026   9.371  17.955  0.00  0.00    +0.000 C 
BRANCH   4   5
ATOM      5  C   UNL     1       9.113   9.577  19.010  0.00  0.00    +0.000 C 
BRANCH   5  10
ATOM      6  C   UNL     1      10.201  14.282  21.410  0.00  0.00    +0.000 A 
ATOM      7  C   UNL     1       9.491  13.221  21.963  0.00  0.00    +0.000 A 
ATOM      8  C   UNL     1       9.262  12.051  21.226  0.00  0.00    +0.000 A 
ATOM      9  C   UNL     1       9.762  11.953  19.911  0.00  0.00    +0.000 A 
ATOM     10  C   UNL     1       9.729  10.935  18.901  0.00  0.00    +0.000 A 
ATOM     11  C   UNL     1      10.409  11.429  17.807  0.00  0.00    +0.000 A 
ATOM     12  N   UNL     1      10.846  12.691  18.110  0.00  0.00    +0.000 N 
ATOM     13  C   UNL     1      10.470  13.035  19.386  0.00  0.00    +0.000 A 
ATOM     14  C   UNL     1      10.707  14.209  20.109  0.00  0.00    +0.000 A 
ATOM     15  H   UNL     1      11.382  13.285  17.492  0.00  0.00    +0.000 HD
ENDBRANCH   5  10
ENDBRANCH   4   5
ENDBRANCH   3   4
ENDBRANCH   1   3
BRANCH   1  16
ATOM     16  C   UNL     1       7.743   5.682  18.605  0.00  0.00    +0.000 C 
BRANCH  16  17
ATOM     17  C   UNL     1       7.106   5.381  17.242  0.00  0.00    +0.000 C 
BRANCH  17  18
ATOM     18  O   UNL     1       6.083   4.397  17.411  0.00  0.00    +0.000 OA
BRANCH  18  19
ATOM     19  C   UNL     1       4.829   4.903  17.656  0.00  0.00    +0.000 A 
ATOM     20  C   UNL     1       4.538   6.277  17.715  0.00  0.00    +0.000 A 
ATOM     21  C   UNL     1       3.236   6.732  17.927  0.00  0.00    +0.000 A 
ATOM     22  C   UNL     1       2.175   5.838  18.078  0.00  0.00    +0.000 A 
ATOM     23  C   UNL     1       2.470   4.472  18.012  0.00  0.00    +0.000 A 
ATOM     24  N   UNL     1       1.636   3.383  18.114  0.00  0.00    +0.000 N 
ATOM     25  C   UNL     1       2.352   2.222  17.993  0.00  0.00    +0.000 A 
ATOM     26  C   UNL     1       3.671   2.564  17.805  0.00  0.00    +0.000 A 
ATOM     27  C   UNL     1       3.764   3.986  17.806  0.00  0.00    +0.000 A 
ATOM     28  H   UNL     1       0.637   3.438  18.256  0.00  0.00    +0.000 HD
ENDBRANCH  18  19
ENDBRANCH  17  18
ENDBRANCH  16  17
ENDBRANCH   1  16
TORSDOF 8
ENDMDL
MODEL 7
REMARK VINA RESULT:      -6.9      1.395      2.481
REMARK  Name = 
REMARK  8 active torsions:
REMARK  status: ('A' for Active; 'I' for Inactive)
REMARK    1  A    between atoms: C_5  and  C_6
REMARK    2  A    between atoms: C_6  and  C_7
REMARK    3  A    between atoms: C_7  and  C_8
REMARK    4  A    between atoms: C_8  and  N_9
REMARK    5  A    between atoms: N_9  and  C_10
REMARK    6  A    between atoms: C_10  and  C_11
REMARK    7  A    between atoms: C_11  and  O_12
REMARK    8  A    between atoms: O_12  and  C_13
REMARK                            x       y       z     vdW  Elec       q    Type
REMARK                         _______ _______ _______ _____ _____    ______ ____
ROOT
ATOM      1  N   UNL     1       1.884   5.099  18.429  0.00  0.00    +0.000 NA
ATOM      2  H   UNL     1       2.440   5.524  17.686  0.00  0.00    +0.000 HD
ENDROOT
BRANCH   1   3
ATOM      3  C   UNL     1       2.292   5.658  19.719  0.00  0.00    +0.000 C 
BRANCH   3   4
ATOM      4  C   UNL     1       2.258   7.182  19.640  0.00  0.00    +0.000 C 
BRANCH   4   5
ATOM      5  C   UNL     1       1.527   7.785  20.840  0.00  0.00    +0.000 C 
BRANCH   5  10
ATOM      6  C   UNL     1      -1.546  11.917  22.442  0.00  0.00    +0.000 A 
ATOM      7  C   UNL     1      -1.222  10.792  23.195  0.00  0.00    +0.000 A 
ATOM      8  C   UNL     1      -0.423   9.775  22.655  0.00  0.00    +0.000 A 
ATOM      9  C   UNL     1       0.059   9.901  21.335  0.00  0.00    +0.000 A 
ATOM     10  C   UNL     1       0.886   9.089  20.490  0.00  0.00    +0.000 A 
ATOM     11  C   UNL     1       1.014   9.756  19.289  0.00  0.00    +0.000 A 
ATOM     12  N   UNL     1       0.305  10.926  19.372  0.00  0.00    +0.000 N 
ATOM     13  C   UNL     1      -0.283  11.042  20.608  0.00  0.00    +0.000 A 
ATOM     14  C   UNL     1      -1.081  12.065  21.133  0.00  0.00    +0.000 A 
ATOM     15  H   UNL     1       0.232  11.616  18.636  0.00  0.00    +0.000 HD
ENDBRANCH   5  10
ENDBRANCH   4   5
ENDBRANCH   3   4
ENDBRANCH   1   3
BRANCH   1  16
ATOM     16  C   UNL     1       2.040   3.641  18.362  0.00  0.00    +0.000 C 
BRANCH  16  17
ATOM     17  C   UNL     1       3.415   3.146  18.829  0.00  0.00    +0.000 C 
BRANCH  17  18
ATOM     18  O   UNL     1       4.319   3.161  17.721  0.00  0.00    +0.000 OA
BRANCH  18  19
ATOM     19  C   UNL     1       5.303   4.118  17.791  0.00  0.00    +0.000 A 
ATOM     20  C   UNL     1       5.709   4.737  18.986  0.00  0.00    +0.000 A 
ATOM     21  C   UNL     1       6.744   5.673  19.000  0.00  0.00    +0.000 A 
ATOM     22  C   UNL     1       7.419   6.020  17.829  0.00  0.00    +0.000 A 
ATOM     23  C   UNL     1       7.015   5.395  16.644  0.00  0.00    +0.000 A 
ATOM     24  N   UNL     1       7.501   5.532  15.364  0.00  0.00    +0.000 N 
ATOM     25  C   UNL     1       6.805   4.727  14.503  0.00  0.00    +0.000 A 
ATOM     26  C   UNL     1       5.855   4.054  15.237  0.00  0.00    +0.000 A 
ATOM     27  C   UNL     1       5.980   4.458  16.597  0.00  0.00    +0.000 A 
ATOM     28  H   UNL     1       8.264   6.141  15.104  0.00  0.00    +0.000 HD
ENDBRANCH  18  19
ENDBRANCH  17  18
ENDBRANCH  16  17
ENDBRANCH   1  16
TORSDOF 8
ENDMDL
MODEL 8
REMARK VINA RESULT:      -6.9      4.413      7.186
REMARK  Name = 
REMARK  8 active torsions:
REMARK  status: ('A' for Active; 'I' for Inactive)
REMARK    1  A    between atoms: C_5  and  C_6
REMARK    2  A    between atoms: C_6  and  C_7
REMARK    3  A    between atoms: C_7  and  C_8
REMARK    4  A    between atoms: C_8  and  N_9
REMARK    5  A    between atoms: N_9  and  C_10
REMARK    6  A    between atoms: C_10  and  C_11
REMARK    7  A    between atoms: C_11  and  O_12
REMARK    8  A    between atoms: O_12  and  C_13
REMARK                            x       y       z     vdW  Elec       q    Type
REMARK                         _______ _______ _______ _____ _____    ______ ____
ROOT
ATOM      1  N   UNL     1       7.692   7.387  16.872  0.00  0.00    +0.000 NA
ATOM      2  H   UNL     1       7.159   8.026  16.281  0.00  0.00    +0.000 HD
ENDROOT
BRANCH   1   3
ATOM      3  C   UNL     1       6.890   6.191  17.137  0.00  0.00    +0.000 C 
BRANCH   3   4
ATOM      4  C   UNL     1       5.523   6.347  16.478  0.00  0.00    +0.000 C 
BRANCH   4   5
ATOM      5  C   UNL     1       4.405   6.401  17.520  0.00  0.00    +0.000 C 
BRANCH   5  10
ATOM      6  C   UNL     1       0.957   3.355  20.334  0.00  0.00    +0.000 A 
ATOM      7  C   UNL     1       1.294   4.678  20.603  0.00  0.00    +0.000 A 
ATOM      8  C   UNL     1       2.221   5.358  19.800  0.00  0.00    +0.000 A 
ATOM      9  C   UNL     1       2.812   4.690  18.708  0.00  0.00    +0.000 A 
ATOM     10  C   UNL     1       3.759   5.065  17.698  0.00  0.00    +0.000 A 
ATOM     11  C   UNL     1       3.943   3.964  16.888  0.00  0.00    +0.000 A 
ATOM     12  N   UNL     1       3.155   2.949  17.361  0.00  0.00    +0.000 N 
ATOM     13  C   UNL     1       2.452   3.363  18.466  0.00  0.00    +0.000 A 
ATOM     14  C   UNL     1       1.529   2.671  19.258  0.00  0.00    +0.000 A 
ATOM     15  H   UNL     1       3.085   2.026  16.952  0.00  0.00    +0.000 HD
ENDBRANCH   5  10
ENDBRANCH   4   5
ENDBRANCH   3   4
ENDBRANCH   1   3
BRANCH   1  16
ATOM     16  C   UNL     1       8.088   8.093  18.096  0.00  0.00    +0.000 C 
BRANCH  16  17
ATOM     17  C   UNL     1       8.162   9.616  17.934  0.00  0.00    +0.000 C 
BRANCH  17  18
ATOM     18  O   UNL     1       9.494  10.054  18.215  0.00  0.00    +0.000 OA
BRANCH  18  19
ATOM     19  C   UNL     1       9.587  11.063  19.144  0.00  0.00    +0.000 A 
ATOM     20  C   UNL     1       9.394  10.876  20.524  0.00  0.00    +0.000 A 
ATOM     21  C   UNL     1       9.543  11.931  21.424  0.00  0.00    +0.000 A 
ATOM     22  C   UNL     1       9.898  13.208  20.987  0.00  0.00    +0.000 A 
ATOM     23  C   UNL     1      10.096  13.386  19.614  0.00  0.00    +0.000 A 
ATOM     24  N   UNL     1      10.456  14.514  18.912  0.00  0.00    +0.000 N 
ATOM     25  C   UNL     1      10.532  14.237  17.574  0.00  0.00    +0.000 A 
ATOM     26  C   UNL     1      10.220  12.908  17.404  0.00  0.00    +0.000 A 
ATOM     27  C   UNL     1       9.949  12.351  18.687  0.00  0.00    +0.000 A 
ATOM     28  H   UNL     1      10.639  15.414  19.332  0.00  0.00    +0.000 HD
ENDBRANCH  18  19
ENDBRANCH  17  18
ENDBRANCH  16  17
ENDBRANCH   1  16
TORSDOF 8
ENDMDL
MODEL 9
REMARK VINA RESULT:      -6.8      1.725      6.455
REMARK  Name = 
REMARK  8 active torsions:
REMARK  status: ('A' for Active; 'I' for Inactive)
REMARK    1  A    between atoms: C_5  and  C_6
REMARK    2  A    between atoms: C_6  and  C_7
REMARK    3  A    between atoms: C_7  and  C_8
REMARK    4  A    between atoms: C_8  and  N_9
REMARK    5  A    between atoms: N_9  and  C_10
REMARK    6  A    between atoms: C_10  and  C_11
REMARK    7  A    between atoms: C_11  and  O_12
REMARK    8  A    between atoms: O_12  and  C_13
REMARK                            x       y       z     vdW  Elec       q    Type
REMARK                         _______ _______ _______ _____ _____    ______ ____
ROOT
ATOM      1  N   UNL     1       0.758   3.406  20.380  0.00  0.00    +0.000 NA
ATOM      2  H   UNL     1       1.187   2.562  20.763  0.00  0.00    +0.000 HD
ENDROOT
BRANCH   1   3
ATOM      3  C   UNL     1       0.714   3.306  18.920  0.00  0.00    +0.000 C 
BRANCH   3   4
ATOM      4  C   UNL     1       1.369   1.997  18.486  0.00  0.00    +0.000 C 
BRANCH   4   5
ATOM      5  C   UNL     1       2.527   2.249  17.519  0.00  0.00    +0.000 C 
BRANCH   5  10
ATOM      6  C   UNL     1       6.114   6.274  17.657  0.00  0.00    +0.000 A 
ATOM      7  C   UNL     1       5.139   6.074  16.685  0.00  0.00    +0.000 A 
ATOM      8  C   UNL     1       4.273   4.974  16.755  0.00  0.00    +0.000 A 
ATOM      9  C   UNL     1       4.393   4.066  17.828  0.00  0.00    +0.000 A 
ATOM     10  C   UNL     1       3.693   2.876  18.215  0.00  0.00    +0.000 A 
ATOM     11  C   UNL     1       4.276   2.426  19.382  0.00  0.00    +0.000 A 
ATOM     12  N   UNL     1       5.289   3.286  19.712  0.00  0.00    +0.000 N 
ATOM     13  C   UNL     1       5.381   4.296  18.786  0.00  0.00    +0.000 A 
ATOM     14  C   UNL     1       6.253   5.389  18.729  0.00  0.00    +0.000 A 
ATOM     15  H   UNL     1       5.881   3.202  20.528  0.00  0.00    +0.000 HD
ENDBRANCH   5  10
ENDBRANCH   4   5
ENDBRANCH   3   4
ENDBRANCH   1   3
BRANCH   1  16
ATOM     16  C   UNL     1       1.511   4.575  20.851  0.00  0.00    +0.000 C 
BRANCH  16  17
ATOM     17  C   UNL     1       1.922   5.537  19.729  0.00  0.00    +0.000 C 
BRANCH  17  18
ATOM     18  O   UNL     1       2.470   6.724  20.307  0.00  0.00    +0.000 OA
BRANCH  18  19
ATOM     19  C   UNL     1       1.585   7.768  20.432  0.00  0.00    +0.000 A 
ATOM     20  C   UNL     1       0.741   7.949  21.542  0.00  0.00    +0.000 A 
ATOM     21  C   UNL     1      -0.108   9.053  21.633  0.00  0.00    +0.000 A 
ATOM     22  C   UNL     1      -0.142  10.021  20.629  0.00  0.00    +0.000 A 
ATOM     23  C   UNL     1       0.704   9.838  19.530  0.00  0.00    +0.000 A 
ATOM     24  N   UNL     1       0.886  10.625  18.416  0.00  0.00    +0.000 N 
ATOM     25  C   UNL     1       1.818  10.064  17.585  0.00  0.00    +0.000 A 
ATOM     26  C   UNL     1       2.250   8.896  18.171  0.00  0.00    +0.000 A 
ATOM     27  C   UNL     1       1.561   8.742  19.408  0.00  0.00    +0.000 A 
ATOM     28  H   UNL     1       0.400  11.494  18.243  0.00  0.00    +0.000 HD
ENDBRANCH  18  19
ENDBRANCH  17  18
ENDBRANCH  16  17
ENDBRANCH   1  16
TORSDOF 8
ENDMDL
