MODEL 1
REMARK VINA RESULT:      -7.5      0.000      0.000
REMARK  Name = 
REMARK  8 active torsions:
REMARK  status: ('A' for Active; 'I' for Inactive)
REMARK    1  A    between atoms: C_1  and  C_2
REMARK    2  A    between atoms: N_4  and  C_5
REMARK    3  A    between atoms: C_13  and  C_14
REMARK    4  A    between atoms: N_16  and  C_17
REMARK    5  A    between atoms: C_17  and  C_18
REMARK    6  A    between atoms: C_17  and  C_22
REMARK    7  A    between atoms: C_18  and  C_19
REMARK    8  A    between atoms: C_19  and  O_21
REMARK                            x       y       z     vdW  Elec       q    Type
REMARK                         _______ _______ _______ _____ _____    ______ ____
ROOT
ATOM      1  C   UNL     1       1.670   8.087  19.942  0.00  0.00    +0.000 C 
ATOM      2  O   UNL     1       1.626   8.360  21.140  0.00  0.00    +0.000 OA
ATOM      3  N   UNL     1       1.106   8.881  18.970  0.00  0.00    +0.000 N 
ATOM      4  H   UNL     1       1.437   8.749  18.023  0.00  0.00    +0.000 HD
ENDROOT
BRANCH   1  11
ATOM      5  C   UNL     1       1.331   4.974  20.816  0.00  0.00    +0.000 C 
ATOM      6  C   UNL     1       2.231   5.549  19.779  0.00  0.00    +0.000 A 
ATOM      7  N   UNL     1       3.029   4.752  19.046  0.00  0.00    +0.000 NA
ATOM      8  N   UNL     1       3.788   5.613  18.301  0.00  0.00    +0.000 N 
ATOM      9  C   UNL     1       3.295   6.895  18.413  0.00  0.00    +0.000 A 
ATOM     10 CL   UNL     1       3.686   8.135  17.292  0.00  0.00    +0.000 Cl
ATOM     11  C   UNL     1       2.371   6.924  19.435  0.00  0.00    +0.000 A 
BRANCH   8  12
ATOM     12  C   UNL     1       4.926   5.165  17.574  0.00  0.00    +0.000 A 
ATOM     13  C   UNL     1       4.821   4.791  16.229  0.00  0.00    +0.000 A 
ATOM     14  C   UNL     1       5.981   4.471  15.510  0.00  0.00    +0.000 A 
ATOM     15  C   UNL     1       7.232   4.485  16.136  0.00  0.00    +0.000 A 
ATOM     16  C   UNL     1       7.326   4.784  17.486  0.00  0.00    +0.000 A 
ATOM     17  C   UNL     1       6.177   5.107  18.206  0.00  0.00    +0.000 A 
ENDBRANCH   8  12
ENDBRANCH   1  11
BRANCH   3  18
ATOM     18  C   UNL     1       0.420  10.129  19.260  0.00  0.00    +0.000 C 
BRANCH  18  19
ATOM     19  C   UNL     1      -0.926  10.263  18.547  0.00  0.00    +0.000 A 
ATOM     20  C   UNL     1      -1.174   9.722  17.274  0.00  0.00    +0.000 A 
ATOM     21  C   UNL     1      -2.375   9.970  16.603  0.00  0.00    +0.000 A 
ATOM     22  C   UNL     1      -3.356  10.763  17.194  0.00  0.00    +0.000 A 
ATOM     23  C   UNL     1      -3.140  11.281  18.467  0.00  0.00    +0.000 A 
ATOM     24 BR   UNL     1      -4.469  12.357  19.273  0.00  0.00    +0.000 Br
ATOM     25  C   UNL     1      -1.943  11.032  19.144  0.00  0.00    +0.000 A 
ENDBRANCH  18  19
BRANCH  18  26
ATOM     26  C   UNL     1       1.315  11.355  19.012  0.00  0.00    +0.000 C 
BRANCH  26  27
ATOM     27  C   UNL     1       1.607  12.143  20.267  0.00  0.00    +0.000 C 
ATOM     28  O   UNL     1       2.192  13.217  20.302  0.00  0.00    +0.000 OA
BRANCH  27  29
ATOM     29  O   UNL     1       1.219  11.504  21.395  0.00  0.00    +0.000 OA
ATOM     30  H   UNL     1       0.828  12.083  22.079  0.00  0.00    +0.000 HD
ENDBRANCH  27  29
ENDBRANCH  26  27
ENDBRANCH  18  26
ENDBRANCH   3  18
TORSDOF 7
ENDMDL
MODEL 2
REMARK VINA RESULT:      -7.5      3.685      8.660
REMARK  Name = 
REMARK  8 active torsions:
REMARK  status: ('A' for Active; 'I' for Inactive)
REMARK    1  A    between atoms: C_1  and  C_2
REMARK    2  A    between atoms: N_4  and  C_5
REMARK    3  A    between atoms: C_13  and  C_14
REMARK    4  A    between atoms: N_16  and  C_17
REMARK    5  A    between atoms: C_17  and  C_18
REMARK    6  A    between atoms: C_17  and  C_22
REMARK    7  A    between atoms: C_18  and  C_19
REMARK    8  A    between atoms: C_19  and  O_21
REMARK                            x       y       z     vdW  Elec       q    Type
REMARK                         _______ _______ _______ _____ _____    ______ ____
ROOT
ATOM      1  C   UNL     1       1.799   7.287  19.970  0.00  0.00    +0.000 C 
ATOM      2  O   UNL     1       1.906   6.695  21.042  0.00  0.00    +0.000 OA
ATOM      3  N   UNL     1       2.207   6.747  18.772  0.00  0.00    +0.000 N 
ATOM      4  H   UNL     1       1.820   7.156  17.931  0.00  0.00    +0.000 HD
ENDROOT
BRANCH   1  11
ATOM      5  C   UNL     1       2.237   9.552  17.681  0.00  0.00    +0.000 C 
ATOM      6  C   UNL     1       1.332   9.596  18.863  0.00  0.00    +0.000 A 
ATOM      7  N   UNL     1       0.544  10.664  19.083  0.00  0.00    +0.000 NA
ATOM      8  N   UNL     1      -0.041  10.418  20.295  0.00  0.00    +0.000 N 
ATOM      9  C   UNL     1       0.214   9.122  20.688  0.00  0.00    +0.000 A 
ATOM     10 CL   UNL     1      -0.712   8.326  21.895  0.00  0.00    +0.000 Cl
ATOM     11  C   UNL     1       1.181   8.593  19.861  0.00  0.00    +0.000 A 
BRANCH   8  12
ATOM     12  C   UNL     1      -0.760  11.428  20.993  0.00  0.00    +0.000 A 
ATOM     13  C   UNL     1      -0.580  11.621  22.368  0.00  0.00    +0.000 A 
ATOM     14  C   UNL     1      -1.211  12.702  23.001  0.00  0.00    +0.000 A 
ATOM     15  C   UNL     1      -2.046  13.560  22.278  0.00  0.00    +0.000 A 
ATOM     16  C   UNL     1      -2.281  13.325  20.932  0.00  0.00    +0.000 A 
ATOM     17  C   UNL     1      -1.654  12.254  20.296  0.00  0.00    +0.000 A 
ENDBRANCH   8  12
ENDBRANCH   1  11
BRANCH   3  18
ATOM     18  C   UNL     1       2.785   5.420  18.651  0.00  0.00    +0.000 C 
BRANCH  18  19
ATOM     19  C   UNL     1       4.023   5.374  17.754  0.00  0.00    +0.000 A 
ATOM     20  C   UNL     1       4.255   4.348  16.824  0.00  0.00    +0.000 A 
ATOM     21  C   UNL     1       5.456   4.276  16.111  0.00  0.00    +0.000 A 
ATOM     22  C   UNL     1       6.448   5.232  16.311  0.00  0.00    +0.000 A 
ATOM     23  C   UNL     1       6.221   6.274  17.205  0.00  0.00    +0.000 A 
ATOM     24 BR   UNL     1       7.565   7.575  17.479  0.00  0.00    +0.000 Br
ATOM     25  C   UNL     1       5.022   6.353  17.917  0.00  0.00    +0.000 A 
ENDBRANCH  18  19
BRANCH  18  26
ATOM     26  C   UNL     1       1.744   4.368  18.231  0.00  0.00    +0.000 C 
BRANCH  26  27
ATOM     27  C   UNL     1       1.382   3.410  19.341  0.00  0.00    +0.000 C 
ATOM     28  O   UNL     1       1.694   2.229  19.380  0.00  0.00    +0.000 OA
BRANCH  27  29
ATOM     29  O   UNL     1       0.591   3.971  20.285  0.00  0.00    +0.000 OA
ATOM     30  H   UNL     1       1.072   4.367  21.038  0.00  0.00    +0.000 HD
ENDBRANCH  27  29
ENDBRANCH  26  27
ENDBRANCH  18  26
ENDBRANCH   3  18
TORSDOF 7
ENDMDL
MODEL 3
REMARK VINA RESULT:      -7.5      3.800      8.735
REMARK  Name = 
REMARK  8 active torsions:
REMARK  status: ('A' for Active; 'I' for Inactive)
REMARK    1  A    between atoms: C_1  and  C_2
REMARK    2  A    between atoms: N_4  and  C_5
REMARK    3  A    between atoms: C_13  and  C_14
REMARK    4  A    between atoms: N_16  and  C_17
REMARK    5  A    between atoms: C_17  and  C_18
REMARK    6  A    between atoms: C_17  and  C_22
REMARK    7  A    between atoms: C_18  and  C_19
REMARK    8  A    between atoms: C_19  and  O_21
REMARK                            x       y       z     vdW  Elec       q    Type
REMARK                         _______ _______ _______ _____ _____    ______ ____
ROOT
ATOM      1  C   UNL     1       1.916   7.018  20.092  0.00  0.00    +0.000 C 
ATOM      2  O   UNL     1       1.970   6.517  21.213  0.00  0.00    +0.000 OA
ATOM      3  N   UNL     1       2.343   6.367  18.958  0.00  0.00    +0.000 N 
ATOM      4  H   UNL     1       1.996   6.714  18.073  0.00  0.00    +0.000 HD
ENDROOT
BRANCH   1  11
ATOM      5  C   UNL     1       2.458   9.046  17.610  0.00  0.00    +0.000 C 
ATOM      6  C   UNL     1       1.540   9.229  18.768  0.00  0.00    +0.000 A 
ATOM      7  N   UNL     1       0.785  10.337  18.876  0.00  0.00    +0.000 NA
ATOM      8  N   UNL     1       0.176  10.223  20.096  0.00  0.00    +0.000 N 
ATOM      9  C   UNL     1       0.383   8.962  20.611  0.00  0.00    +0.000 A 
ATOM     10 CL   UNL     1      -0.585   8.311  21.871  0.00  0.00    +0.000 Cl
ATOM     11  C   UNL     1       1.342   8.328  19.853  0.00  0.00    +0.000 A 
BRANCH   8  12
ATOM     12  C   UNL     1      -0.518  11.316  20.686  0.00  0.00    +0.000 A 
ATOM     13  C   UNL     1      -1.504  12.011  19.976  0.00  0.00    +0.000 A 
ATOM     14  C   UNL     1      -2.253  13.002  20.627  0.00  0.00    +0.000 A 
ATOM     15  C   UNL     1      -1.995  13.325  21.963  0.00  0.00    +0.000 A 
ATOM     16  C   UNL     1      -0.969  12.687  22.643  0.00  0.00    +0.000 A 
ATOM     17  C   UNL     1      -0.224  11.699  22.003  0.00  0.00    +0.000 A 
ENDBRANCH   8  12
ENDBRANCH   1  11
BRANCH   3  18
ATOM     18  C   UNL     1       2.883   5.018  18.969  0.00  0.00    +0.000 C 
BRANCH  18  19
ATOM     19  C   UNL     1       4.326   4.936  18.469  0.00  0.00    +0.000 A 
ATOM     20  C   UNL     1       5.428   5.319  19.251  0.00  0.00    +0.000 A 
ATOM     21  C   UNL     1       6.720   5.345  18.717  0.00  0.00    +0.000 A 
ATOM     22  C   UNL     1       6.936   4.986  17.390  0.00  0.00    +0.000 A 
ATOM     23  C   UNL     1       5.861   4.574  16.610  0.00  0.00    +0.000 A 
ATOM     24 BR   UNL     1       6.150   4.084  14.807  0.00  0.00    +0.000 Br
ATOM     25  C   UNL     1       4.568   4.541  17.140  0.00  0.00    +0.000 A 
ENDBRANCH  18  19
BRANCH  18  26
ATOM     26  C   UNL     1       1.972   4.021  18.231  0.00  0.00    +0.000 C 
BRANCH  26  27
ATOM     27  C   UNL     1       1.050   3.261  19.154  0.00  0.00    +0.000 C 
ATOM     28  O   UNL     1       0.319   2.341  18.815  0.00  0.00    +0.000 OA
BRANCH  27  29
ATOM     29  O   UNL     1       1.045   3.749  20.416  0.00  0.00    +0.000 OA
ATOM     30  H   UNL     1       1.509   3.192  21.071  0.00  0.00    +0.000 HD
ENDBRANCH  27  29
ENDBRANCH  26  27
ENDBRANCH  18  26
ENDBRANCH   3  18
TORSDOF 7
ENDMDL
MODEL 4
REMARK VINA RESULT:      -7.4      3.869      8.638
REMARK  Name = 
REMARK  8 active torsions:
REMARK  status: ('A' for Active; 'I' for Inactive)
REMARK    1  A    between atoms: C_1  and  C_2
REMARK    2  A    between atoms: N_4  and  C_5
REMARK    3  A    between atoms: C_13  and  C_14
REMARK    4  A    between atoms: N_16  and  C_17
REMARK    5  A    between atoms: C_17  and  C_18
REMARK    6  A    between atoms: C_17  and  C_22
REMARK    7  A    between atoms: C_18  and  C_19
REMARK    8  A    between atoms: C_19  and  O_21
REMARK                            x       y       z     vdW  Elec       q    Type
REMARK                         _______ _______ _______ _____ _____    ______ ____
ROOT
ATOM      1  C   UNL     1       1.831   7.043  19.897  0.00  0.00    +0.000 C 
ATOM      2  O   UNL     1       1.778   6.336  20.900  0.00  0.00    +0.000 OA
ATOM      3  N   UNL     1       2.291   6.590  18.682  0.00  0.00    +0.000 N 
ATOM      4  H   UNL     1       2.025   7.124  17.864  0.00  0.00    +0.000 HD
ENDROOT
BRANCH   1  11
ATOM      5  C   UNL     1       2.279   9.325  17.625  0.00  0.00    +0.000 C 
ATOM      6  C   UNL     1       1.517   9.428  18.900  0.00  0.00    +0.000 A 
ATOM      7  N   UNL     1       0.884  10.569  19.229  0.00  0.00    +0.000 NA
ATOM      8  N   UNL     1       0.407  10.348  20.493  0.00  0.00    +0.000 N 
ATOM      9  C   UNL     1       0.552   9.018  20.826  0.00  0.00    +0.000 A 
ATOM     10 CL   UNL     1      -0.326   8.288  22.108  0.00  0.00    +0.000 Cl
ATOM     11  C   UNL     1       1.358   8.414  19.886  0.00  0.00    +0.000 A 
BRANCH   8  12
ATOM     12  C   UNL     1      -0.113  11.406  21.288  0.00  0.00    +0.000 A 
ATOM     13  C   UNL     1      -1.128  11.173  22.223  0.00  0.00    +0.000 A 
ATOM     14  C   UNL     1      -1.532  12.212  23.075  0.00  0.00    +0.000 A 
ATOM     15  C   UNL     1      -0.957  13.482  22.970  0.00  0.00    +0.000 A 
ATOM     16  C   UNL     1      -0.004  13.731  21.994  0.00  0.00    +0.000 A 
ATOM     17  C   UNL     1       0.404  12.703  21.146  0.00  0.00    +0.000 A 
ENDBRANCH   8  12
ENDBRANCH   1  11
BRANCH   3  18
ATOM     18  C   UNL     1       2.743   5.227  18.460  0.00  0.00    +0.000 C 
BRANCH  18  19
ATOM     19  C   UNL     1       4.046   5.140  17.665  0.00  0.00    +0.000 A 
ATOM     20  C   UNL     1       4.357   4.059  16.822  0.00  0.00    +0.000 A 
ATOM     21  C   UNL     1       5.609   3.957  16.209  0.00  0.00    +0.000 A 
ATOM     22  C   UNL     1       6.576   4.936  16.423  0.00  0.00    +0.000 A 
ATOM     23  C   UNL     1       6.274   6.029  17.228  0.00  0.00    +0.000 A 
ATOM     24 BR   UNL     1       7.583   7.361  17.521  0.00  0.00    +0.000 Br
ATOM     25  C   UNL     1       5.022   6.139  17.841  0.00  0.00    +0.000 A 
ENDBRANCH  18  19
BRANCH  18  26
ATOM     26  C   UNL     1       1.645   4.344  17.842  0.00  0.00    +0.000 C 
BRANCH  26  27
ATOM     27  C   UNL     1       1.285   3.153  18.699  0.00  0.00    +0.000 C 
ATOM     28  O   UNL     1       0.692   3.209  19.767  0.00  0.00    +0.000 OA
BRANCH  27  29
ATOM     29  O   UNL     1       1.756   1.984  18.204  0.00  0.00    +0.000 OA
ATOM     30  H   UNL     1       2.726   1.948  18.094  0.00  0.00    +0.000 HD
ENDBRANCH  27  29
ENDBRANCH  26  27
ENDBRANCH  18  26
ENDBRANCH   3  18
TORSDOF 7
ENDMDL
MODEL 5
REMARK VINA RESULT:      -7.4      3.976      8.719
REMARK  Name = 
REMARK  8 active torsions:
REMARK  status: ('A' for Active; 'I' for Inactive)
REMARK    1  A    between atoms: C_1  and  C_2
REMARK    2  A    between atoms: N_4  and  C_5
REMARK    3  A    between atoms: C_13  and  C_14
REMARK    4  A    between atoms: N_16  and  C_17
REMARK    5  A    between atoms: C_17  and  C_18
REMARK    6  A    between atoms: C_17  and  C_22
REMARK    7  A    between atoms: C_18  and  C_19
REMARK    8  A    between atoms: C_19  and  O_21
REMARK                            x       y       z     vdW  Elec       q    Type
REMARK                         _______ _______ _______ _____ _____    ______ ____
ROOT
ATOM      1  C   UNL     1       1.832   7.035  20.183  0.00  0.00    +0.000 C 
ATOM      2  O   UNL     1       1.494   6.355  21.149  0.00  0.00    +0.000 OA
ATOM      3  N   UNL     1       2.588   6.541  19.145  0.00  0.00    +0.000 N 
ATOM      4  H   UNL     1       2.566   7.060  18.276  0.00  0.00    +0.000 HD
ENDROOT
BRANCH   1  11
ATOM      5  C   UNL     1       2.157   8.957  17.582  0.00  0.00    +0.000 C 
ATOM      6  C   UNL     1       1.522   9.274  18.891  0.00  0.00    +0.000 A 
ATOM      7  N   UNL     1       0.970  10.481  19.110  0.00  0.00    +0.000 NA
ATOM      8  N   UNL     1       0.606  10.461  20.429  0.00  0.00    +0.000 N 
ATOM      9  C   UNL     1       0.727   9.184  20.932  0.00  0.00    +0.000 A 
ATOM     10 CL   UNL     1      -0.055   8.685  22.377  0.00  0.00    +0.000 Cl
ATOM     11  C   UNL     1       1.416   8.414  20.020  0.00  0.00    +0.000 A 
BRANCH   8  12
ATOM     12  C   UNL     1       0.206  11.644  21.109  0.00  0.00    +0.000 A 
ATOM     13  C   UNL     1      -0.868  11.633  22.005  0.00  0.00    +0.000 A 
ATOM     14  C   UNL     1      -1.158  12.786  22.750  0.00  0.00    +0.000 A 
ATOM     15  C   UNL     1      -0.408  13.953  22.573  0.00  0.00    +0.000 A 
ATOM     16  C   UNL     1       0.609  13.986  21.632  0.00  0.00    +0.000 A 
ATOM     17  C   UNL     1       0.905  12.842  20.891  0.00  0.00    +0.000 A 
ENDBRANCH   8  12
ENDBRANCH   1  11
BRANCH   3  18
ATOM     18  C   UNL     1       3.047   5.164  19.078  0.00  0.00    +0.000 C 
BRANCH  18  19
ATOM     19  C   UNL     1       4.447   5.017  18.483  0.00  0.00    +0.000 A 
ATOM     20  C   UNL     1       5.617   5.324  19.198  0.00  0.00    +0.000 A 
ATOM     21  C   UNL     1       6.871   5.295  18.580  0.00  0.00    +0.000 A 
ATOM     22  C   UNL     1       6.981   4.953  17.235  0.00  0.00    +0.000 A 
ATOM     23  C   UNL     1       5.837   4.615  16.520  0.00  0.00    +0.000 A 
ATOM     24 BR   UNL     1       5.982   4.150  14.693  0.00  0.00    +0.000 Br
ATOM     25  C   UNL     1       4.581   4.639  17.133  0.00  0.00    +0.000 A 
ENDBRANCH  18  19
BRANCH  18  26
ATOM     26  C   UNL     1       2.033   4.248  18.370  0.00  0.00    +0.000 C 
BRANCH  26  27
ATOM     27  C   UNL     1       1.409   3.226  19.290  0.00  0.00    +0.000 C 
ATOM     28  O   UNL     1       1.601   2.019  19.232  0.00  0.00    +0.000 OA
BRANCH  27  29
ATOM     29  O   UNL     1       0.532   3.768  20.165  0.00  0.00    +0.000 OA
ATOM     30  H   UNL     1       0.870   4.542  20.656  0.00  0.00    +0.000 HD
ENDBRANCH  27  29
ENDBRANCH  26  27
ENDBRANCH  18  26
ENDBRANCH   3  18
TORSDOF 7
ENDMDL
MODEL 6
REMARK VINA RESULT:      -7.4      4.052      8.789
REMARK  Name = 
REMARK  8 active torsions:
REMARK  status: ('A' for Active; 'I' for Inactive)
REMARK    1  A    between atoms: C_1  and  C_2
REMARK    2  A    between atoms: N_4  and  C_5
REMARK    3  A    between atoms: C_13  and  C_14
REMARK    4  A    between atoms: N_16  and  C_17
REMARK    5  A    between atoms: C_17  and  C_18
REMARK    6  A    between atoms: C_17  and  C_22
REMARK    7  A    between atoms: C_18  and  C_19
REMARK    8  A    between atoms: C_19  and  O_21
REMARK                            x       y       z     vdW  Elec       q    Type
REMARK                         _______ _______ _______ _____ _____    ______ ____
ROOT
ATOM      1  C   UNL     1       1.913   6.820  19.976  0.00  0.00    +0.000 C 
ATOM      2  O   UNL     1       1.618   6.094  20.923  0.00  0.00    +0.000 OA
ATOM      3  N   UNL     1       2.603   6.372  18.874  0.00  0.00    +0.000 N 
ATOM      4  H   UNL     1       2.542   6.936  18.035  0.00  0.00    +0.000 HD
ENDROOT
BRANCH   1  11
ATOM      5  C   UNL     1       2.317   8.930  17.537  0.00  0.00    +0.000 C 
ATOM      6  C   UNL     1       1.651   9.153  18.850  0.00  0.00    +0.000 A 
ATOM      7  N   UNL     1       1.101  10.345  19.146  0.00  0.00    +0.000 NA
ATOM      8  N   UNL     1       0.703  10.228  20.450  0.00  0.00    +0.000 N 
ATOM      9  C   UNL     1       0.803   8.915  20.858  0.00  0.00    +0.000 A 
ATOM     10 CL   UNL     1      -0.019   8.315  22.241  0.00  0.00    +0.000 Cl
ATOM     11  C   UNL     1       1.510   8.211  19.908  0.00  0.00    +0.000 A 
BRANCH   8  12
ATOM     12  C   UNL     1       0.294  11.360  21.208  0.00  0.00    +0.000 A 
ATOM     13  C   UNL     1       0.849  12.623  20.973  0.00  0.00    +0.000 A 
ATOM     14  C   UNL     1       0.337  13.739  21.652  0.00  0.00    +0.000 A 
ATOM     15  C   UNL     1      -0.693  13.591  22.587  0.00  0.00    +0.000 A 
ATOM     16  C   UNL     1      -1.192  12.329  22.872  0.00  0.00    +0.000 A 
ATOM     17  C   UNL     1      -0.690  11.217  22.197  0.00  0.00    +0.000 A 
ENDBRANCH   8  12
ENDBRANCH   1  11
BRANCH   3  18
ATOM     18  C   UNL     1       3.036   4.994  18.710  0.00  0.00    +0.000 C 
BRANCH  18  19
ATOM     19  C   UNL     1       4.466   4.864  18.185  0.00  0.00    +0.000 A 
ATOM     20  C   UNL     1       5.596   5.170  18.962  0.00  0.00    +0.000 A 
ATOM     21  C   UNL     1       6.880   5.156  18.409  0.00  0.00    +0.000 A 
ATOM     22  C   UNL     1       7.060   4.831  17.067  0.00  0.00    +0.000 A 
ATOM     23  C   UNL     1       5.956   4.494  16.291  0.00  0.00    +0.000 A 
ATOM     24 BR   UNL     1       6.197   4.052  14.469  0.00  0.00    +0.000 Br
ATOM     25  C   UNL     1       4.671   4.502  16.840  0.00  0.00    +0.000 A 
ENDBRANCH  18  19
BRANCH  18  26
ATOM     26  C   UNL     1       2.047   4.171  17.866  0.00  0.00    +0.000 C 
BRANCH  26  27
ATOM     27  C   UNL     1       1.550   2.931  18.571  0.00  0.00    +0.000 C 
ATOM     28  O   UNL     1       0.753   2.922  19.498  0.00  0.00    +0.000 OA
BRANCH  27  29
ATOM     29  O   UNL     1       2.137   1.797  18.122  0.00  0.00    +0.000 OA
ATOM     30  H   UNL     1       3.093   1.728  18.315  0.00  0.00    +0.000 HD
ENDBRANCH  27  29
ENDBRANCH  26  27
ENDBRANCH  18  26
ENDBRANCH   3  18
TORSDOF 7
ENDMDL
MODEL 7
REMARK VINA RESULT:      -7.4      3.987      8.696
REMARK  Name = 
REMARK  8 active torsions:
REMARK  status: ('A' for Active; 'I' for Inactive)
REMARK    1  A    between atoms: C_1  and  C_2
REMARK    2  A    between atoms: N_4  and  C_5
REMARK    3  A    between atoms: C_13  and  C_14
REMARK    4  A    between atoms: N_16  and  C_17
REMARK    5  A    between atoms: C_17  and  C_18
REMARK    6  A    between atoms: C_17  and  C_22
REMARK    7  A    between atoms: C_18  and  C_19
REMARK    8  A    between atoms: C_19  and  O_21
REMARK                            x       y       z     vdW  Elec       q    Type
REMARK                         _______ _______ _______ _____ _____    ______ ____
ROOT
ATOM      1  C   UNL     1       1.721   7.071  20.125  0.00  0.00    +0.000 C 
ATOM      2  O   UNL     1       1.543   6.390  21.132  0.00  0.00    +0.000 OA
ATOM      3  N   UNL     1       2.258   6.567  18.963  0.00  0.00    +0.000 N 
ATOM      4  H   UNL     1       2.094   7.096  18.116  0.00  0.00    +0.000 HD
ENDROOT
BRANCH   1  11
ATOM      5  C   UNL     1       2.092   9.152  17.656  0.00  0.00    +0.000 C 
ATOM      6  C   UNL     1       1.454   9.394  18.979  0.00  0.00    +0.000 A 
ATOM      7  N   UNL     1       0.919  10.593  19.272  0.00  0.00    +0.000 NA
ATOM      8  N   UNL     1       0.545  10.493  20.585  0.00  0.00    +0.000 N 
ATOM      9  C   UNL     1       0.644   9.184  21.006  0.00  0.00    +0.000 A 
ATOM     10 CL   UNL     1      -0.155   8.605  22.411  0.00  0.00    +0.000 Cl
ATOM     11  C   UNL     1       1.327   8.464  20.050  0.00  0.00    +0.000 A 
BRANCH   8  12
ATOM     12  C   UNL     1       0.160  11.636  21.338  0.00  0.00    +0.000 A 
ATOM     13  C   UNL     1       0.756  12.882  21.113  0.00  0.00    +0.000 A 
ATOM     14  C   UNL     1       0.269  14.012  21.786  0.00  0.00    +0.000 A 
ATOM     15  C   UNL     1      -0.779  13.895  22.705  0.00  0.00    +0.000 A 
ATOM     16  C   UNL     1      -1.321  12.649  22.981  0.00  0.00    +0.000 A 
ATOM     17  C   UNL     1      -0.843  11.522  22.313  0.00  0.00    +0.000 A 
ENDBRANCH   8  12
ENDBRANCH   1  11
BRANCH   3  18
ATOM     18  C   UNL     1       2.651   5.177  18.805  0.00  0.00    +0.000 C 
BRANCH  18  19
ATOM     19  C   UNL     1       4.005   5.002  18.115  0.00  0.00    +0.000 A 
ATOM     20  C   UNL     1       4.162   4.304  16.907  0.00  0.00    +0.000 A 
ATOM     21  C   UNL     1       5.430   4.060  16.371  0.00  0.00    +0.000 A 
ATOM     22  C   UNL     1       6.568   4.515  17.032  0.00  0.00    +0.000 A 
ATOM     23  C   UNL     1       6.430   5.236  18.214  0.00  0.00    +0.000 A 
ATOM     24 BR   UNL     1       7.972   5.855  19.115  0.00  0.00    +0.000 Br
ATOM     25  C   UNL     1       5.164   5.486  18.751  0.00  0.00    +0.000 A 
ENDBRANCH  18  19
BRANCH  18  26
ATOM     26  C   UNL     1       1.557   4.337  18.123  0.00  0.00    +0.000 C 
BRANCH  26  27
ATOM     27  C   UNL     1       0.995   3.255  19.013  0.00  0.00    +0.000 C 
ATOM     28  O   UNL     1       0.863   2.081  18.694  0.00  0.00    +0.000 OA
BRANCH  27  29
ATOM     29  O   UNL     1       0.565   3.723  20.208  0.00  0.00    +0.000 OA
ATOM     30  H   UNL     1      -0.400   3.661  20.347  0.00  0.00    +0.000 HD
ENDBRANCH  27  29
ENDBRANCH  26  27
ENDBRANCH  18  26
ENDBRANCH   3  18
TORSDOF 7
ENDMDL
MODEL 8
REMARK VINA RESULT:      -7.4      3.558      5.553
REMARK  Name = 
REMARK  8 active torsions:
REMARK  status: ('A' for Active; 'I' for Inactive)
REMARK    1  A    between atoms: C_1  and  C_2
REMARK    2  A    between atoms: N_4  and  C_5
REMARK    3  A    between atoms: C_13  and  C_14
REMARK    4  A    between atoms: N_16  and  C_17
REMARK    5  A    between atoms: C_17  and  C_18
REMARK    6  A    between atoms: C_17  and  C_22
REMARK    7  A    between atoms: C_18  and  C_19
REMARK    8  A    between atoms: C_19  and  O_21
REMARK                            x       y       z     vdW  Elec       q    Type
REMARK                         _______ _______ _______ _____ _____    ______ ____
ROOT
ATOM      1  C   UNL     1       4.811   5.564  18.652  0.00  0.00    +0.000 C 
ATOM      2  O   UNL     1       5.244   5.645  19.799  0.00  0.00    +0.000 OA
ATOM      3  N   UNL     1       3.467   5.573  18.355  0.00  0.00    +0.000 N 
ATOM      4  H   UNL     1       3.210   5.801  17.403  0.00  0.00    +0.000 HD
ENDROOT
BRANCH   1  11
ATOM      5  C   UNL     1       7.603   7.146  18.135  0.00  0.00    +0.000 C 
ATOM      6  C   UNL     1       6.918   6.167  17.246  0.00  0.00    +0.000 A 
ATOM      7  N   UNL     1       7.460   5.818  16.065  0.00  0.00    +0.000 NA
ATOM      8  N   UNL     1       6.519   5.017  15.476  0.00  0.00    +0.000 N 
ATOM      9  C   UNL     1       5.530   4.705  16.384  0.00  0.00    +0.000 A 
ATOM     10 CL   UNL     1       4.455   3.385  16.158  0.00  0.00    +0.000 Cl
ATOM     11  C   UNL     1       5.681   5.507  17.494  0.00  0.00    +0.000 A 
BRANCH   8  12
ATOM     12  C   UNL     1       6.612   4.642  14.108  0.00  0.00    +0.000 A 
ATOM     13  C   UNL     1       7.583   5.205  13.271  0.00  0.00    +0.000 A 
ATOM     14  C   UNL     1       7.727   4.724  11.961  0.00  0.00    +0.000 A 
ATOM     15  C   UNL     1       6.884   3.718  11.476  0.00  0.00    +0.000 A 
ATOM     16  C   UNL     1       5.876   3.213  12.282  0.00  0.00    +0.000 A 
ATOM     17  C   UNL     1       5.730   3.683  13.586  0.00  0.00    +0.000 A 
ENDBRANCH   8  12
ENDBRANCH   1  11
BRANCH   3  18
ATOM     18  C   UNL     1       2.429   5.696  19.364  0.00  0.00    +0.000 C 
BRANCH  18  19
ATOM     19  C   UNL     1       1.901   7.123  19.522  0.00  0.00    +0.000 A 
ATOM     20  C   UNL     1       1.983   8.085  18.502  0.00  0.00    +0.000 A 
ATOM     21  C   UNL     1       1.601   9.411  18.726  0.00  0.00    +0.000 A 
ATOM     22  C   UNL     1       1.125   9.802  19.975  0.00  0.00    +0.000 A 
ATOM     23  C   UNL     1       1.007   8.855  20.987  0.00  0.00    +0.000 A 
ATOM     24 BR   UNL     1       0.361   9.380  22.685  0.00  0.00    +0.000 Br
ATOM     25  C   UNL     1       1.383   7.527  20.768  0.00  0.00    +0.000 A 
ENDBRANCH  18  19
BRANCH  18  26
ATOM     26  C   UNL     1       2.858   5.100  20.716  0.00  0.00    +0.000 C 
BRANCH  26  27
ATOM     27  C   UNL     1       2.564   3.624  20.837  0.00  0.00    +0.000 C 
ATOM     28  O   UNL     1       2.721   2.801  19.947  0.00  0.00    +0.000 OA
BRANCH  27  29
ATOM     29  O   UNL     1       2.024   3.289  22.032  0.00  0.00    +0.000 OA
ATOM     30  H   UNL     1       1.466   3.982  22.437  0.00  0.00    +0.000 HD
ENDBRANCH  27  29
ENDBRANCH  26  27
ENDBRANCH  18  26
ENDBRANCH   3  18
TORSDOF 7
ENDMDL
MODEL 9
REMARK VINA RESULT:      -7.4      1.000      1.326
REMARK  Name = 
REMARK  8 active torsions:
REMARK  status: ('A' for Active; 'I' for Inactive)
REMARK    1  A    between atoms: C_1  and  C_2
REMARK    2  A    between atoms: N_4  and  C_5
REMARK    3  A    between atoms: C_13  and  C_14
REMARK    4  A    between atoms: N_16  and  C_17
REMARK    5  A    between atoms: C_17  and  C_18
REMARK    6  A    between atoms: C_17  and  C_22
REMARK    7  A    between atoms: C_18  and  C_19
REMARK    8  A    between atoms: C_19  and  O_21
REMARK                            x       y       z     vdW  Elec       q    Type
REMARK                         _______ _______ _______ _____ _____    ______ ____
ROOT
ATOM      1  C   UNL     1       1.612   7.990  20.250  0.00  0.00    +0.000 C 
ATOM      2  O   UNL     1       1.540   8.061  21.475  0.00  0.00    +0.000 OA
ATOM      3  N   UNL     1       1.080   8.942  19.410  0.00  0.00    +0.000 N 
ATOM      4  H   UNL     1       1.434   8.965  18.463  0.00  0.00    +0.000 HD
ENDROOT
BRANCH   1  11
ATOM      5  C   UNL     1       1.525   4.800  20.865  0.00  0.00    +0.000 C 
ATOM      6  C   UNL     1       2.284   5.515  19.802  0.00  0.00    +0.000 A 
ATOM      7  N   UNL     1       3.043   4.833  18.926  0.00  0.00    +0.000 NA
ATOM      8  N   UNL     1       3.677   5.799  18.192  0.00  0.00    +0.000 N 
ATOM      9  C   UNL     1       3.132   7.035  18.468  0.00  0.00    +0.000 A 
ATOM     10 CL   UNL     1       3.343   8.387  17.432  0.00  0.00    +0.000 Cl
ATOM     11  C   UNL     1       2.317   6.919  19.573  0.00  0.00    +0.000 A 
BRANCH   8  12
ATOM     12  C   UNL     1       4.756   5.484  17.321  0.00  0.00    +0.000 A 
ATOM     13  C   UNL     1       5.949   6.214  17.359  0.00  0.00    +0.000 A 
ATOM     14  C   UNL     1       7.036   5.800  16.574  0.00  0.00    +0.000 A 
ATOM     15  C   UNL     1       6.921   4.693  15.728  0.00  0.00    +0.000 A 
ATOM     16  C   UNL     1       5.715   4.015  15.636  0.00  0.00    +0.000 A 
ATOM     17  C   UNL     1       4.633   4.418  16.416  0.00  0.00    +0.000 A 
ENDBRANCH   8  12
ENDBRANCH   1  11
BRANCH   3  18
ATOM     18  C   UNL     1       0.396  10.132  19.887  0.00  0.00    +0.000 C 
BRANCH  18  19
ATOM     19  C   UNL     1      -0.876  10.458  19.104  0.00  0.00    +0.000 A 
ATOM     20  C   UNL     1      -1.081  10.050  17.776  0.00  0.00    +0.000 A 
ATOM     21  C   UNL     1      -2.202  10.471  17.054  0.00  0.00    +0.000 A 
ATOM     22  C   UNL     1      -3.144  11.308  17.649  0.00  0.00    +0.000 A 
ATOM     23  C   UNL     1      -2.973  11.696  18.974  0.00  0.00    +0.000 A 
ATOM     24 BR   UNL     1      -4.249  12.830  19.785  0.00  0.00    +0.000 Br
ATOM     25  C   UNL     1      -1.856  11.274  19.701  0.00  0.00    +0.000 A 
ENDBRANCH  18  19
BRANCH  18  26
ATOM     26  C   UNL     1       1.336  11.348  19.970  0.00  0.00    +0.000 C 
BRANCH  26  27
ATOM     27  C   UNL     1       1.519  12.051  18.646  0.00  0.00    +0.000 C 
ATOM     28  O   UNL     1       1.027  13.131  18.349  0.00  0.00    +0.000 OA
BRANCH  27  29
ATOM     29  O   UNL     1       2.237  11.325  17.757  0.00  0.00    +0.000 OA
ATOM     30  H   UNL     1       1.727  10.644  17.278  0.00  0.00    +0.000 HD
ENDBRANCH  27  29
ENDBRANCH  26  27
ENDBRANCH  18  26
ENDBRANCH   3  18
TORSDOF 7
ENDMDL
