MODEL 1
REMARK VINA RESULT:      -7.7      0.000      0.000
REMARK  Name = 
REMARK  2 active torsions:
REMARK  status: ('A' for Active; 'I' for Inactive)
REMARK    1  A    between atoms: C_1  and  O_2
REMARK    2  A    between atoms: O_2  and  C_3
REMARK                            x       y       z     vdW  Elec       q    Type
REMARK                         _______ _______ _______ _____ _____    ______ ____
ROOT
ATOM      1  C   UNL     1       5.517   3.355  12.254  0.00  0.00    +0.000 A 
ATOM      2  C   UNL     1       6.745   3.837  11.809  0.00  0.00    +0.000 A 
ATOM      3  C   UNL     1       7.573   4.586  12.650  0.00  0.00    +0.000 A 
ATOM      4  C   UNL     1       7.128   4.825  13.950  0.00  0.00    +0.000 A 
ATOM      5  N   UNL     1       7.690   5.602  14.932  0.00  0.00    +0.000 N 
ATOM      6  C   UNL     1       6.898   5.612  16.058  0.00  0.00    +0.000 A 
ATOM      7  C   UNL     1       7.050   6.351  17.235  0.00  0.00    +0.000 A 
ATOM      8  C   UNL     1       6.106   6.157  18.248  0.00  0.00    +0.000 A 
ATOM      9  C   UNL     1       5.087   5.208  18.126  0.00  0.00    +0.000 A 
ATOM     10  C   UNL     1       4.181   4.977  19.167  0.00  0.00    +0.000 A 
ATOM     11  C   UNL     1       3.232   3.977  19.021  0.00  0.00    +0.000 A 
ATOM     12  N   UNL     1       3.124   3.196  17.929  0.00  0.00    +0.000 NA
ATOM     13  C   UNL     1       3.986   3.450  16.915  0.00  0.00    +0.000 A 
ATOM     14  C   UNL     1       4.969   4.450  16.937  0.00  0.00    +0.000 A 
ATOM     15  C   UNL     1       5.855   4.712  15.843  0.00  0.00    +0.000 A 
ATOM     16  C   UNL     1       5.943   4.299  14.465  0.00  0.00    +0.000 A 
ATOM     17  C   UNL     1       5.118   3.562  13.583  0.00  0.00    +0.000 A 
ATOM     18  H   UNL     1       8.535   6.133  14.824  0.00  0.00    +0.000 HD
ENDROOT
BRANCH   1  20
ATOM     19  C   UNL     1       3.714   3.514  10.722  0.00  0.00    +0.000 C 
ATOM     20  O   UNL     1       4.618   2.692  11.460  0.00  0.00    +0.000 OA
ENDBRANCH   1  20
TORSDOF 1
ENDMDL
MODEL 2
REMARK VINA RESULT:      -7.7      4.092      7.145
REMARK  Name = 
REMARK  2 active torsions:
REMARK  status: ('A' for Active; 'I' for Inactive)
REMARK    1  A    between atoms: C_1  and  O_2
REMARK    2  A    between atoms: O_2  and  C_3
REMARK                            x       y       z     vdW  Elec       q    Type
REMARK                         _______ _______ _______ _____ _____    ______ ____
ROOT
ATOM      1  C   UNL     1       1.392   9.355  18.985  0.00  0.00    +0.000 A 
ATOM      2  C   UNL     1       0.986   9.072  20.286  0.00  0.00    +0.000 A 
ATOM      3  C   UNL     1       1.338   7.871  20.907  0.00  0.00    +0.000 A 
ATOM      4  C   UNL     1       2.118   6.972  20.180  0.00  0.00    +0.000 A 
ATOM      5  N   UNL     1       2.514   5.700  20.510  0.00  0.00    +0.000 N 
ATOM      6  C   UNL     1       3.232   5.131  19.482  0.00  0.00    +0.000 A 
ATOM      7  C   UNL     1       3.726   3.828  19.369  0.00  0.00    +0.000 A 
ATOM      8  C   UNL     1       4.451   3.509  18.217  0.00  0.00    +0.000 A 
ATOM      9  C   UNL     1       4.741   4.470  17.245  0.00  0.00    +0.000 A 
ATOM     10  C   UNL     1       5.518   4.159  16.123  0.00  0.00    +0.000 A 
ATOM     11  C   UNL     1       5.832   5.167  15.224  0.00  0.00    +0.000 A 
ATOM     12  N   UNL     1       5.438   6.447  15.361  0.00  0.00    +0.000 NA
ATOM     13  C   UNL     1       4.661   6.730  16.434  0.00  0.00    +0.000 A 
ATOM     14  C   UNL     1       4.256   5.791  17.394  0.00  0.00    +0.000 A 
ATOM     15  C   UNL     1       3.416   6.112  18.508  0.00  0.00    +0.000 A 
ATOM     16  C   UNL     1       2.614   7.243  18.905  0.00  0.00    +0.000 A 
ATOM     17  C   UNL     1       2.222   8.458  18.296  0.00  0.00    +0.000 A 
ATOM     18  H   UNL     1       2.266   5.229  21.362  0.00  0.00    +0.000 HD
ENDROOT
BRANCH   1  20
ATOM     19  C   UNL     1      -0.208  11.082  18.706  0.00  0.00    +0.000 C 
ATOM     20  O   UNL     1       1.011  10.469  18.285  0.00  0.00    +0.000 OA
ENDBRANCH   1  20
TORSDOF 1
ENDMDL
MODEL 3
REMARK VINA RESULT:      -7.6      2.273      3.944
REMARK  Name = 
REMARK  2 active torsions:
REMARK  status: ('A' for Active; 'I' for Inactive)
REMARK    1  A    between atoms: C_1  and  O_2
REMARK    2  A    between atoms: O_2  and  C_3
REMARK                            x       y       z     vdW  Elec       q    Type
REMARK                         _______ _______ _______ _____ _____    ______ ____
ROOT
ATOM      1  C   UNL     1       5.615   4.527  15.410  0.00  0.00    +0.000 A 
ATOM      2  C   UNL     1       5.686   5.853  14.994  0.00  0.00    +0.000 A 
ATOM      3  C   UNL     1       5.067   6.873  15.724  0.00  0.00    +0.000 A 
ATOM      4  C   UNL     1       4.384   6.513  16.886  0.00  0.00    +0.000 A 
ATOM      5  N   UNL     1       3.618   7.289  17.719  0.00  0.00    +0.000 N 
ATOM      6  C   UNL     1       3.073   6.527  18.728  0.00  0.00    +0.000 A 
ATOM      7  C   UNL     1       2.159   6.902  19.718  0.00  0.00    +0.000 A 
ATOM      8  C   UNL     1       1.779   5.931  20.649  0.00  0.00    +0.000 A 
ATOM      9  C   UNL     1       2.341   4.651  20.642  0.00  0.00    +0.000 A 
ATOM     10  C   UNL     1       2.000   3.701  21.612  0.00  0.00    +0.000 A 
ATOM     11  C   UNL     1       2.638   2.471  21.600  0.00  0.00    +0.000 A 
ATOM     12  N   UNL     1       3.583   2.122  20.706  0.00  0.00    +0.000 NA
ATOM     13  C   UNL     1       3.883   3.038  19.753  0.00  0.00    +0.000 A 
ATOM     14  C   UNL     1       3.286   4.302  19.648  0.00  0.00    +0.000 A 
ATOM     15  C   UNL     1       3.606   5.244  18.618  0.00  0.00    +0.000 A 
ATOM     16  C   UNL     1       4.350   5.210  17.383  0.00  0.00    +0.000 A 
ATOM     17  C   UNL     1       4.969   4.199  16.612  0.00  0.00    +0.000 A 
ATOM     18  H   UNL     1       3.436   8.266  17.579  0.00  0.00    +0.000 HD
ENDROOT
BRANCH   1  20
ATOM     19  C   UNL     1       6.223   3.660  13.289  0.00  0.00    +0.000 C 
ATOM     20  O   UNL     1       6.120   3.470  14.700  0.00  0.00    +0.000 OA
ENDBRANCH   1  20
TORSDOF 1
ENDMDL
MODEL 4
REMARK VINA RESULT:      -7.6      2.904      4.730
REMARK  Name = 
REMARK  2 active torsions:
REMARK  status: ('A' for Active; 'I' for Inactive)
REMARK    1  A    between atoms: C_1  and  O_2
REMARK    2  A    between atoms: O_2  and  C_3
REMARK                            x       y       z     vdW  Elec       q    Type
REMARK                         _______ _______ _______ _____ _____    ______ ____
ROOT
ATOM      1  C   UNL     1       6.932   6.013  16.414  0.00  0.00    +0.000 A 
ATOM      2  C   UNL     1       7.192   5.006  15.489  0.00  0.00    +0.000 A 
ATOM      3  C   UNL     1       6.413   3.846  15.447  0.00  0.00    +0.000 A 
ATOM      4  C   UNL     1       5.363   3.740  16.359  0.00  0.00    +0.000 A 
ATOM      5  N   UNL     1       4.521   2.682  16.595  0.00  0.00    +0.000 N 
ATOM      6  C   UNL     1       3.653   2.970  17.625  0.00  0.00    +0.000 A 
ATOM      7  C   UNL     1       2.713   2.140  18.243  0.00  0.00    +0.000 A 
ATOM      8  C   UNL     1       1.933   2.692  19.262  0.00  0.00    +0.000 A 
ATOM      9  C   UNL     1       2.030   4.043  19.607  0.00  0.00    +0.000 A 
ATOM     10  C   UNL     1       1.204   4.604  20.588  0.00  0.00    +0.000 A 
ATOM     11  C   UNL     1       1.294   5.964  20.844  0.00  0.00    +0.000 A 
ATOM     12  N   UNL     1       2.134   6.796  20.199  0.00  0.00    +0.000 NA
ATOM     13  C   UNL     1       2.949   6.237  19.273  0.00  0.00    +0.000 A 
ATOM     14  C   UNL     1       2.968   4.873  18.949  0.00  0.00    +0.000 A 
ATOM     15  C   UNL     1       3.856   4.303  17.981  0.00  0.00    +0.000 A 
ATOM     16  C   UNL     1       5.016   4.753  17.252  0.00  0.00    +0.000 A 
ATOM     17  C   UNL     1       5.835   5.905  17.284  0.00  0.00    +0.000 A 
ATOM     18  H   UNL     1       4.568   1.799  16.119  0.00  0.00    +0.000 HD
ENDROOT
BRANCH   1  20
ATOM     19  C   UNL     1       7.771   7.665  17.894  0.00  0.00    +0.000 C 
ATOM     20  O   UNL     1       7.706   7.132  16.571  0.00  0.00    +0.000 OA
ENDBRANCH   1  20
TORSDOF 1
ENDMDL
MODEL 5
REMARK VINA RESULT:      -7.5      3.595      5.458
REMARK  Name = 
REMARK  2 active torsions:
REMARK  status: ('A' for Active; 'I' for Inactive)
REMARK    1  A    between atoms: C_1  and  O_2
REMARK    2  A    between atoms: O_2  and  C_3
REMARK                            x       y       z     vdW  Elec       q    Type
REMARK                         _______ _______ _______ _____ _____    ______ ____
ROOT
ATOM      1  C   UNL     1       5.328   5.336  15.992  0.00  0.00    +0.000 A 
ATOM      2  C   UNL     1       5.281   4.004  16.393  0.00  0.00    +0.000 A 
ATOM      3  C   UNL     1       4.497   3.604  17.479  0.00  0.00    +0.000 A 
ATOM      4  C   UNL     1       3.757   4.585  18.138  0.00  0.00    +0.000 A 
ATOM      5  N   UNL     1       2.996   4.482  19.276  0.00  0.00    +0.000 N 
ATOM      6  C   UNL     1       2.475   5.708  19.625  0.00  0.00    +0.000 A 
ATOM      7  C   UNL     1       1.738   6.060  20.760  0.00  0.00    +0.000 A 
ATOM      8  C   UNL     1       1.303   7.384  20.865  0.00  0.00    +0.000 A 
ATOM      9  C   UNL     1       1.529   8.311  19.843  0.00  0.00    +0.000 A 
ATOM     10  C   UNL     1       1.041   9.620  19.927  0.00  0.00    +0.000 A 
ATOM     11  C   UNL     1       1.234  10.478  18.856  0.00  0.00    +0.000 A 
ATOM     12  N   UNL     1       1.867  10.132  17.719  0.00  0.00    +0.000 NA
ATOM     13  C   UNL     1       2.363   8.873  17.661  0.00  0.00    +0.000 A 
ATOM     14  C   UNL     1       2.253   7.926  18.690  0.00  0.00    +0.000 A 
ATOM     15  C   UNL     1       2.805   6.607  18.612  0.00  0.00    +0.000 A 
ATOM     16  C   UNL     1       3.711   5.917  17.728  0.00  0.00    +0.000 A 
ATOM     17  C   UNL     1       4.531   6.294  16.639  0.00  0.00    +0.000 A 
ATOM     18  H   UNL     1       2.881   3.640  19.810  0.00  0.00    +0.000 HD
ENDROOT
BRANCH   1  20
ATOM     19  C   UNL     1       7.044   4.867  14.426  0.00  0.00    +0.000 C 
ATOM     20  O   UNL     1       6.140   5.812  14.998  0.00  0.00    +0.000 OA
ENDBRANCH   1  20
TORSDOF 1
ENDMDL
MODEL 6
REMARK VINA RESULT:      -7.3      1.031      1.149
REMARK  Name = 
REMARK  2 active torsions:
REMARK  status: ('A' for Active; 'I' for Inactive)
REMARK    1  A    between atoms: C_1  and  O_2
REMARK    2  A    between atoms: O_2  and  C_3
REMARK                            x       y       z     vdW  Elec       q    Type
REMARK                         _______ _______ _______ _____ _____    ______ ____
ROOT
ATOM      1  C   UNL     1       5.885   3.364  12.455  0.00  0.00    +0.000 A 
ATOM      2  C   UNL     1       7.122   3.981  12.297  0.00  0.00    +0.000 A 
ATOM      3  C   UNL     1       7.640   4.825  13.285  0.00  0.00    +0.000 A 
ATOM      4  C   UNL     1       6.875   5.017  14.435  0.00  0.00    +0.000 A 
ATOM      5  N   UNL     1       7.099   5.859  15.496  0.00  0.00    +0.000 N 
ATOM      6  C   UNL     1       6.066   5.784  16.403  0.00  0.00    +0.000 A 
ATOM      7  C   UNL     1       5.851   6.541  17.558  0.00  0.00    +0.000 A 
ATOM      8  C   UNL     1       4.721   6.246  18.326  0.00  0.00    +0.000 A 
ATOM      9  C   UNL     1       3.871   5.186  17.999  0.00  0.00    +0.000 A 
ATOM     10  C   UNL     1       2.774   4.858  18.803  0.00  0.00    +0.000 A 
ATOM     11  C   UNL     1       2.003   3.755  18.470  0.00  0.00    +0.000 A 
ATOM     12  N   UNL     1       2.244   2.962  17.409  0.00  0.00    +0.000 NA
ATOM     13  C   UNL     1       3.290   3.307  16.620  0.00  0.00    +0.000 A 
ATOM     14  C   UNL     1       4.123   4.413  16.840  0.00  0.00    +0.000 A 
ATOM     15  C   UNL     1       5.209   4.769  15.978  0.00  0.00    +0.000 A 
ATOM     16  C   UNL     1       5.667   4.362  14.673  0.00  0.00    +0.000 A 
ATOM     17  C   UNL     1       5.161   3.531  13.646  0.00  0.00    +0.000 A 
ATOM     18  H   UNL     1       7.881   6.483  15.573  0.00  0.00    +0.000 HD
ENDROOT
BRANCH   1  20
ATOM     19  C   UNL     1       5.915   1.358  11.192  0.00  0.00    +0.000 C 
ATOM     20  O   UNL     1       5.278   2.599  11.494  0.00  0.00    +0.000 OA
ENDBRANCH   1  20
TORSDOF 1
ENDMDL
MODEL 7
REMARK VINA RESULT:      -7.3      4.854      7.230
REMARK  Name = 
REMARK  2 active torsions:
REMARK  status: ('A' for Active; 'I' for Inactive)
REMARK    1  A    between atoms: C_1  and  O_2
REMARK    2  A    between atoms: O_2  and  C_3
REMARK                            x       y       z     vdW  Elec       q    Type
REMARK                         _______ _______ _______ _____ _____    ______ ____
ROOT
ATOM      1  C   UNL     1       1.026   9.387  20.149  0.00  0.00    +0.000 A 
ATOM      2  C   UNL     1       1.262  10.066  18.956  0.00  0.00    +0.000 A 
ATOM      3  C   UNL     1       2.004   9.479  17.927  0.00  0.00    +0.000 A 
ATOM      4  C   UNL     1       2.490   8.188  18.136  0.00  0.00    +0.000 A 
ATOM      5  N   UNL     1       3.317   7.433  17.343  0.00  0.00    +0.000 N 
ATOM      6  C   UNL     1       3.602   6.228  17.945  0.00  0.00    +0.000 A 
ATOM      7  C   UNL     1       4.477   5.220  17.529  0.00  0.00    +0.000 A 
ATOM      8  C   UNL     1       4.567   4.072  18.321  0.00  0.00    +0.000 A 
ATOM      9  C   UNL     1       3.761   3.898  19.450  0.00  0.00    +0.000 A 
ATOM     10  C   UNL     1       3.813   2.721  20.206  0.00  0.00    +0.000 A 
ATOM     11  C   UNL     1       2.944   2.572  21.276  0.00  0.00    +0.000 A 
ATOM     12  N   UNL     1       2.035   3.495  21.641  0.00  0.00    +0.000 NA
ATOM     13  C   UNL     1       2.014   4.643  20.921  0.00  0.00    +0.000 A 
ATOM     14  C   UNL     1       2.861   4.918  19.837  0.00  0.00    +0.000 A 
ATOM     15  C   UNL     1       2.834   6.149  19.106  0.00  0.00    +0.000 A 
ATOM     16  C   UNL     1       2.215   7.440  19.280  0.00  0.00    +0.000 A 
ATOM     17  C   UNL     1       1.479   8.069  20.311  0.00  0.00    +0.000 A 
ATOM     18  H   UNL     1       3.705   7.739  16.469  0.00  0.00    +0.000 HD
ENDROOT
BRANCH   1  20
ATOM     19  C   UNL     1       0.688   9.345  22.495  0.00  0.00    +0.000 C 
ATOM     20  O   UNL     1       0.386   9.933  21.230  0.00  0.00    +0.000 OA
ENDBRANCH   1  20
TORSDOF 1
ENDMDL
MODEL 8
REMARK VINA RESULT:      -7.3      1.707      3.015
REMARK  Name = 
REMARK  2 active torsions:
REMARK  status: ('A' for Active; 'I' for Inactive)
REMARK    1  A    between atoms: C_1  and  O_2
REMARK    2  A    between atoms: O_2  and  C_3
REMARK                            x       y       z     vdW  Elec       q    Type
REMARK                         _______ _______ _______ _____ _____    ______ ____
ROOT
ATOM      1  C   UNL     1       6.050   4.068  14.436  0.00  0.00    +0.000 A 
ATOM      2  C   UNL     1       7.036   5.011  14.714  0.00  0.00    +0.000 A 
ATOM      3  C   UNL     1       6.978   5.796  15.869  0.00  0.00    +0.000 A 
ATOM      4  C   UNL     1       5.904   5.593  16.735  0.00  0.00    +0.000 A 
ATOM      5  N   UNL     1       5.559   6.285  17.869  0.00  0.00    +0.000 N 
ATOM      6  C   UNL     1       4.388   5.794  18.402  0.00  0.00    +0.000 A 
ATOM      7  C   UNL     1       3.643   6.275  19.483  0.00  0.00    +0.000 A 
ATOM      8  C   UNL     1       2.490   5.570  19.839  0.00  0.00    +0.000 A 
ATOM      9  C   UNL     1       2.126   4.386  19.190  0.00  0.00    +0.000 A 
ATOM     10  C   UNL     1       1.003   3.654  19.589  0.00  0.00    +0.000 A 
ATOM     11  C   UNL     1       0.726   2.452  18.957  0.00  0.00    +0.000 A 
ATOM     12  N   UNL     1       1.480   1.930  17.971  0.00  0.00    +0.000 NA
ATOM     13  C   UNL     1       2.548   2.662  17.572  0.00  0.00    +0.000 A 
ATOM     14  C   UNL     1       2.911   3.902  18.117  0.00  0.00    +0.000 A 
ATOM     15  C   UNL     1       4.032   4.667  17.662  0.00  0.00    +0.000 A 
ATOM     16  C   UNL     1       4.935   4.609  16.539  0.00  0.00    +0.000 A 
ATOM     17  C   UNL     1       5.010   3.846  15.351  0.00  0.00    +0.000 A 
ATOM     18  H   UNL     1       6.062   7.076  18.229  0.00  0.00    +0.000 HD
ENDROOT
BRANCH   1  20
ATOM     19  C   UNL     1       6.788   3.811  12.197  0.00  0.00    +0.000 C 
ATOM     20  O   UNL     1       5.995   3.330  13.283  0.00  0.00    +0.000 OA
ENDBRANCH   1  20
TORSDOF 1
ENDMDL
MODEL 9
REMARK VINA RESULT:      -7.2      5.261      7.984
REMARK  Name = 
REMARK  2 active torsions:
REMARK  status: ('A' for Active; 'I' for Inactive)
REMARK    1  A    between atoms: C_1  and  O_2
REMARK    2  A    between atoms: O_2  and  C_3
REMARK                            x       y       z     vdW  Elec       q    Type
REMARK                         _______ _______ _______ _____ _____    ______ ____
ROOT
ATOM      1  C   UNL     1       0.631   9.199  21.517  0.00  0.00    +0.000 A 
ATOM      2  C   UNL     1       0.584  10.139  20.492  0.00  0.00    +0.000 A 
ATOM      3  C   UNL     1       1.171   9.882  19.249  0.00  0.00    +0.000 A 
ATOM      4  C   UNL     1       1.798   8.648  19.074  0.00  0.00    +0.000 A 
ATOM      5  N   UNL     1       2.526   8.188  18.006  0.00  0.00    +0.000 N 
ATOM      6  C   UNL     1       3.021   6.928  18.261  0.00  0.00    +0.000 A 
ATOM      7  C   UNL     1       3.889   6.150  17.488  0.00  0.00    +0.000 A 
ATOM      8  C   UNL     1       4.223   4.881  17.970  0.00  0.00    +0.000 A 
ATOM      9  C   UNL     1       3.657   4.371  19.142  0.00  0.00    +0.000 A 
ATOM     10  C   UNL     1       3.951   3.078  19.588  0.00  0.00    +0.000 A 
ATOM     11  C   UNL     1       3.310   2.597  20.720  0.00  0.00    +0.000 A 
ATOM     12  N   UNL     1       2.407   3.300  21.429  0.00  0.00    +0.000 NA
ATOM     13  C   UNL     1       2.154   4.562  21.006  0.00  0.00    +0.000 A 
ATOM     14  C   UNL     1       2.759   5.165  19.894  0.00  0.00    +0.000 A 
ATOM     15  C   UNL     1       2.491   6.509  19.480  0.00  0.00    +0.000 A 
ATOM     16  C   UNL     1       1.805   7.646  20.044  0.00  0.00    +0.000 A 
ATOM     17  C   UNL     1       1.220   7.944  21.297  0.00  0.00    +0.000 A 
ATOM     18  H   UNL     1       2.718   8.719  17.176  0.00  0.00    +0.000 HD
ENDROOT
BRANCH   1  20
ATOM     19  C   UNL     1      -0.785  10.481  22.921  0.00  0.00    +0.000 C 
ATOM     20  O   UNL     1       0.157   9.418  22.784  0.00  0.00    +0.000 OA
ENDBRANCH   1  20
TORSDOF 1
ENDMDL
