MODEL 1
REMARK VINA RESULT:      -7.5      0.000      0.000
REMARK  Name = 
REMARK  7 active torsions:
REMARK  status: ('A' for Active; 'I' for Inactive)
REMARK    1  A    between atoms: C_1  and  C_2
REMARK    2  A    between atoms: C_4  and  C_5
REMARK    3  A    between atoms: C_5  and  N_6
REMARK    4  A    between atoms: N_6  and  C_7
REMARK    5  A    between atoms: N_10  and  C_11
REMARK    6  A    between atoms: C_11  and  C_12
REMARK    7  A    between atoms: C_11  and  C_13
REMARK                            x       y       z     vdW  Elec       q    Type
REMARK                         _______ _______ _______ _____ _____    ______ ____
ROOT
ATOM      1  N   UNL     1       6.346   5.625  17.608  0.00  0.00    +0.000 N 
ATOM      2  C   UNL     1       6.823   6.997  17.507  0.00  0.00    +0.000 C 
ATOM      3  C   UNL     1       5.070   5.279  18.028  0.00  0.00    +0.000 C 
ATOM      4  O   UNL     1       4.679   4.115  18.085  0.00  0.00    +0.000 OA
ATOM      5  N   UNL     1       4.252   6.336  18.336  0.00  0.00    +0.000 N 
ATOM      6  H   UNL     1       4.679   7.227  18.511  0.00  0.00    +0.000 HD
ENDROOT
BRANCH   5   7
ATOM      7  C   UNL     1       2.897   6.158  18.837  0.00  0.00    +0.000 C 
ATOM      8  C   UNL     1       2.914   5.373  20.151  0.00  0.00    +0.000 C 
BRANCH   7   9
ATOM      9  C   UNL     1       2.202   7.502  19.012  0.00  0.00    +0.000 A 
ATOM     10  C   UNL     1       2.054   8.410  17.948  0.00  0.00    +0.000 A 
ATOM     11  C   UNL     1       1.441   9.652  18.144  0.00  0.00    +0.000 A 
ATOM     12  C   UNL     1       0.976  10.010  19.407  0.00  0.00    +0.000 A 
ATOM     13  C   UNL     1       1.089   9.108  20.469  0.00  0.00    +0.000 A 
ATOM     14  C   UNL     1       1.705   7.871  20.275  0.00  0.00    +0.000 A 
ATOM     15  O   UNL     1       0.635   9.381  21.734  0.00  0.00    +0.000 OA
ATOM     16  C   UNL     1      -0.244  10.512  21.746  0.00  0.00    +0.000 C 
ATOM     17  C   UNL     1       0.320  11.644  20.907  0.00  0.00    +0.000 C 
ATOM     18  O   UNL     1       0.421  11.257  19.532  0.00  0.00    +0.000 OA
ENDBRANCH   7   9
ENDBRANCH   5   7
BRANCH   1  19
ATOM     19  C   UNL     1       7.202   4.581  17.045  0.00  0.00    +0.000 C 
BRANCH  19  23
ATOM     20  C   UNL     1       7.995   5.654  12.258  0.00  0.00    +0.000 C 
ATOM     21  C   UNL     1       7.404   4.975  13.446  0.00  0.00    +0.000 A 
ATOM     22  N   UNL     1       7.786   5.179  14.688  0.00  0.00    +0.000 NA
ATOM     23  C   UNL     1       7.007   4.423  15.564  0.00  0.00    +0.000 A 
ATOM     24  C   UNL     1       6.055   3.637  14.941  0.00  0.00    +0.000 A 
ATOM     25  S   UNL     1       6.118   3.855  13.243  0.00  0.00    +0.000 S 
ENDBRANCH  19  23
ENDBRANCH   1  19
TORSDOF 4
ENDMDL
MODEL 2
REMARK VINA RESULT:      -7.4      3.574      8.574
REMARK  Name = 
REMARK  7 active torsions:
REMARK  status: ('A' for Active; 'I' for Inactive)
REMARK    1  A    between atoms: C_1  and  C_2
REMARK    2  A    between atoms: C_4  and  C_5
REMARK    3  A    between atoms: C_5  and  N_6
REMARK    4  A    between atoms: N_6  and  C_7
REMARK    5  A    between atoms: N_10  and  C_11
REMARK    6  A    between atoms: C_11  and  C_12
REMARK    7  A    between atoms: C_11  and  C_13
REMARK                            x       y       z     vdW  Elec       q    Type
REMARK                         _______ _______ _______ _____ _____    ______ ____
ROOT
ATOM      1  N   UNL     1       1.436   8.917  19.415  0.00  0.00    +0.000 N 
ATOM      2  C   UNL     1       1.739   9.417  18.082  0.00  0.00    +0.000 C 
ATOM      3  C   UNL     1       1.889   7.703  19.908  0.00  0.00    +0.000 C 
ATOM      4  O   UNL     1       1.640   7.309  21.045  0.00  0.00    +0.000 OA
ATOM      5  N   UNL     1       2.679   6.984  19.047  0.00  0.00    +0.000 N 
ATOM      6  H   UNL     1       2.649   7.219  18.072  0.00  0.00    +0.000 HD
ENDROOT
BRANCH   5   7
ATOM      7  C   UNL     1       3.205   5.668  19.379  0.00  0.00    +0.000 C 
ATOM      8  C   UNL     1       2.110   4.607  19.242  0.00  0.00    +0.000 C 
BRANCH   7   9
ATOM      9  C   UNL     1       4.406   5.328  18.508  0.00  0.00    +0.000 A 
ATOM     10  C   UNL     1       5.711   5.255  19.031  0.00  0.00    +0.000 A 
ATOM     11  C   UNL     1       6.802   4.973  18.203  0.00  0.00    +0.000 A 
ATOM     12  C   UNL     1       6.609   4.769  16.839  0.00  0.00    +0.000 A 
ATOM     13  C   UNL     1       5.317   4.808  16.308  0.00  0.00    +0.000 A 
ATOM     14  C   UNL     1       4.229   5.094  17.133  0.00  0.00    +0.000 A 
ATOM     15  O   UNL     1       5.047   4.596  14.980  0.00  0.00    +0.000 OA
ATOM     16  C   UNL     1       6.164   4.007  14.303  0.00  0.00    +0.000 C 
ATOM     17  C   UNL     1       7.457   4.703  14.688  0.00  0.00    +0.000 C 
ATOM     18  O   UNL     1       7.728   4.535  16.084  0.00  0.00    +0.000 OA
ENDBRANCH   7   9
ENDBRANCH   5   7
BRANCH   1  19
ATOM     19  C   UNL     1       0.783   9.845  20.340  0.00  0.00    +0.000 C 
BRANCH  19  23
ATOM     20  C   UNL     1      -3.048  11.424  17.597  0.00  0.00    +0.000 C 
ATOM     21  C   UNL     1      -1.781  11.496  18.377  0.00  0.00    +0.000 A 
ATOM     22  N   UNL     1      -1.252  10.487  19.035  0.00  0.00    +0.000 NA
ATOM     23  C   UNL     1      -0.047  10.871  19.623  0.00  0.00    +0.000 A 
ATOM     24  C   UNL     1       0.293  12.194  19.406  0.00  0.00    +0.000 A 
ATOM     25  S   UNL     1      -0.894  12.965  18.441  0.00  0.00    +0.000 S 
ENDBRANCH  19  23
ENDBRANCH   1  19
TORSDOF 4
ENDMDL
MODEL 3
REMARK VINA RESULT:      -7.2      3.099      5.167
REMARK  Name = 
REMARK  7 active torsions:
REMARK  status: ('A' for Active; 'I' for Inactive)
REMARK    1  A    between atoms: C_1  and  C_2
REMARK    2  A    between atoms: C_4  and  C_5
REMARK    3  A    between atoms: C_5  and  N_6
REMARK    4  A    between atoms: N_6  and  C_7
REMARK    5  A    between atoms: N_10  and  C_11
REMARK    6  A    between atoms: C_11  and  C_12
REMARK    7  A    between atoms: C_11  and  C_13
REMARK                            x       y       z     vdW  Elec       q    Type
REMARK                         _______ _______ _______ _____ _____    ______ ____
ROOT
ATOM      1  N   UNL     1       2.414   7.338  19.286  0.00  0.00    +0.000 N 
ATOM      2  C   UNL     1       2.878   7.746  17.968  0.00  0.00    +0.000 C 
ATOM      3  C   UNL     1       1.609   8.122  20.099  0.00  0.00    +0.000 C 
ATOM      4  O   UNL     1       1.210   7.751  21.200  0.00  0.00    +0.000 OA
ATOM      5  N   UNL     1       1.249   9.334  19.567  0.00  0.00    +0.000 N 
ATOM      6  H   UNL     1       1.786   9.689  18.797  0.00  0.00    +0.000 HD
ENDROOT
BRANCH   5   7
ATOM      7  C   UNL     1       0.446  10.304  20.297  0.00  0.00    +0.000 C 
ATOM      8  C   UNL     1       1.304  11.502  20.710  0.00  0.00    +0.000 C 
BRANCH   7   9
ATOM      9  C   UNL     1      -0.753  10.749  19.472  0.00  0.00    +0.000 A 
ATOM     10  C   UNL     1      -1.703  11.661  19.967  0.00  0.00    +0.000 A 
ATOM     11  C   UNL     1      -2.814  12.028  19.200  0.00  0.00    +0.000 A 
ATOM     12  C   UNL     1      -2.997  11.483  17.932  0.00  0.00    +0.000 A 
ATOM     13  C   UNL     1      -2.048  10.599  17.413  0.00  0.00    +0.000 A 
ATOM     14  C   UNL     1      -0.942  10.229  18.179  0.00  0.00    +0.000 A 
ATOM     15  O   UNL     1      -2.150  10.040  16.164  0.00  0.00    +0.000 OA
ATOM     16  C   UNL     1      -3.123  10.719  15.361  0.00  0.00    +0.000 C 
ATOM     17  C   UNL     1      -4.390  10.982  16.154  0.00  0.00    +0.000 C 
ATOM     18  O   UNL     1      -4.128  11.860  17.254  0.00  0.00    +0.000 OA
ENDBRANCH   7   9
ENDBRANCH   5   7
BRANCH   1  19
ATOM     19  C   UNL     1       2.654   5.948  19.675  0.00  0.00    +0.000 C 
BRANCH  19  23
ATOM     20  C   UNL     1       7.216   4.895  18.008  0.00  0.00    +0.000 C 
ATOM     21  C   UNL     1       5.728   4.867  18.083  0.00  0.00    +0.000 A 
ATOM     22  N   UNL     1       5.017   5.453  19.022  0.00  0.00    +0.000 NA
ATOM     23  C   UNL     1       3.655   5.274  18.781  0.00  0.00    +0.000 A 
ATOM     24  C   UNL     1       3.373   4.522  17.655  0.00  0.00    +0.000 A 
ATOM     25  S   UNL     1       4.823   4.047  16.875  0.00  0.00    +0.000 S 
ENDBRANCH  19  23
ENDBRANCH   1  19
TORSDOF 4
ENDMDL
MODEL 4
REMARK VINA RESULT:      -7.2      0.792      1.558
REMARK  Name = 
REMARK  7 active torsions:
REMARK  status: ('A' for Active; 'I' for Inactive)
REMARK    1  A    between atoms: C_1  and  C_2
REMARK    2  A    between atoms: C_4  and  C_5
REMARK    3  A    between atoms: C_5  and  N_6
REMARK    4  A    between atoms: N_6  and  C_7
REMARK    5  A    between atoms: N_10  and  C_11
REMARK    6  A    between atoms: C_11  and  C_12
REMARK    7  A    between atoms: C_11  and  C_13
REMARK                            x       y       z     vdW  Elec       q    Type
REMARK                         _______ _______ _______ _____ _____    ______ ____
ROOT
ATOM      1  N   UNL     1       6.202   5.686  17.736  0.00  0.00    +0.000 N 
ATOM      2  C   UNL     1       6.508   7.091  17.509  0.00  0.00    +0.000 C 
ATOM      3  C   UNL     1       4.999   5.231  18.256  0.00  0.00    +0.000 C 
ATOM      4  O   UNL     1       4.752   4.039  18.420  0.00  0.00    +0.000 OA
ATOM      5  N   UNL     1       4.078   6.209  18.536  0.00  0.00    +0.000 N 
ATOM      6  H   UNL     1       4.406   7.154  18.620  0.00  0.00    +0.000 HD
ENDROOT
BRANCH   5   7
ATOM      7  C   UNL     1       2.782   5.918  19.128  0.00  0.00    +0.000 C 
ATOM      8  C   UNL     1       2.934   4.925  20.283  0.00  0.00    +0.000 C 
BRANCH   7   9
ATOM      9  C   UNL     1       2.098   7.196  19.594  0.00  0.00    +0.000 A 
ATOM     10  C   UNL     1       1.497   7.302  20.862  0.00  0.00    +0.000 A 
ATOM     11  C   UNL     1       0.847   8.477  21.253  0.00  0.00    +0.000 A 
ATOM     12  C   UNL     1       0.778   9.560  20.381  0.00  0.00    +0.000 A 
ATOM     13  C   UNL     1       1.395   9.483  19.129  0.00  0.00    +0.000 A 
ATOM     14  C   UNL     1       2.040   8.309  18.737  0.00  0.00    +0.000 A 
ATOM     15  O   UNL     1       1.388  10.516  18.226  0.00  0.00    +0.000 OA
ATOM     16  C   UNL     1       0.992  11.749  18.840  0.00  0.00    +0.000 C 
ATOM     17  C   UNL     1      -0.219  11.544  19.732  0.00  0.00    +0.000 C 
ATOM     18  O   UNL     1       0.093  10.664  20.817  0.00  0.00    +0.000 OA
ENDBRANCH   7   9
ENDBRANCH   5   7
BRANCH   1  19
ATOM     19  C   UNL     1       7.145   4.705  17.200  0.00  0.00    +0.000 C 
BRANCH  19  23
ATOM     20  C   UNL     1       7.954   5.579  12.376  0.00  0.00    +0.000 C 
ATOM     21  C   UNL     1       7.362   4.948  13.589  0.00  0.00    +0.000 A 
ATOM     22  N   UNL     1       7.737   5.207  14.823  0.00  0.00    +0.000 NA
ATOM     23  C   UNL     1       6.958   4.484  15.726  0.00  0.00    +0.000 A 
ATOM     24  C   UNL     1       6.014   3.665  15.133  0.00  0.00    +0.000 A 
ATOM     25  S   UNL     1       6.084   3.811  13.427  0.00  0.00    +0.000 S 
ENDBRANCH  19  23
ENDBRANCH   1  19
TORSDOF 4
ENDMDL
MODEL 5
REMARK VINA RESULT:      -7.1      3.508      8.436
REMARK  Name = 
REMARK  7 active torsions:
REMARK  status: ('A' for Active; 'I' for Inactive)
REMARK    1  A    between atoms: C_1  and  C_2
REMARK    2  A    between atoms: C_4  and  C_5
REMARK    3  A    between atoms: C_5  and  N_6
REMARK    4  A    between atoms: N_6  and  C_7
REMARK    5  A    between atoms: N_10  and  C_11
REMARK    6  A    between atoms: C_11  and  C_12
REMARK    7  A    between atoms: C_11  and  C_13
REMARK                            x       y       z     vdW  Elec       q    Type
REMARK                         _______ _______ _______ _____ _____    ______ ____
ROOT
ATOM      1  N   UNL     1       1.368   9.016  19.364  0.00  0.00    +0.000 N 
ATOM      2  C   UNL     1       1.580   9.420  17.982  0.00  0.00    +0.000 C 
ATOM      3  C   UNL     1       1.854   7.837  19.909  0.00  0.00    +0.000 C 
ATOM      4  O   UNL     1       1.683   7.524  21.084  0.00  0.00    +0.000 OA
ATOM      5  N   UNL     1       2.583   7.055  19.048  0.00  0.00    +0.000 N 
ATOM      6  H   UNL     1       2.487   7.223  18.063  0.00  0.00    +0.000 HD
ENDROOT
BRANCH   5   7
ATOM      7  C   UNL     1       3.130   5.763  19.434  0.00  0.00    +0.000 C 
ATOM      8  C   UNL     1       2.053   4.679  19.339  0.00  0.00    +0.000 C 
BRANCH   7   9
ATOM      9  C   UNL     1       4.340   5.408  18.582  0.00  0.00    +0.000 A 
ATOM     10  C   UNL     1       5.639   5.345  19.119  0.00  0.00    +0.000 A 
ATOM     11  C   UNL     1       6.739   5.049  18.306  0.00  0.00    +0.000 A 
ATOM     12  C   UNL     1       6.559   4.821  16.944  0.00  0.00    +0.000 A 
ATOM     13  C   UNL     1       5.272   4.851  16.400  0.00  0.00    +0.000 A 
ATOM     14  C   UNL     1       4.176   5.151  17.209  0.00  0.00    +0.000 A 
ATOM     15  O   UNL     1       5.015   4.616  15.073  0.00  0.00    +0.000 OA
ATOM     16  C   UNL     1       6.139   4.016  14.417  0.00  0.00    +0.000 C 
ATOM     17  C   UNL     1       7.428   4.719  14.803  0.00  0.00    +0.000 C 
ATOM     18  O   UNL     1       7.686   4.575  16.204  0.00  0.00    +0.000 OA
ENDBRANCH   7   9
ENDBRANCH   5   7
BRANCH   1  19
ATOM     19  C   UNL     1       0.780  10.009  20.264  0.00  0.00    +0.000 C 
BRANCH  19  23
ATOM     20  C   UNL     1       2.017  14.658  19.020  0.00  0.00    +0.000 C 
ATOM     21  C   UNL     1       1.199  13.415  19.093  0.00  0.00    +0.000 A 
ATOM     22  N   UNL     1       1.596  12.292  19.653  0.00  0.00    +0.000 NA
ATOM     23  C   UNL     1       0.582  11.337  19.591  0.00  0.00    +0.000 A 
ATOM     24  C   UNL     1      -0.567  11.769  18.952  0.00  0.00    +0.000 A 
ATOM     25  S   UNL     1      -0.388  13.393  18.437  0.00  0.00    +0.000 S 
ENDBRANCH  19  23
ENDBRANCH   1  19
TORSDOF 4
ENDMDL
MODEL 6
REMARK VINA RESULT:      -7.1      0.964      1.168
REMARK  Name = 
REMARK  7 active torsions:
REMARK  status: ('A' for Active; 'I' for Inactive)
REMARK    1  A    between atoms: C_1  and  C_2
REMARK    2  A    between atoms: C_4  and  C_5
REMARK    3  A    between atoms: C_5  and  N_6
REMARK    4  A    between atoms: N_6  and  C_7
REMARK    5  A    between atoms: N_10  and  C_11
REMARK    6  A    between atoms: C_11  and  C_12
REMARK    7  A    between atoms: C_11  and  C_13
REMARK                            x       y       z     vdW  Elec       q    Type
REMARK                         _______ _______ _______ _____ _____    ______ ____
ROOT
ATOM      1  N   UNL     1       6.362   5.401  17.345  0.00  0.00    +0.000 N 
ATOM      2  C   UNL     1       6.926   6.741  17.425  0.00  0.00    +0.000 C 
ATOM      3  C   UNL     1       5.071   5.080  17.736  0.00  0.00    +0.000 C 
ATOM      4  O   UNL     1       4.607   3.947  17.641  0.00  0.00    +0.000 OA
ATOM      5  N   UNL     1       4.325   6.134  18.202  0.00  0.00    +0.000 N 
ATOM      6  H   UNL     1       4.810   6.964  18.489  0.00  0.00    +0.000 HD
ENDROOT
BRANCH   5   7
ATOM      7  C   UNL     1       2.967   5.973  18.698  0.00  0.00    +0.000 C 
ATOM      8  C   UNL     1       2.969   5.191  20.014  0.00  0.00    +0.000 C 
BRANCH   7   9
ATOM      9  C   UNL     1       2.287   7.325  18.867  0.00  0.00    +0.000 A 
ATOM     10  C   UNL     1       2.121   8.217  17.791  0.00  0.00    +0.000 A 
ATOM     11  C   UNL     1       1.523   9.467  17.981  0.00  0.00    +0.000 A 
ATOM     12  C   UNL     1       1.090   9.849  19.248  0.00  0.00    +0.000 A 
ATOM     13  C   UNL     1       1.220   8.964  20.321  0.00  0.00    +0.000 A 
ATOM     14  C   UNL     1       1.821   7.718  20.134  0.00  0.00    +0.000 A 
ATOM     15  O   UNL     1       0.798   9.261  21.592  0.00  0.00    +0.000 OA
ATOM     16  C   UNL     1      -0.072  10.400  21.605  0.00  0.00    +0.000 C 
ATOM     17  C   UNL     1       0.482  11.513  20.735  0.00  0.00    +0.000 C 
ATOM     18  O   UNL     1       0.548  11.102  19.365  0.00  0.00    +0.000 OA
ENDBRANCH   7   9
ENDBRANCH   5   7
BRANCH   1  19
ATOM     19  C   UNL     1       7.145   4.393  16.629  0.00  0.00    +0.000 C 
BRANCH  19  23
ATOM     20  C   UNL     1       5.261   3.152  12.201  0.00  0.00    +0.000 C 
ATOM     21  C   UNL     1       6.105   3.875  13.194  0.00  0.00    +0.000 A 
ATOM     22  N   UNL     1       6.030   3.711  14.497  0.00  0.00    +0.000 NA
ATOM     23  C   UNL     1       6.982   4.501  15.139  0.00  0.00    +0.000 A 
ATOM     24  C   UNL     1       7.748   5.274  14.285  0.00  0.00    +0.000 A 
ATOM     25  S   UNL     1       7.289   4.998  12.658  0.00  0.00    +0.000 S 
ENDBRANCH  19  23
ENDBRANCH   1  19
TORSDOF 4
ENDMDL
MODEL 7
REMARK VINA RESULT:      -7.0      3.908      5.903
REMARK  Name = 
REMARK  7 active torsions:
REMARK  status: ('A' for Active; 'I' for Inactive)
REMARK    1  A    between atoms: C_1  and  C_2
REMARK    2  A    between atoms: C_4  and  C_5
REMARK    3  A    between atoms: C_5  and  N_6
REMARK    4  A    between atoms: N_6  and  C_7
REMARK    5  A    between atoms: N_10  and  C_11
REMARK    6  A    between atoms: C_11  and  C_12
REMARK    7  A    between atoms: C_11  and  C_13
REMARK                            x       y       z     vdW  Elec       q    Type
REMARK                         _______ _______ _______ _____ _____    ______ ____
ROOT
ATOM      1  N   UNL     1       2.075   7.889  19.355  0.00  0.00    +0.000 N 
ATOM      2  C   UNL     1       2.621   7.830  18.007  0.00  0.00    +0.000 C 
ATOM      3  C   UNL     1       1.296   8.934  19.830  0.00  0.00    +0.000 C 
ATOM      4  O   UNL     1       0.827   8.955  20.965  0.00  0.00    +0.000 OA
ATOM      5  N   UNL     1       1.047   9.932  18.922  0.00  0.00    +0.000 N 
ATOM      6  H   UNL     1       1.639   9.993  18.114  0.00  0.00    +0.000 HD
ENDROOT
BRANCH   5   7
ATOM      7  C   UNL     1       0.287  11.126  19.260  0.00  0.00    +0.000 C 
ATOM      8  C   UNL     1       0.999  12.376  18.737  0.00  0.00    +0.000 C 
BRANCH   7   9
ATOM      9  C   UNL     1      -1.132  11.039  18.716  0.00  0.00    +0.000 A 
ATOM     10  C   UNL     1      -1.468  10.204  17.634  0.00  0.00    +0.000 A 
ATOM     11  C   UNL     1      -2.773  10.167  17.133  0.00  0.00    +0.000 A 
ATOM     12  C   UNL     1      -3.760  10.971  17.697  0.00  0.00    +0.000 A 
ATOM     13  C   UNL     1      -3.452  11.784  18.791  0.00  0.00    +0.000 A 
ATOM     14  C   UNL     1      -2.148  11.824  19.288  0.00  0.00    +0.000 A 
ATOM     15  O   UNL     1      -4.375  12.585  19.412  0.00  0.00    +0.000 OA
ATOM     16  C   UNL     1      -5.714  12.233  19.040  0.00  0.00    +0.000 C 
ATOM     17  C   UNL     1      -5.818  12.017  17.541  0.00  0.00    +0.000 C 
ATOM     18  O   UNL     1      -5.006  10.911  17.130  0.00  0.00    +0.000 OA
ENDBRANCH   7   9
ENDBRANCH   5   7
BRANCH   1  19
ATOM     19  C   UNL     1       2.199   6.684  20.176  0.00  0.00    +0.000 C 
BRANCH  19  23
ATOM     20  C   UNL     1       2.493   2.472  17.555  0.00  0.00    +0.000 C 
ATOM     21  C   UNL     1       2.960   3.677  18.297  0.00  0.00    +0.000 A 
ATOM     22  N   UNL     1       2.166   4.609  18.780  0.00  0.00    +0.000 NA
ATOM     23  C   UNL     1       2.912   5.576  19.454  0.00  0.00    +0.000 A 
ATOM     24  C   UNL     1       4.277   5.353  19.438  0.00  0.00    +0.000 A 
ATOM     25  S   UNL     1       4.636   3.909  18.589  0.00  0.00    +0.000 S 
ENDBRANCH  19  23
ENDBRANCH   1  19
TORSDOF 4
ENDMDL
MODEL 8
REMARK VINA RESULT:      -6.9      4.243      9.520
REMARK  Name = 
REMARK  7 active torsions:
REMARK  status: ('A' for Active; 'I' for Inactive)
REMARK    1  A    between atoms: C_1  and  C_2
REMARK    2  A    between atoms: C_4  and  C_5
REMARK    3  A    between atoms: C_5  and  N_6
REMARK    4  A    between atoms: N_6  and  C_7
REMARK    5  A    between atoms: N_10  and  C_11
REMARK    6  A    between atoms: C_11  and  C_12
REMARK    7  A    between atoms: C_11  and  C_13
REMARK                            x       y       z     vdW  Elec       q    Type
REMARK                         _______ _______ _______ _____ _____    ______ ____
ROOT
ATOM      1  N   UNL     1       0.461   9.714  21.441  0.00  0.00    +0.000 N 
ATOM      2  C   UNL     1       1.368   9.252  22.482  0.00  0.00    +0.000 C 
ATOM      3  C   UNL     1       0.590   9.384  20.100  0.00  0.00    +0.000 C 
ATOM      4  O   UNL     1      -0.199   9.766  19.240  0.00  0.00    +0.000 OA
ATOM      5  N   UNL     1       1.645   8.557  19.804  0.00  0.00    +0.000 N 
ATOM      6  H   UNL     1       2.384   8.477  20.477  0.00  0.00    +0.000 HD
ENDROOT
BRANCH   5   7
ATOM      7  C   UNL     1       1.959   8.146  18.444  0.00  0.00    +0.000 C 
ATOM      8  C   UNL     1       2.330   9.362  17.592  0.00  0.00    +0.000 C 
BRANCH   7   9
ATOM      9  C   UNL     1       3.076   7.111  18.434  0.00  0.00    +0.000 A 
ATOM     10  C   UNL     1       3.169   6.104  19.413  0.00  0.00    +0.000 A 
ATOM     11  C   UNL     1       4.224   5.185  19.400  0.00  0.00    +0.000 A 
ATOM     12  C   UNL     1       5.206   5.264  18.416  0.00  0.00    +0.000 A 
ATOM     13  C   UNL     1       5.113   6.239  17.419  0.00  0.00    +0.000 A 
ATOM     14  C   UNL     1       4.063   7.159  17.435  0.00  0.00    +0.000 A 
ATOM     15  O   UNL     1       6.030   6.364  16.406  0.00  0.00    +0.000 OA
ATOM     16  C   UNL     1       6.861   5.202  16.302  0.00  0.00    +0.000 C 
ATOM     17  C   UNL     1       7.336   4.753  17.672  0.00  0.00    +0.000 C 
ATOM     18  O   UNL     1       6.229   4.355  18.489  0.00  0.00    +0.000 OA
ENDBRANCH   7   9
ENDBRANCH   5   7
BRANCH   1  19
ATOM     19  C   UNL     1      -0.757  10.398  21.876  0.00  0.00    +0.000 C 
BRANCH  19  23
ATOM     20  C   UNL     1      -1.458  14.734  24.201  0.00  0.00    +0.000 C 
ATOM     21  C   UNL     1      -0.910  13.767  23.208  0.00  0.00    +0.000 A 
ATOM     22  N   UNL     1      -1.155  12.474  23.211  0.00  0.00    +0.000 NA
ATOM     23  C   UNL     1      -0.528  11.861  22.127  0.00  0.00    +0.000 A 
ATOM     24  C   UNL     1       0.207  12.724  21.334  0.00  0.00    +0.000 A 
ATOM     25  S   UNL     1       0.101  14.324  21.936  0.00  0.00    +0.000 S 
ENDBRANCH  19  23
ENDBRANCH   1  19
TORSDOF 4
ENDMDL
MODEL 9
REMARK VINA RESULT:      -6.9      4.003      5.883
REMARK  Name = 
REMARK  7 active torsions:
REMARK  status: ('A' for Active; 'I' for Inactive)
REMARK    1  A    between atoms: C_1  and  C_2
REMARK    2  A    between atoms: C_4  and  C_5
REMARK    3  A    between atoms: C_5  and  N_6
REMARK    4  A    between atoms: N_6  and  C_7
REMARK    5  A    between atoms: N_10  and  C_11
REMARK    6  A    between atoms: C_11  and  C_12
REMARK    7  A    between atoms: C_11  and  C_13
REMARK                            x       y       z     vdW  Elec       q    Type
REMARK                         _______ _______ _______ _____ _____    ______ ____
ROOT
ATOM      1  N   UNL     1       1.984   7.475  19.890  0.00  0.00    +0.000 N 
ATOM      2  C   UNL     1       2.471   7.573  18.521  0.00  0.00    +0.000 C 
ATOM      3  C   UNL     1       1.316   8.497  20.547  0.00  0.00    +0.000 C 
ATOM      4  O   UNL     1       0.894   8.388  21.696  0.00  0.00    +0.000 OA
ATOM      5  N   UNL     1       1.119   9.635  19.806  0.00  0.00    +0.000 N 
ATOM      6  H   UNL     1       1.683   9.768  18.987  0.00  0.00    +0.000 HD
ENDROOT
BRANCH   5   7
ATOM      7  C   UNL     1       0.477  10.823  20.349  0.00  0.00    +0.000 C 
ATOM      8  C   UNL     1       1.448  12.007  20.334  0.00  0.00    +0.000 C 
BRANCH   7   9
ATOM      9  C   UNL     1      -0.797  11.151  19.583  0.00  0.00    +0.000 A 
ATOM     10  C   UNL     1      -1.816  11.949  20.136  0.00  0.00    +0.000 A 
ATOM     11  C   UNL     1      -2.991  12.208  19.424  0.00  0.00    +0.000 A 
ATOM     12  C   UNL     1      -3.171  11.667  18.154  0.00  0.00    +0.000 A 
ATOM     13  C   UNL     1      -2.158  10.897  17.577  0.00  0.00    +0.000 A 
ATOM     14  C   UNL     1      -0.986  10.634  18.290  0.00  0.00    +0.000 A 
ATOM     15  O   UNL     1      -2.254  10.349  16.323  0.00  0.00    +0.000 OA
ATOM     16  C   UNL     1      -3.327  10.933  15.575  0.00  0.00    +0.000 C 
ATOM     17  C   UNL     1      -4.579  11.047  16.425  0.00  0.00    +0.000 C 
ATOM     18  O   UNL     1      -4.363  11.931  17.531  0.00  0.00    +0.000 OA
ENDBRANCH   7   9
ENDBRANCH   5   7
BRANCH   1  19
ATOM     19  C   UNL     1       2.035   6.157  20.521  0.00  0.00    +0.000 C 
BRANCH  19  23
ATOM     20  C   UNL     1       2.617   2.164  17.620  0.00  0.00    +0.000 C 
ATOM     21  C   UNL     1       2.998   3.358  18.426  0.00  0.00    +0.000 A 
ATOM     22  N   UNL     1       2.141   4.180  18.993  0.00  0.00    +0.000 NA
ATOM     23  C   UNL     1       2.820   5.168  19.707  0.00  0.00    +0.000 A 
ATOM     24  C   UNL     1       4.198   5.073  19.637  0.00  0.00    +0.000 A 
ATOM     25  S   UNL     1       4.656   3.725  18.684  0.00  0.00    +0.000 S 
ENDBRANCH  19  23
ENDBRANCH   1  19
TORSDOF 4
ENDMDL
