MODEL 1
REMARK VINA RESULT:      -7.4      0.000      0.000
REMARK  Name = 
REMARK  9 active torsions:
REMARK  status: ('A' for Active; 'I' for Inactive)
REMARK    1  A    between atoms: C_1  and  C_2
REMARK    2  A    between atoms: C_2  and  O_3
REMARK    3  A    between atoms: O_3  and  C_4
REMARK    4  A    between atoms: C_4  and  C_6
REMARK    5  A    between atoms: C_9  and  N_10
REMARK    6  A    between atoms: N_10  and  C_11
REMARK    7  A    between atoms: C_11  and  C_12
REMARK    8  A    between atoms: C_12  and  C_13
REMARK    9  A    between atoms: C_13  and  C_14
REMARK                            x       y       z     vdW  Elec       q    Type
REMARK                         _______ _______ _______ _____ _____    ______ ____
ROOT
ATOM      1  N   UNL     1       6.091   7.286  17.352  0.00  0.00    +0.000 N 
ATOM      2  H   UNL     1       5.641   8.003  17.921  0.00  0.00    +0.000 HD
ENDROOT
BRANCH   1   6
ATOM      3  C   UNL     1       4.004   3.661  17.905  0.00  0.00    +0.000 A 
ATOM      4  C   UNL     1       4.304   4.093  16.609  0.00  0.00    +0.000 A 
ATOM      5  C   UNL     1       4.997   5.287  16.405  0.00  0.00    +0.000 A 
ATOM      6  C   UNL     1       5.408   6.073  17.486  0.00  0.00    +0.000 A 
ATOM      7  C   UNL     1       5.124   5.619  18.781  0.00  0.00    +0.000 A 
ATOM      8  C   UNL     1       4.421   4.428  18.996  0.00  0.00    +0.000 A 
BRANCH   3   9
ATOM      9  C   UNL     1       3.191   2.425  18.047  0.00  0.00    +0.000 C 
ATOM     10  O   UNL     1       3.674   1.328  18.280  0.00  0.00    +0.000 OA
BRANCH   9  11
ATOM     11  O   UNL     1       1.888   2.686  17.781  0.00  0.00    +0.000 OA
BRANCH  11  13
ATOM     12  C   UNL     1       0.933   3.288  19.888  0.00  0.00    +0.000 C 
ATOM     13  C   UNL     1       0.966   2.245  18.785  0.00  0.00    +0.000 C 
ENDBRANCH  11  13
ENDBRANCH   9  11
ENDBRANCH   3   9
ENDBRANCH   1   6
BRANCH   1  14
ATOM     14  C   UNL     1       7.544   7.298  17.471  0.00  0.00    +0.000 C 
BRANCH  14  15
ATOM     15  C   UNL     1       8.026   8.734  17.669  0.00  0.00    +0.000 C 
BRANCH  15  16
ATOM     16  C   UNL     1       8.640   8.901  19.060  0.00  0.00    +0.000 C 
BRANCH  16  17
ATOM     17  C   UNL     1       9.342  10.226  19.211  0.00  0.00    +0.000 A 
ATOM     18  C   UNL     1       9.556  10.772  20.483  0.00  0.00    +0.000 A 
ATOM     19  C   UNL     1      10.203  12.003  20.622  0.00  0.00    +0.000 A 
ATOM     20  C   UNL     1      10.636  12.703  19.493  0.00  0.00    +0.000 A 
ATOM     21 CL   UNL     1      11.429  14.218  19.741  0.00  0.00    +0.000 Cl
ATOM     22  C   UNL     1      10.417  12.171  18.219  0.00  0.00    +0.000 A 
ATOM     23 CL   UNL     1      10.920  12.978  16.776  0.00  0.00    +0.000 Cl
ATOM     24  C   UNL     1       9.769  10.939  18.081  0.00  0.00    +0.000 A 
ENDBRANCH  16  17
ENDBRANCH  15  16
ENDBRANCH  14  15
ENDBRANCH   1  14
TORSDOF 8
ENDMDL
MODEL 2
REMARK VINA RESULT:      -7.3      5.897      8.066
REMARK  Name = 
REMARK  9 active torsions:
REMARK  status: ('A' for Active; 'I' for Inactive)
REMARK    1  A    between atoms: C_1  and  C_2
REMARK    2  A    between atoms: C_2  and  O_3
REMARK    3  A    between atoms: O_3  and  C_4
REMARK    4  A    between atoms: C_4  and  C_6
REMARK    5  A    between atoms: C_9  and  N_10
REMARK    6  A    between atoms: N_10  and  C_11
REMARK    7  A    between atoms: C_11  and  C_12
REMARK    8  A    between atoms: C_12  and  C_13
REMARK    9  A    between atoms: C_13  and  C_14
REMARK                            x       y       z     vdW  Elec       q    Type
REMARK                         _______ _______ _______ _____ _____    ______ ____
ROOT
ATOM      1  N   UNL     1       7.594   5.151  16.634  0.00  0.00    +0.000 N 
ATOM      2  H   UNL     1       8.598   4.973  16.599  0.00  0.00    +0.000 HD
ENDROOT
BRANCH   1   6
ATOM      3  C   UNL     1       5.860   3.652  13.092  0.00  0.00    +0.000 A 
ATOM      4  C   UNL     1       5.299   3.318  14.329  0.00  0.00    +0.000 A 
ATOM      5  C   UNL     1       5.855   3.807  15.512  0.00  0.00    +0.000 A 
ATOM      6  C   UNL     1       6.978   4.640  15.487  0.00  0.00    +0.000 A 
ATOM      7  C   UNL     1       7.518   4.987  14.242  0.00  0.00    +0.000 A 
ATOM      8  C   UNL     1       6.975   4.494  13.050  0.00  0.00    +0.000 A 
BRANCH   3   9
ATOM      9  C   UNL     1       5.270   3.029  11.879  0.00  0.00    +0.000 C 
ATOM     10  O   UNL     1       5.649   1.963  11.420  0.00  0.00    +0.000 OA
BRANCH   9  11
ATOM     11  O   UNL     1       4.350   3.857  11.325  0.00  0.00    +0.000 OA
BRANCH  11  13
ATOM     12  C   UNL     1       2.844   4.223   9.506  0.00  0.00    +0.000 C 
ATOM     13  C   UNL     1       3.371   3.209  10.504  0.00  0.00    +0.000 C 
ENDBRANCH  11  13
ENDBRANCH   9  11
ENDBRANCH   3   9
ENDBRANCH   1   6
BRANCH   1  14
ATOM     14  C   UNL     1       7.273   6.506  17.066  0.00  0.00    +0.000 C 
BRANCH  14  15
ATOM     15  C   UNL     1       6.244   6.450  18.192  0.00  0.00    +0.000 C 
BRANCH  15  16
ATOM     16  C   UNL     1       4.827   6.536  17.622  0.00  0.00    +0.000 C 
BRANCH  16  17
ATOM     17  C   UNL     1       3.857   5.672  18.385  0.00  0.00    +0.000 A 
ATOM     18  C   UNL     1       2.988   6.242  19.324  0.00  0.00    +0.000 A 
ATOM     19  C   UNL     1       2.092   5.439  20.035  0.00  0.00    +0.000 A 
ATOM     20  C   UNL     1       2.060   4.058  19.820  0.00  0.00    +0.000 A 
ATOM     21 CL   UNL     1       0.927   3.129  20.735  0.00  0.00    +0.000 Cl
ATOM     22  C   UNL     1       2.931   3.479  18.894  0.00  0.00    +0.000 A 
ATOM     23 CL   UNL     1       2.953   1.780  18.576  0.00  0.00    +0.000 Cl
ATOM     24  C   UNL     1       3.828   4.284  18.182  0.00  0.00    +0.000 A 
ENDBRANCH  16  17
ENDBRANCH  15  16
ENDBRANCH  14  15
ENDBRANCH   1  14
TORSDOF 8
ENDMDL
MODEL 3
REMARK VINA RESULT:      -7.2      0.974      1.946
REMARK  Name = 
REMARK  9 active torsions:
REMARK  status: ('A' for Active; 'I' for Inactive)
REMARK    1  A    between atoms: C_1  and  C_2
REMARK    2  A    between atoms: C_2  and  O_3
REMARK    3  A    between atoms: O_3  and  C_4
REMARK    4  A    between atoms: C_4  and  C_6
REMARK    5  A    between atoms: C_9  and  N_10
REMARK    6  A    between atoms: N_10  and  C_11
REMARK    7  A    between atoms: C_11  and  C_12
REMARK    8  A    between atoms: C_12  and  C_13
REMARK    9  A    between atoms: C_13  and  C_14
REMARK                            x       y       z     vdW  Elec       q    Type
REMARK                         _______ _______ _______ _____ _____    ______ ____
ROOT
ATOM      1  N   UNL     1       6.253   7.228  17.311  0.00  0.00    +0.000 N 
ATOM      2  H   UNL     1       5.703   8.062  17.514  0.00  0.00    +0.000 HD
ENDROOT
BRANCH   1   6
ATOM      3  C   UNL     1       4.137   3.764  18.462  0.00  0.00    +0.000 A 
ATOM      4  C   UNL     1       5.050   4.341  19.352  0.00  0.00    +0.000 A 
ATOM      5  C   UNL     1       5.757   5.490  18.991  0.00  0.00    +0.000 A 
ATOM      6  C   UNL     1       5.567   6.087  17.741  0.00  0.00    +0.000 A 
ATOM      7  C   UNL     1       4.633   5.515  16.868  0.00  0.00    +0.000 A 
ATOM      8  C   UNL     1       3.926   4.358  17.215  0.00  0.00    +0.000 A 
BRANCH   3   9
ATOM      9  C   UNL     1       3.482   2.496  18.877  0.00  0.00    +0.000 C 
ATOM     10  O   UNL     1       3.320   1.548  18.124  0.00  0.00    +0.000 OA
BRANCH   9  11
ATOM     11  O   UNL     1       3.017   2.599  20.146  0.00  0.00    +0.000 OA
BRANCH  11  13
ATOM     12  C   UNL     1       0.938   3.776  20.160  0.00  0.00    +0.000 C 
ATOM     13  C   UNL     1       1.603   2.418  20.288  0.00  0.00    +0.000 C 
ENDBRANCH  11  13
ENDBRANCH   9  11
ENDBRANCH   3   9
ENDBRANCH   1   6
BRANCH   1  14
ATOM     14  C   UNL     1       7.662   7.380  17.658  0.00  0.00    +0.000 C 
BRANCH  14  15
ATOM     15  C   UNL     1       8.003   8.866  17.752  0.00  0.00    +0.000 C 
BRANCH  15  16
ATOM     16  C   UNL     1       8.841   9.140  19.002  0.00  0.00    +0.000 C 
BRANCH  16  17
ATOM     17  C   UNL     1       9.345  10.559  19.043  0.00  0.00    +0.000 A 
ATOM     18  C   UNL     1       9.843  11.167  17.884  0.00  0.00    +0.000 A 
ATOM     19  C   UNL     1      10.315  12.482  17.925  0.00  0.00    +0.000 A 
ATOM     20  C   UNL     1      10.301  13.200  19.125  0.00  0.00    +0.000 A 
ATOM     21 CL   UNL     1      10.900  14.819  19.099  0.00  0.00    +0.000 Cl
ATOM     22  C   UNL     1       9.816  12.597  20.288  0.00  0.00    +0.000 A 
ATOM     23 CL   UNL     1       9.769  13.417  21.809  0.00  0.00    +0.000 Cl
ATOM     24  C   UNL     1       9.343  11.281  20.247  0.00  0.00    +0.000 A 
ENDBRANCH  16  17
ENDBRANCH  15  16
ENDBRANCH  14  15
ENDBRANCH   1  14
TORSDOF 8
ENDMDL
MODEL 4
REMARK VINA RESULT:      -7.2      6.063      8.222
REMARK  Name = 
REMARK  9 active torsions:
REMARK  status: ('A' for Active; 'I' for Inactive)
REMARK    1  A    between atoms: C_1  and  C_2
REMARK    2  A    between atoms: C_2  and  O_3
REMARK    3  A    between atoms: O_3  and  C_4
REMARK    4  A    between atoms: C_4  and  C_6
REMARK    5  A    between atoms: C_9  and  N_10
REMARK    6  A    between atoms: N_10  and  C_11
REMARK    7  A    between atoms: C_11  and  C_12
REMARK    8  A    between atoms: C_12  and  C_13
REMARK    9  A    between atoms: C_13  and  C_14
REMARK                            x       y       z     vdW  Elec       q    Type
REMARK                         _______ _______ _______ _____ _____    ______ ____
ROOT
ATOM      1  N   UNL     1       7.371   5.892  15.641  0.00  0.00    +0.000 N 
ATOM      2  H   UNL     1       7.023   6.843  15.529  0.00  0.00    +0.000 HD
ENDROOT
BRANCH   1   6
ATOM      3  C   UNL     1       5.865   3.405  12.583  0.00  0.00    +0.000 A 
ATOM      4  C   UNL     1       5.149   3.539  13.777  0.00  0.00    +0.000 A 
ATOM      5  C   UNL     1       5.628   4.360  14.800  0.00  0.00    +0.000 A 
ATOM      6  C   UNL     1       6.827   5.066  14.652  0.00  0.00    +0.000 A 
ATOM      7  C   UNL     1       7.523   4.943  13.443  0.00  0.00    +0.000 A 
ATOM      8  C   UNL     1       7.058   4.115  12.415  0.00  0.00    +0.000 A 
BRANCH   3   9
ATOM      9  C   UNL     1       5.342   2.450  11.572  0.00  0.00    +0.000 C 
ATOM     10  O   UNL     1       6.004   1.534  11.109  0.00  0.00    +0.000 OA
BRANCH   9  11
ATOM     11  O   UNL     1       4.095   2.812  11.183  0.00  0.00    +0.000 OA
BRANCH  11  13
ATOM     12  C   UNL     1       2.740   3.993   9.608  0.00  0.00    +0.000 C 
ATOM     13  C   UNL     1       4.028   4.017  10.410  0.00  0.00    +0.000 C 
ENDBRANCH  11  13
ENDBRANCH   9  11
ENDBRANCH   3   9
ENDBRANCH   1   6
BRANCH   1  14
ATOM     14  C   UNL     1       7.356   5.441  17.028  0.00  0.00    +0.000 C 
BRANCH  14  15
ATOM     15  C   UNL     1       6.389   6.307  17.833  0.00  0.00    +0.000 C 
BRANCH  15  16
ATOM     16  C   UNL     1       6.103   5.664  19.190  0.00  0.00    +0.000 C 
BRANCH  16  17
ATOM     17  C   UNL     1       4.793   4.919  19.197  0.00  0.00    +0.000 A 
ATOM     18  C   UNL     1       3.602   5.586  19.510  0.00  0.00    +0.000 A 
ATOM     19  C   UNL     1       2.388   4.893  19.521  0.00  0.00    +0.000 A 
ATOM     20  C   UNL     1       2.353   3.527  19.227  0.00  0.00    +0.000 A 
ATOM     21 CL   UNL     1       0.817   2.737  19.260  0.00  0.00    +0.000 Cl
ATOM     22  C   UNL     1       3.538   2.851  18.924  0.00  0.00    +0.000 A 
ATOM     23 CL   UNL     1       3.577   1.164  18.553  0.00  0.00    +0.000 Cl
ATOM     24  C   UNL     1       4.753   3.546  18.913  0.00  0.00    +0.000 A 
ENDBRANCH  16  17
ENDBRANCH  15  16
ENDBRANCH  14  15
ENDBRANCH   1  14
TORSDOF 8
ENDMDL
MODEL 5
REMARK VINA RESULT:      -7.2      4.737      7.477
REMARK  Name = 
REMARK  9 active torsions:
REMARK  status: ('A' for Active; 'I' for Inactive)
REMARK    1  A    between atoms: C_1  and  C_2
REMARK    2  A    between atoms: C_2  and  O_3
REMARK    3  A    between atoms: O_3  and  C_4
REMARK    4  A    between atoms: C_4  and  C_6
REMARK    5  A    between atoms: C_9  and  N_10
REMARK    6  A    between atoms: N_10  and  C_11
REMARK    7  A    between atoms: C_11  and  C_12
REMARK    8  A    between atoms: C_12  and  C_13
REMARK    9  A    between atoms: C_13  and  C_14
REMARK                            x       y       z     vdW  Elec       q    Type
REMARK                         _______ _______ _______ _____ _____    ______ ____
ROOT
ATOM      1  N   UNL     1       2.401   3.051  19.062  0.00  0.00    +0.000 N 
ATOM      2  H   UNL     1       2.662   2.589  19.932  0.00  0.00    +0.000 HD
ENDROOT
BRANCH   1   6
ATOM      3  C   UNL     1       5.752   4.629  17.040  0.00  0.00    +0.000 A 
ATOM      4  C   UNL     1       5.868   4.263  18.385  0.00  0.00    +0.000 A 
ATOM      5  C   UNL     1       4.772   3.735  19.071  0.00  0.00    +0.000 A 
ATOM      6  C   UNL     1       3.542   3.559  18.431  0.00  0.00    +0.000 A 
ATOM      7  C   UNL     1       3.444   3.906  17.077  0.00  0.00    +0.000 A 
ATOM      8  C   UNL     1       4.532   4.445  16.383  0.00  0.00    +0.000 A 
BRANCH   3   9
ATOM      9  C   UNL     1       6.932   5.262  16.396  0.00  0.00    +0.000 C 
ATOM     10  O   UNL     1       7.815   4.626  15.841  0.00  0.00    +0.000 OA
BRANCH   9  11
ATOM     11  O   UNL     1       6.922   6.601  16.607  0.00  0.00    +0.000 OA
BRANCH  11  13
ATOM     12  C   UNL     1       7.890   8.493  17.701  0.00  0.00    +0.000 C 
ATOM     13  C   UNL     1       7.534   7.023  17.832  0.00  0.00    +0.000 C 
ENDBRANCH  11  13
ENDBRANCH   9  11
ENDBRANCH   3   9
ENDBRANCH   1   6
BRANCH   1  14
ATOM     14  C   UNL     1       1.230   3.908  19.204  0.00  0.00    +0.000 C 
BRANCH  14  15
ATOM     15  C   UNL     1       1.278   4.613  20.558  0.00  0.00    +0.000 C 
BRANCH  15  16
ATOM     16  C   UNL     1       2.435   5.612  20.596  0.00  0.00    +0.000 C 
BRANCH  16  17
ATOM     17  C   UNL     1       2.030   6.966  20.071  0.00  0.00    +0.000 A 
ATOM     18  C   UNL     1       2.466   7.395  18.811  0.00  0.00    +0.000 A 
ATOM     19  C   UNL     1       2.094   8.652  18.328  0.00  0.00    +0.000 A 
ATOM     20  C   UNL     1       1.289   9.495  19.099  0.00  0.00    +0.000 A 
ATOM     21 CL   UNL     1       0.869  11.033  18.436  0.00  0.00    +0.000 Cl
ATOM     22  C   UNL     1       0.858   9.079  20.361  0.00  0.00    +0.000 A 
ATOM     23 CL   UNL     1      -0.136  10.064  21.375  0.00  0.00    +0.000 Cl
ATOM     24  C   UNL     1       1.231   7.819  20.845  0.00  0.00    +0.000 A 
ENDBRANCH  16  17
ENDBRANCH  15  16
ENDBRANCH  14  15
ENDBRANCH   1  14
TORSDOF 8
ENDMDL
MODEL 6
REMARK VINA RESULT:      -7.1      1.625      2.174
REMARK  Name = 
REMARK  9 active torsions:
REMARK  status: ('A' for Active; 'I' for Inactive)
REMARK    1  A    between atoms: C_1  and  C_2
REMARK    2  A    between atoms: C_2  and  O_3
REMARK    3  A    between atoms: O_3  and  C_4
REMARK    4  A    between atoms: C_4  and  C_6
REMARK    5  A    between atoms: C_9  and  N_10
REMARK    6  A    between atoms: N_10  and  C_11
REMARK    7  A    between atoms: C_11  and  C_12
REMARK    8  A    between atoms: C_12  and  C_13
REMARK    9  A    between atoms: C_13  and  C_14
REMARK                            x       y       z     vdW  Elec       q    Type
REMARK                         _______ _______ _______ _____ _____    ______ ____
ROOT
ATOM      1  N   UNL     1       6.772   7.332  16.975  0.00  0.00    +0.000 N 
ATOM      2  H   UNL     1       6.323   8.075  16.441  0.00  0.00    +0.000 HD
ENDROOT
BRANCH   1   6
ATOM      3  C   UNL     1       3.963   4.961  19.045  0.00  0.00    +0.000 A 
ATOM      4  C   UNL     1       3.513   5.935  18.147  0.00  0.00    +0.000 A 
ATOM      5  C   UNL     1       4.427   6.727  17.449  0.00  0.00    +0.000 A 
ATOM      6  C   UNL     1       5.804   6.563  17.629  0.00  0.00    +0.000 A 
ATOM      7  C   UNL     1       6.243   5.568  18.512  0.00  0.00    +0.000 A 
ATOM      8  C   UNL     1       5.336   4.775  19.224  0.00  0.00    +0.000 A 
BRANCH   3   9
ATOM      9  C   UNL     1       2.937   4.212  19.816  0.00  0.00    +0.000 C 
ATOM     10  O   UNL     1       2.190   4.738  20.626  0.00  0.00    +0.000 OA
BRANCH   9  11
ATOM     11  O   UNL     1       3.033   2.883  19.561  0.00  0.00    +0.000 OA
BRANCH  11  13
ATOM     12  C   UNL     1       0.877   2.338  18.686  0.00  0.00    +0.000 C 
ATOM     13  C   UNL     1       2.358   2.446  18.375  0.00  0.00    +0.000 C 
ENDBRANCH  11  13
ENDBRANCH   9  11
ENDBRANCH   3   9
ENDBRANCH   1   6
BRANCH   1  14
ATOM     14  C   UNL     1       7.935   7.794  17.724  0.00  0.00    +0.000 C 
BRANCH  14  15
ATOM     15  C   UNL     1       7.935   9.320  17.770  0.00  0.00    +0.000 C 
BRANCH  15  16
ATOM     16  C   UNL     1       9.060   9.824  18.676  0.00  0.00    +0.000 C 
BRANCH  16  17
ATOM     17  C   UNL     1       9.562  11.180  18.251  0.00  0.00    +0.000 A 
ATOM     18  C   UNL     1      10.901  11.355  17.881  0.00  0.00    +0.000 A 
ATOM     19  C   UNL     1      11.367  12.614  17.492  0.00  0.00    +0.000 A 
ATOM     20  C   UNL     1      10.502  13.711  17.476  0.00  0.00    +0.000 A 
ATOM     21 CL   UNL     1      11.147  15.236  16.984  0.00  0.00    +0.000 Cl
ATOM     22  C   UNL     1       9.166  13.549  17.854  0.00  0.00    +0.000 A 
ATOM     23 CL   UNL     1       8.037  14.857  17.863  0.00  0.00    +0.000 Cl
ATOM     24  C   UNL     1       8.701  12.288  18.243  0.00  0.00    +0.000 A 
ENDBRANCH  16  17
ENDBRANCH  15  16
ENDBRANCH  14  15
ENDBRANCH   1  14
TORSDOF 8
ENDMDL
MODEL 7
REMARK VINA RESULT:      -7.1      5.711      7.366
REMARK  Name = 
REMARK  9 active torsions:
REMARK  status: ('A' for Active; 'I' for Inactive)
REMARK    1  A    between atoms: C_1  and  C_2
REMARK    2  A    between atoms: C_2  and  O_3
REMARK    3  A    between atoms: O_3  and  C_4
REMARK    4  A    between atoms: C_4  and  C_6
REMARK    5  A    between atoms: C_9  and  N_10
REMARK    6  A    between atoms: N_10  and  C_11
REMARK    7  A    between atoms: C_11  and  C_12
REMARK    8  A    between atoms: C_12  and  C_13
REMARK    9  A    between atoms: C_13  and  C_14
REMARK                            x       y       z     vdW  Elec       q    Type
REMARK                         _______ _______ _______ _____ _____    ______ ____
ROOT
ATOM      1  N   UNL     1       5.248   4.084  19.372  0.00  0.00    +0.000 N 
ATOM      2  H   UNL     1       5.113   5.008  19.780  0.00  0.00    +0.000 HD
ENDROOT
BRANCH   1   6
ATOM      3  C   UNL     1       6.489   4.450  15.356  0.00  0.00    +0.000 A 
ATOM      4  C   UNL     1       5.163   4.108  15.638  0.00  0.00    +0.000 A 
ATOM      5  C   UNL     1       4.731   3.986  16.961  0.00  0.00    +0.000 A 
ATOM      6  C   UNL     1       5.610   4.205  18.026  0.00  0.00    +0.000 A 
ATOM      7  C   UNL     1       6.930   4.571  17.731  0.00  0.00    +0.000 A 
ATOM      8  C   UNL     1       7.376   4.687  16.410  0.00  0.00    +0.000 A 
BRANCH   3   9
ATOM      9  C   UNL     1       6.902   4.481  13.929  0.00  0.00    +0.000 C 
ATOM     10  O   UNL     1       7.431   5.448  13.403  0.00  0.00    +0.000 OA
BRANCH   9  11
ATOM     11  O   UNL     1       6.515   3.342  13.302  0.00  0.00    +0.000 OA
BRANCH  11  13
ATOM     12  C   UNL     1       5.535   2.249  11.417  0.00  0.00    +0.000 C 
ATOM     13  C   UNL     1       5.584   3.529  12.229  0.00  0.00    +0.000 C 
ENDBRANCH  11  13
ENDBRANCH   9  11
ENDBRANCH   3   9
ENDBRANCH   1   6
BRANCH   1  14
ATOM     14  C   UNL     1       4.198   3.142  19.741  0.00  0.00    +0.000 C 
BRANCH  14  15
ATOM     15  C   UNL     1       2.834   3.769  19.465  0.00  0.00    +0.000 C 
BRANCH  15  16
ATOM     16  C   UNL     1       2.498   4.804  20.540  0.00  0.00    +0.000 C 
BRANCH  16  17
ATOM     17  C   UNL     1       2.247   6.169  19.951  0.00  0.00    +0.000 A 
ATOM     18  C   UNL     1       2.602   6.443  18.625  0.00  0.00    +0.000 A 
ATOM     19  C   UNL     1       2.373   7.710  18.082  0.00  0.00    +0.000 A 
ATOM     20  C   UNL     1       1.793   8.717  18.859  0.00  0.00    +0.000 A 
ATOM     21 CL   UNL     1       1.540  10.258  18.121  0.00  0.00    +0.000 Cl
ATOM     22  C   UNL     1       1.445   8.455  20.187  0.00  0.00    +0.000 A 
ATOM     23 CL   UNL     1       0.729   9.647  21.212  0.00  0.00    +0.000 Cl
ATOM     24  C   UNL     1       1.676   7.186  20.730  0.00  0.00    +0.000 A 
ENDBRANCH  16  17
ENDBRANCH  15  16
ENDBRANCH  14  15
ENDBRANCH   1  14
TORSDOF 8
ENDMDL
MODEL 8
REMARK VINA RESULT:      -7.1      5.919      8.121
REMARK  Name = 
REMARK  9 active torsions:
REMARK  status: ('A' for Active; 'I' for Inactive)
REMARK    1  A    between atoms: C_1  and  C_2
REMARK    2  A    between atoms: C_2  and  O_3
REMARK    3  A    between atoms: O_3  and  C_4
REMARK    4  A    between atoms: C_4  and  C_6
REMARK    5  A    between atoms: C_9  and  N_10
REMARK    6  A    between atoms: N_10  and  C_11
REMARK    7  A    between atoms: C_11  and  C_12
REMARK    8  A    between atoms: C_12  and  C_13
REMARK    9  A    between atoms: C_13  and  C_14
REMARK                            x       y       z     vdW  Elec       q    Type
REMARK                         _______ _______ _______ _____ _____    ______ ____
ROOT
ATOM      1  N   UNL     1       7.568   5.811  15.935  0.00  0.00    +0.000 N 
ATOM      2  H   UNL     1       8.487   6.150  15.653  0.00  0.00    +0.000 HD
ENDROOT
BRANCH   1   6
ATOM      3  C   UNL     1       5.726   3.524  12.905  0.00  0.00    +0.000 A 
ATOM      4  C   UNL     1       6.938   4.170  12.640  0.00  0.00    +0.000 A 
ATOM      5  C   UNL     1       7.566   4.928  13.631  0.00  0.00    +0.000 A 
ATOM      6  C   UNL     1       7.001   5.055  14.904  0.00  0.00    +0.000 A 
ATOM      7  C   UNL     1       5.799   4.384  15.165  0.00  0.00    +0.000 A 
ATOM      8  C   UNL     1       5.157   3.630  14.177  0.00  0.00    +0.000 A 
BRANCH   3   9
ATOM      9  C   UNL     1       5.071   2.805  11.782  0.00  0.00    +0.000 C 
ATOM     10  O   UNL     1       5.620   1.925  11.137  0.00  0.00    +0.000 OA
BRANCH   9  11
ATOM     11  O   UNL     1       3.850   3.337  11.530  0.00  0.00    +0.000 OA
BRANCH  11  13
ATOM     12  C   UNL     1       2.890   4.357   9.594  0.00  0.00    +0.000 C 
ATOM     13  C   UNL     1       3.321   3.048  10.231  0.00  0.00    +0.000 C 
ENDBRANCH  11  13
ENDBRANCH   9  11
ENDBRANCH   3   9
ENDBRANCH   1   6
BRANCH   1  14
ATOM     14  C   UNL     1       6.761   6.835  16.589  0.00  0.00    +0.000 C 
BRANCH  14  15
ATOM     15  C   UNL     1       6.037   6.223  17.786  0.00  0.00    +0.000 C 
BRANCH  15  16
ATOM     16  C   UNL     1       4.564   6.636  17.783  0.00  0.00    +0.000 C 
BRANCH  16  17
ATOM     17  C   UNL     1       3.702   5.660  18.543  0.00  0.00    +0.000 A 
ATOM     18  C   UNL     1       2.808   6.116  19.519  0.00  0.00    +0.000 A 
ATOM     19  C   UNL     1       2.013   5.210  20.226  0.00  0.00    +0.000 A 
ATOM     20  C   UNL     1       2.109   3.839  19.970  0.00  0.00    +0.000 A 
ATOM     21 CL   UNL     1       1.095   2.779  20.882  0.00  0.00    +0.000 Cl
ATOM     22  C   UNL     1       3.006   3.374  19.005  0.00  0.00    +0.000 A 
ATOM     23 CL   UNL     1       3.184   1.695  18.635  0.00  0.00    +0.000 Cl
ATOM     24  C   UNL     1       3.802   4.282  18.297  0.00  0.00    +0.000 A 
ENDBRANCH  16  17
ENDBRANCH  15  16
ENDBRANCH  14  15
ENDBRANCH   1  14
TORSDOF 8
ENDMDL
MODEL 9
REMARK VINA RESULT:      -7.1      6.396      8.083
REMARK  Name = 
REMARK  9 active torsions:
REMARK  status: ('A' for Active; 'I' for Inactive)
REMARK    1  A    between atoms: C_1  and  C_2
REMARK    2  A    between atoms: C_2  and  O_3
REMARK    3  A    between atoms: O_3  and  C_4
REMARK    4  A    between atoms: C_4  and  C_6
REMARK    5  A    between atoms: C_9  and  N_10
REMARK    6  A    between atoms: N_10  and  C_11
REMARK    7  A    between atoms: C_11  and  C_12
REMARK    8  A    between atoms: C_12  and  C_13
REMARK    9  A    between atoms: C_13  and  C_14
REMARK                            x       y       z     vdW  Elec       q    Type
REMARK                         _______ _______ _______ _____ _____    ______ ____
ROOT
ATOM      1  N   UNL     1       2.946   5.941  18.921  0.00  0.00    +0.000 N 
ATOM      2  H   UNL     1       3.239   5.457  19.769  0.00  0.00    +0.000 HD
ENDROOT
BRANCH   1   6
ATOM      3  C   UNL     1       5.633   5.104  15.777  0.00  0.00    +0.000 A 
ATOM      4  C   UNL     1       4.731   4.120  16.192  0.00  0.00    +0.000 A 
ATOM      5  C   UNL     1       3.831   4.378  17.228  0.00  0.00    +0.000 A 
ATOM      6  C   UNL     1       3.809   5.621  17.868  0.00  0.00    +0.000 A 
ATOM      7  C   UNL     1       4.701   6.608  17.427  0.00  0.00    +0.000 A 
ATOM      8  C   UNL     1       5.614   6.357  16.397  0.00  0.00    +0.000 A 
BRANCH   3   9
ATOM      9  C   UNL     1       6.618   4.735  14.728  0.00  0.00    +0.000 C 
ATOM     10  O   UNL     1       7.608   5.403  14.472  0.00  0.00    +0.000 OA
BRANCH   9  11
ATOM     11  O   UNL     1       6.200   3.634  14.056  0.00  0.00    +0.000 OA
BRANCH  11  13
ATOM     12  C   UNL     1       5.153   3.216  11.949  0.00  0.00    +0.000 C 
ATOM     13  C   UNL     1       6.425   3.669  12.641  0.00  0.00    +0.000 C 
ENDBRANCH  11  13
ENDBRANCH   9  11
ENDBRANCH   3   9
ENDBRANCH   1   6
BRANCH   1  14
ATOM     14  C   UNL     1       2.600   7.338  19.155  0.00  0.00    +0.000 C 
BRANCH  14  15
ATOM     15  C   UNL     1       1.836   7.880  17.949  0.00  0.00    +0.000 C 
BRANCH  15  16
ATOM     16  C   UNL     1       1.983   9.400  17.866  0.00  0.00    +0.000 C 
BRANCH  16  17
ATOM     17  C   UNL     1       0.748  10.114  18.352  0.00  0.00    +0.000 A 
ATOM     18  C   UNL     1       0.842  11.093  19.349  0.00  0.00    +0.000 A 
ATOM     19  C   UNL     1      -0.305  11.751  19.802  0.00  0.00    +0.000 A 
ATOM     20  C   UNL     1      -1.557  11.434  19.268  0.00  0.00    +0.000 A 
ATOM     21 CL   UNL     1      -2.929  12.288  19.875  0.00  0.00    +0.000 Cl
ATOM     22  C   UNL     1      -1.662  10.452  18.279  0.00  0.00    +0.000 A 
ATOM     23 CL   UNL     1      -3.174  10.002  17.573  0.00  0.00    +0.000 Cl
ATOM     24  C   UNL     1      -0.513   9.793  17.827  0.00  0.00    +0.000 A 
ENDBRANCH  16  17
ENDBRANCH  15  16
ENDBRANCH  14  15
ENDBRANCH   1  14
TORSDOF 8
ENDMDL
