MODEL 1
REMARK VINA RESULT:      -6.2      0.000      0.000
REMARK  Name = 
REMARK  9 active torsions:
REMARK  status: ('A' for Active; 'I' for Inactive)
REMARK    1  A    between atoms: C_2  and  C_3
REMARK    2  A    between atoms: C_3  and  C_4
REMARK    3  A    between atoms: C_8  and  O_9
REMARK    4  A    between atoms: C_12  and  O_13
REMARK    5  A    between atoms: C_14  and  O_15
REMARK    6  A    between atoms: C_17  and  C_18
REMARK    7  A    between atoms: C_17  and  C_19
REMARK    8  A    between atoms: C_22  and  O_23
REMARK    9  A    between atoms: C_24  and  C_25
REMARK                            x       y       z     vdW  Elec       q    Type
REMARK                         _______ _______ _______ _____ _____    ______ ____
ROOT
ATOM      1  C   UNL     1       9.683  11.154  18.971  0.00  0.00    +0.000 C 
ATOM      2  C   UNL     1       9.631  11.218  20.506  0.00  0.00    +0.000 C 
ATOM      3  C   UNL     1      11.076  11.571  18.505  0.00  0.00    +0.000 C 
ATOM      4  C   UNL     1      11.202  13.063  18.837  0.00  0.00    +0.000 C 
ATOM      5  O   UNL     1      12.083  13.476  19.571  0.00  0.00    +0.000 OA
ATOM      6  C   UNL     1      10.133  13.974  18.240  0.00  0.00    +0.000 C 
ATOM      7  C   UNL     1       8.743  13.406  18.560  0.00  0.00    +0.000 C 
ATOM      8  O   UNL     1       8.717  11.982  18.317  0.00  0.00    +0.000 OA
ATOM      9  C   UNL     1       7.736  13.996  17.544  0.00  0.00    +0.000 C 
ATOM     10  C   UNL     1       7.620  15.508  17.654  0.00  0.00    +0.000 C 
ATOM     11  C   UNL     1       8.967  16.320  17.817  0.00  0.00    +0.000 C 
ATOM     12  C   UNL     1       8.924  17.466  18.770  0.00  0.00    +0.000 C 
ATOM     13  C   UNL     1       8.440  16.481  20.157  0.00  0.00    +0.000 C 
ATOM     14  C   UNL     1      10.217  18.328  17.998  0.00  0.00    +0.000 C 
ATOM     15  C   UNL     1       8.837  18.598  19.686  0.00  0.00    +0.000 C 
ATOM     16  C   UNL     1      10.224  18.114  20.456  0.00  0.00    +0.000 C 
ATOM     17  C   UNL     1      10.933  16.499  19.864  0.00  0.00    +0.000 C 
ATOM     18  C   UNL     1      10.373  15.599  18.337  0.00  0.00    +0.000 C 
ATOM     19  C   UNL     1      11.547  15.723  17.240  0.00  0.00    +0.000 C 
ENDROOT
BRANCH   1  21
ATOM     20  C   UNL     1       8.099   9.380  17.988  0.00  0.00    +0.000 C 
ATOM     21  C   UNL     1       9.254   9.766  18.542  0.00  0.00    +0.000 C 
ENDBRANCH   1  21
BRANCH   6  22
ATOM     22  O   UNL     1      10.287  13.605  16.806  0.00  0.00    +0.000 OA
ATOM     23  H   UNL     1      10.655  12.697  16.757  0.00  0.00    +0.000 HD
ENDBRANCH   6  22
BRANCH   9  24
ATOM     24  O   UNL     1       6.440  13.396  17.742  0.00  0.00    +0.000 OA
ATOM     25  H   UNL     1       6.008  13.874  18.478  0.00  0.00    +0.000 HD
ENDBRANCH   9  24
BRANCH  10  26
ATOM     26  O   UNL     1       6.566  15.754  18.603  0.00  0.00    +0.000 OA
ATOM     27  H   UNL     1       6.022  16.516  18.284  0.00  0.00    +0.000 HD
ENDBRANCH  10  26
BRANCH  17  28
ATOM     28  O   UNL     1      12.333  16.799  19.782  0.00  0.00    +0.000 OA
ATOM     29  H   UNL     1      12.713  16.675  20.663  0.00  0.00    +0.000 HD
ENDBRANCH  17  28
TORSDOF 5
ENDMDL
MODEL 2
REMARK VINA RESULT:      -5.9      1.707      3.240
REMARK  Name = 
REMARK  9 active torsions:
REMARK  status: ('A' for Active; 'I' for Inactive)
REMARK    1  A    between atoms: C_2  and  C_3
REMARK    2  A    between atoms: C_3  and  C_4
REMARK    3  A    between atoms: C_8  and  O_9
REMARK    4  A    between atoms: C_12  and  O_13
REMARK    5  A    between atoms: C_14  and  O_15
REMARK    6  A    between atoms: C_17  and  C_18
REMARK    7  A    between atoms: C_17  and  C_19
REMARK    8  A    between atoms: C_22  and  O_23
REMARK    9  A    between atoms: C_24  and  C_25
REMARK                            x       y       z     vdW  Elec       q    Type
REMARK                         _______ _______ _______ _____ _____    ______ ____
ROOT
ATOM      1  C   UNL     1       9.000  11.369  18.470  0.00  0.00    +0.000 C 
ATOM      2  C   UNL     1       7.818  11.830  17.604  0.00  0.00    +0.000 C 
ATOM      3  C   UNL     1       8.739  11.771  19.919  0.00  0.00    +0.000 C 
ATOM      4  C   UNL     1       8.809  13.303  19.950  0.00  0.00    +0.000 C 
ATOM      5  O   UNL     1       7.861  13.972  20.323  0.00  0.00    +0.000 OA
ATOM      6  C   UNL     1      10.105  13.925  19.437  0.00  0.00    +0.000 C 
ATOM      7  C   UNL     1      10.440  13.338  18.058  0.00  0.00    +0.000 C 
ATOM      8  O   UNL     1      10.265  11.905  18.068  0.00  0.00    +0.000 OA
ATOM      9  C   UNL     1      11.952  13.547  17.800  0.00  0.00    +0.000 C 
ATOM     10  C   UNL     1      12.333  15.018  17.748  0.00  0.00    +0.000 C 
ATOM     11  C   UNL     1      11.701  15.961  18.848  0.00  0.00    +0.000 C 
ATOM     12  C   UNL     1      11.270  17.310  18.378  0.00  0.00    +0.000 C 
ATOM     13  C   UNL     1      10.154  16.686  17.156  0.00  0.00    +0.000 C 
ATOM     14  C   UNL     1      11.427  18.050  19.939  0.00  0.00    +0.000 C 
ATOM     15  C   UNL     1      10.889  18.631  17.890  0.00  0.00    +0.000 C 
ATOM     16  C   UNL     1       9.399  18.493  18.606  0.00  0.00    +0.000 C 
ATOM     17  C   UNL     1       9.058  16.850  19.409  0.00  0.00    +0.000 C 
ATOM     18  C   UNL     1      10.337  15.533  19.699  0.00  0.00    +0.000 C 
ATOM     19  C   UNL     1      10.620  15.468  21.283  0.00  0.00    +0.000 C 
ENDROOT
BRANCH   1  21
ATOM     20  C   UNL     1       8.275   8.928  18.102  0.00  0.00    +0.000 C 
ATOM     21  C   UNL     1       9.199   9.884  18.245  0.00  0.00    +0.000 C 
ENDBRANCH   1  21
BRANCH   6  22
ATOM     22  O   UNL     1      11.070  13.206  20.313  0.00  0.00    +0.000 OA
ATOM     23  H   UNL     1      11.782  13.831  20.569  0.00  0.00    +0.000 HD
ENDBRANCH   6  22
BRANCH   9  24
ATOM     24  O   UNL     1      12.326  12.906  16.564  0.00  0.00    +0.000 OA
ATOM     25  H   UNL     1      12.256  13.578  15.857  0.00  0.00    +0.000 HD
ENDBRANCH   9  24
BRANCH  10  26
ATOM     26  O   UNL     1      12.206  15.410  16.369  0.00  0.00    +0.000 OA
ATOM     27  H   UNL     1      11.590  14.783  15.915  0.00  0.00    +0.000 HD
ENDBRANCH  10  26
BRANCH  17  28
ATOM     28  O   UNL     1       8.454  17.242  20.649  0.00  0.00    +0.000 OA
ATOM     29  H   UNL     1       8.961  16.835  21.365  0.00  0.00    +0.000 HD
ENDBRANCH  17  28
TORSDOF 5
ENDMDL
MODEL 3
REMARK VINA RESULT:      -5.9     10.076     12.920
REMARK  Name = 
REMARK  9 active torsions:
REMARK  status: ('A' for Active; 'I' for Inactive)
REMARK    1  A    between atoms: C_2  and  C_3
REMARK    2  A    between atoms: C_3  and  C_4
REMARK    3  A    between atoms: C_8  and  O_9
REMARK    4  A    between atoms: C_12  and  O_13
REMARK    5  A    between atoms: C_14  and  O_15
REMARK    6  A    between atoms: C_17  and  C_18
REMARK    7  A    between atoms: C_17  and  C_19
REMARK    8  A    between atoms: C_22  and  O_23
REMARK    9  A    between atoms: C_24  and  C_25
REMARK                            x       y       z     vdW  Elec       q    Type
REMARK                         _______ _______ _______ _____ _____    ______ ____
ROOT
ATOM      1  C   UNL     1       6.295   4.881  15.934  0.00  0.00    +0.000 C 
ATOM      2  C   UNL     1       7.275   5.189  17.077  0.00  0.00    +0.000 C 
ATOM      3  C   UNL     1       5.217   5.962  15.901  0.00  0.00    +0.000 C 
ATOM      4  C   UNL     1       4.393   5.774  17.180  0.00  0.00    +0.000 C 
ATOM      5  O   UNL     1       4.284   6.670  18.000  0.00  0.00    +0.000 OA
ATOM      6  C   UNL     1       3.774   4.394  17.382  0.00  0.00    +0.000 C 
ATOM      7  C   UNL     1       4.857   3.320  17.205  0.00  0.00    +0.000 C 
ATOM      8  O   UNL     1       5.657   3.605  16.037  0.00  0.00    +0.000 OA
ATOM      9  C   UNL     1       4.156   1.978  16.883  0.00  0.00    +0.000 C 
ATOM     10  C   UNL     1       3.260   1.505  18.017  0.00  0.00    +0.000 C 
ATOM     11  C   UNL     1       2.345   2.594  18.709  0.00  0.00    +0.000 C 
ATOM     12  C   UNL     1       2.219   2.490  20.191  0.00  0.00    +0.000 C 
ATOM     13  C   UNL     1       3.956   2.630  20.494  0.00  0.00    +0.000 C 
ATOM     14  C   UNL     1       0.679   3.287  20.249  0.00  0.00    +0.000 C 
ATOM     15  C   UNL     1       2.093   2.338  21.637  0.00  0.00    +0.000 C 
ATOM     16  C   UNL     1       2.428   3.948  21.859  0.00  0.00    +0.000 C 
ATOM     17  C   UNL     1       2.866   4.884  20.313  0.00  0.00    +0.000 C 
ATOM     18  C   UNL     1       2.667   4.222  18.588  0.00  0.00    +0.000 C 
ATOM     19  C   UNL     1       1.450   5.019  17.896  0.00  0.00    +0.000 C 
ENDROOT
BRANCH   1  21
ATOM     20  C   UNL     1       6.717   4.196  13.490  0.00  0.00    +0.000 C 
ATOM     21  C   UNL     1       7.093   4.735  14.655  0.00  0.00    +0.000 C 
ENDBRANCH   1  21
BRANCH   6  22
ATOM     22  O   UNL     1       3.028   4.284  16.098  0.00  0.00    +0.000 OA
ATOM     23  H   UNL     1       2.863   5.189  15.757  0.00  0.00    +0.000 HD
ENDBRANCH   6  22
BRANCH   9  24
ATOM     24  O   UNL     1       5.147   0.970  16.597  0.00  0.00    +0.000 OA
ATOM     25  H   UNL     1       6.001   1.431  16.474  0.00  0.00    +0.000 HD
ENDBRANCH   9  24
BRANCH  10  26
ATOM     26  O   UNL     1       4.090   0.687  18.861  0.00  0.00    +0.000 OA
ATOM     27  H   UNL     1       4.497   1.258  19.558  0.00  0.00    +0.000 HD
ENDBRANCH  10  26
BRANCH  17  28
ATOM     28  O   UNL     1       2.115   6.095  20.473  0.00  0.00    +0.000 OA
ATOM     29  H   UNL     1       2.710   6.766  20.835  0.00  0.00    +0.000 HD
ENDBRANCH  17  28
TORSDOF 5
ENDMDL
MODEL 4
REMARK VINA RESULT:      -5.9      2.942      5.528
REMARK  Name = 
REMARK  9 active torsions:
REMARK  status: ('A' for Active; 'I' for Inactive)
REMARK    1  A    between atoms: C_2  and  C_3
REMARK    2  A    between atoms: C_3  and  C_4
REMARK    3  A    between atoms: C_8  and  O_9
REMARK    4  A    between atoms: C_12  and  O_13
REMARK    5  A    between atoms: C_14  and  O_15
REMARK    6  A    between atoms: C_17  and  C_18
REMARK    7  A    between atoms: C_17  and  C_19
REMARK    8  A    between atoms: C_22  and  O_23
REMARK    9  A    between atoms: C_24  and  C_25
REMARK                            x       y       z     vdW  Elec       q    Type
REMARK                         _______ _______ _______ _____ _____    ______ ____
ROOT
ATOM      1  C   UNL     1       6.290  14.745  22.596  0.00  0.00    +0.000 C 
ATOM      2  C   UNL     1       5.327  14.524  21.419  0.00  0.00    +0.000 C 
ATOM      3  C   UNL     1       7.106  16.009  22.338  0.00  0.00    +0.000 C 
ATOM      4  C   UNL     1       8.016  15.686  21.147  0.00  0.00    +0.000 C 
ATOM      5  O   UNL     1       7.972  16.341  20.120  0.00  0.00    +0.000 OA
ATOM      6  C   UNL     1       8.928  14.472  21.311  0.00  0.00    +0.000 C 
ATOM      7  C   UNL     1       8.094  13.268  21.770  0.00  0.00    +0.000 C 
ATOM      8  O   UNL     1       7.191  13.659  22.828  0.00  0.00    +0.000 OA
ATOM      9  C   UNL     1       9.050  12.244  22.429  0.00  0.00    +0.000 C 
ATOM     10  C   UNL     1      10.085  11.706  21.453  0.00  0.00    +0.000 C 
ATOM     11  C   UNL     1      10.778  12.754  20.494  0.00  0.00    +0.000 C 
ATOM     12  C   UNL     1      11.001  12.303  19.089  0.00  0.00    +0.000 C 
ATOM     13  C   UNL     1       9.293  11.972  18.772  0.00  0.00    +0.000 C 
ATOM     14  C   UNL     1      12.333  13.379  18.815  0.00  0.00    +0.000 C 
ATOM     15  C   UNL     1      11.231  11.816  17.734  0.00  0.00    +0.000 C 
ATOM     16  C   UNL     1      10.570  13.198  17.099  0.00  0.00    +0.000 C 
ATOM     17  C   UNL     1       9.860  14.381  18.348  0.00  0.00    +0.000 C 
ATOM     18  C   UNL     1      10.107  14.245  20.185  0.00  0.00    +0.000 C 
ATOM     19  C   UNL     1      11.086  15.443  20.635  0.00  0.00    +0.000 C 
ENDROOT
BRANCH   1  21
ATOM     20  C   UNL     1       5.574  13.956  24.938  0.00  0.00    +0.000 C 
ATOM     21  C   UNL     1       5.476  14.760  23.874  0.00  0.00    +0.000 C 
ENDBRANCH   1  21
BRANCH   6  22
ATOM     22  O   UNL     1       9.612  14.865  22.573  0.00  0.00    +0.000 OA
ATOM     23  H   UNL     1       9.930  14.051  23.020  0.00  0.00    +0.000 HD
ENDBRANCH   6  22
BRANCH   9  24
ATOM     24  O   UNL     1       8.286  11.150  22.975  0.00  0.00    +0.000 OA
ATOM     25  H   UNL     1       7.519  11.538  23.442  0.00  0.00    +0.000 HD
ENDBRANCH   9  24
BRANCH  10  26
ATOM     26  O   UNL     1       9.495  10.535  20.859  0.00  0.00    +0.000 OA
ATOM     27  H   UNL     1      10.192  10.047  20.356  0.00  0.00    +0.000 HD
ENDBRANCH  10  26
BRANCH  17  28
ATOM     28  O   UNL     1      10.340  15.645  17.871  0.00  0.00    +0.000 OA
ATOM     29  H   UNL     1      10.823  15.485  17.049  0.00  0.00    +0.000 HD
ENDBRANCH  17  28
TORSDOF 5
ENDMDL
MODEL 5
REMARK VINA RESULT:      -5.8      2.542      5.475
REMARK  Name = 
REMARK  9 active torsions:
REMARK  status: ('A' for Active; 'I' for Inactive)
REMARK    1  A    between atoms: C_2  and  C_3
REMARK    2  A    between atoms: C_3  and  C_4
REMARK    3  A    between atoms: C_8  and  O_9
REMARK    4  A    between atoms: C_12  and  O_13
REMARK    5  A    between atoms: C_14  and  O_15
REMARK    6  A    between atoms: C_17  and  C_18
REMARK    7  A    between atoms: C_17  and  C_19
REMARK    8  A    between atoms: C_22  and  O_23
REMARK    9  A    between atoms: C_24  and  C_25
REMARK                            x       y       z     vdW  Elec       q    Type
REMARK                         _______ _______ _______ _____ _____    ______ ____
ROOT
ATOM      1  C   UNL     1       5.482  15.859  19.959  0.00  0.00    +0.000 C 
ATOM      2  C   UNL     1       4.874  14.778  19.051  0.00  0.00    +0.000 C 
ATOM      3  C   UNL     1       6.333  16.799  19.109  0.00  0.00    +0.000 C 
ATOM      4  C   UNL     1       7.532  15.969  18.636  0.00  0.00    +0.000 C 
ATOM      5  O   UNL     1       7.764  15.811  17.449  0.00  0.00    +0.000 OA
ATOM      6  C   UNL     1       8.371  15.317  19.732  0.00  0.00    +0.000 C 
ATOM      7  C   UNL     1       7.449  14.545  20.686  0.00  0.00    +0.000 C 
ATOM      8  O   UNL     1       6.292  15.344  21.020  0.00  0.00    +0.000 OA
ATOM      9  C   UNL     1       8.196  14.356  22.029  0.00  0.00    +0.000 C 
ATOM     10  C   UNL     1       9.458  13.522  21.878  0.00  0.00    +0.000 C 
ATOM     11  C   UNL     1      10.379  13.836  20.633  0.00  0.00    +0.000 C 
ATOM     12  C   UNL     1      10.975  12.652  19.949  0.00  0.00    +0.000 C 
ATOM     13  C   UNL     1       9.417  11.895  19.590  0.00  0.00    +0.000 C 
ATOM     14  C   UNL     1      12.328  13.533  19.314  0.00  0.00    +0.000 C 
ATOM     15  C   UNL     1      11.565  11.472  19.325  0.00  0.00    +0.000 C 
ATOM     16  C   UNL     1      11.094  12.000  17.825  0.00  0.00    +0.000 C 
ATOM     17  C   UNL     1      10.068  13.553  17.820  0.00  0.00    +0.000 C 
ATOM     18  C   UNL     1       9.811  14.650  19.298  0.00  0.00    +0.000 C 
ATOM     19  C   UNL     1      10.627  16.015  19.040  0.00  0.00    +0.000 C 
ENDROOT
BRANCH   1  21
ATOM     20  C   UNL     1       3.262  17.130  20.234  0.00  0.00    +0.000 C 
ATOM     21  C   UNL     1       4.354  16.527  20.717  0.00  0.00    +0.000 C 
ENDBRANCH   1  21
BRANCH   6  22
ATOM     22  O   UNL     1       8.687  16.531  20.534  0.00  0.00    +0.000 OA
ATOM     23  H   UNL     1       8.018  16.615  21.247  0.00  0.00    +0.000 HD
ENDBRANCH   6  22
BRANCH   9  24
ATOM     24  O   UNL     1       7.317  13.736  22.989  0.00  0.00    +0.000 OA
ATOM     25  H   UNL     1       7.626  14.001  23.878  0.00  0.00    +0.000 HD
ENDBRANCH   9  24
BRANCH  10  26
ATOM     26  O   UNL     1       9.055  12.156  22.091  0.00  0.00    +0.000 OA
ATOM     27  H   UNL     1       8.508  11.861  21.322  0.00  0.00    +0.000 HD
ENDBRANCH  10  26
BRANCH  17  28
ATOM     28  O   UNL     1      10.654  14.295  16.742  0.00  0.00    +0.000 OA
ATOM     29  H   UNL     1      11.486  13.864  16.505  0.00  0.00    +0.000 HD
ENDBRANCH  17  28
TORSDOF 5
ENDMDL
MODEL 6
REMARK VINA RESULT:      -5.8     10.027     11.753
REMARK  Name = 
REMARK  9 active torsions:
REMARK  status: ('A' for Active; 'I' for Inactive)
REMARK    1  A    between atoms: C_2  and  C_3
REMARK    2  A    between atoms: C_3  and  C_4
REMARK    3  A    between atoms: C_8  and  O_9
REMARK    4  A    between atoms: C_12  and  O_13
REMARK    5  A    between atoms: C_14  and  O_15
REMARK    6  A    between atoms: C_17  and  C_18
REMARK    7  A    between atoms: C_17  and  C_19
REMARK    8  A    between atoms: C_22  and  O_23
REMARK    9  A    between atoms: C_24  and  C_25
REMARK                            x       y       z     vdW  Elec       q    Type
REMARK                         _______ _______ _______ _____ _____    ______ ____
ROOT
ATOM      1  C   UNL     1       0.625   8.825  21.058  0.00  0.00    +0.000 C 
ATOM      2  C   UNL     1      -0.599   7.921  21.276  0.00  0.00    +0.000 C 
ATOM      3  C   UNL     1       0.945   9.550  22.362  0.00  0.00    +0.000 C 
ATOM      4  C   UNL     1      -0.218  10.521  22.600  0.00  0.00    +0.000 C 
ATOM      5  O   UNL     1      -0.897  10.461  23.610  0.00  0.00    +0.000 OA
ATOM      6  C   UNL     1      -0.499  11.517  21.477  0.00  0.00    +0.000 C 
ATOM      7  C   UNL     1      -0.612  10.763  20.145  0.00  0.00    +0.000 C 
ATOM      8  O   UNL     1       0.457   9.799  20.023  0.00  0.00    +0.000 OA
ATOM      9  C   UNL     1      -0.362  11.773  18.998  0.00  0.00    +0.000 C 
ATOM     10  C   UNL     1      -1.406  12.877  18.960  0.00  0.00    +0.000 C 
ATOM     11  C   UNL     1      -1.821  13.519  20.343  0.00  0.00    +0.000 C 
ATOM     12  C   UNL     1      -3.272  13.823  20.511  0.00  0.00    +0.000 C 
ATOM     13  C   UNL     1      -3.799  12.156  20.240  0.00  0.00    +0.000 C 
ATOM     14  C   UNL     1      -3.010  15.077  21.681  0.00  0.00    +0.000 C 
ATOM     15  C   UNL     1      -4.692  14.134  20.627  0.00  0.00    +0.000 C 
ATOM     16  C   UNL     1      -4.759  13.390  22.108  0.00  0.00    +0.000 C 
ATOM     17  C   UNL     1      -3.187  12.551  22.643  0.00  0.00    +0.000 C 
ATOM     18  C   UNL     1      -1.547  12.747  21.792  0.00  0.00    +0.000 C 
ATOM     19  C   UNL     1      -0.596  13.616  22.759  0.00  0.00    +0.000 C 
ENDROOT
BRANCH   1  21
ATOM     20  C   UNL     1       2.147   7.824  19.240  0.00  0.00    +0.000 C 
ATOM     21  C   UNL     1       1.749   7.971  20.509  0.00  0.00    +0.000 C 
ENDBRANCH   1  21
BRANCH   6  22
ATOM     22  O   UNL     1       0.855  12.128  21.365  0.00  0.00    +0.000 OA
ATOM     23  H   UNL     1       1.132  12.434  22.254  0.00  0.00    +0.000 HD
ENDBRANCH   6  22
BRANCH   9  24
ATOM     24  O   UNL     1      -0.346  11.077  17.735  0.00  0.00    +0.000 OA
ATOM     25  H   UNL     1       0.518  10.624  17.665  0.00  0.00    +0.000 HD
ENDBRANCH   9  24
BRANCH  10  26
ATOM     26  O   UNL     1      -2.454  12.399  18.097  0.00  0.00    +0.000 OA
ATOM     27  H   UNL     1      -2.230  12.632  17.163  0.00  0.00    +0.000 HD
ENDBRANCH  10  26
BRANCH  17  28
ATOM     28  O   UNL     1      -3.087  12.948  24.017  0.00  0.00    +0.000 OA
ATOM     29  H   UNL     1      -3.822  12.540  24.496  0.00  0.00    +0.000 HD
ENDBRANCH  17  28
TORSDOF 5
ENDMDL
MODEL 7
REMARK VINA RESULT:      -5.8      1.886      2.744
REMARK  Name = 
REMARK  9 active torsions:
REMARK  status: ('A' for Active; 'I' for Inactive)
REMARK    1  A    between atoms: C_2  and  C_3
REMARK    2  A    between atoms: C_3  and  C_4
REMARK    3  A    between atoms: C_8  and  O_9
REMARK    4  A    between atoms: C_12  and  O_13
REMARK    5  A    between atoms: C_14  and  O_15
REMARK    6  A    between atoms: C_17  and  C_18
REMARK    7  A    between atoms: C_17  and  C_19
REMARK    8  A    between atoms: C_22  and  O_23
REMARK    9  A    between atoms: C_24  and  C_25
REMARK                            x       y       z     vdW  Elec       q    Type
REMARK                         _______ _______ _______ _____ _____    ______ ____
ROOT
ATOM      1  C   UNL     1       9.829  11.462  19.038  0.00  0.00    +0.000 C 
ATOM      2  C   UNL     1      11.356  11.425  19.212  0.00  0.00    +0.000 C 
ATOM      3  C   UNL     1       9.495  12.195  17.742  0.00  0.00    +0.000 C 
ATOM      4  C   UNL     1       9.895  13.657  17.969  0.00  0.00    +0.000 C 
ATOM      5  O   UNL     1      10.714  14.208  17.254  0.00  0.00    +0.000 OA
ATOM      6  C   UNL     1       9.251  14.349  19.167  0.00  0.00    +0.000 C 
ATOM      7  C   UNL     1       9.434  13.477  20.417  0.00  0.00    +0.000 C 
ATOM      8  O   UNL     1       9.133  12.098  20.114  0.00  0.00    +0.000 OA
ATOM      9  C   UNL     1       8.364  13.894  21.456  0.00  0.00    +0.000 C 
ATOM     10  C   UNL     1       8.526  15.337  21.908  0.00  0.00    +0.000 C 
ATOM     11  C   UNL     1       8.829  16.409  20.786  0.00  0.00    +0.000 C 
ATOM     12  C   UNL     1       9.821  17.463  21.146  0.00  0.00    +0.000 C 
ATOM     13  C   UNL     1      11.124  16.320  21.499  0.00  0.00    +0.000 C 
ATOM     14  C   UNL     1       9.192  18.625  20.022  0.00  0.00    +0.000 C 
ATOM     15  C   UNL     1      10.772  18.496  21.543  0.00  0.00    +0.000 C 
ATOM     16  C   UNL     1      11.632  18.278  20.142  0.00  0.00    +0.000 C 
ATOM     17  C   UNL     1      11.034  16.891  19.056  0.00  0.00    +0.000 C 
ATOM     18  C   UNL     1       9.433  15.980  19.296  0.00  0.00    +0.000 C 
ATOM     19  C   UNL     1       8.440  16.416  18.104  0.00  0.00    +0.000 C 
ENDROOT
BRANCH   1  21
ATOM     20  C   UNL     1       8.509   9.391  18.271  0.00  0.00    +0.000 C 
ATOM     21  C   UNL     1       9.311  10.041  19.121  0.00  0.00    +0.000 C 
ENDBRANCH   1  21
BRANCH   6  22
ATOM     22  O   UNL     1       7.820  14.104  18.835  0.00  0.00    +0.000 OA
ATOM     23  H   UNL     1       7.694  13.140  18.702  0.00  0.00    +0.000 HD
ENDBRANCH   6  22
BRANCH   9  24
ATOM     24  O   UNL     1       8.432  13.018  22.599  0.00  0.00    +0.000 OA
ATOM     25  H   UNL     1       7.536  12.651  22.737  0.00  0.00    +0.000 HD
ENDBRANCH   9  24
BRANCH  10  26
ATOM     26  O   UNL     1       9.395  15.296  23.054  0.00  0.00    +0.000 OA
ATOM     27  H   UNL     1      10.333  15.292  22.743  0.00  0.00    +0.000 HD
ENDBRANCH  10  26
BRANCH  17  28
ATOM     28  O   UNL     1      11.079  17.489  17.753  0.00  0.00    +0.000 OA
ATOM     29  H   UNL     1      11.434  18.383  17.852  0.00  0.00    +0.000 HD
ENDBRANCH  17  28
TORSDOF 5
ENDMDL
MODEL 8
REMARK VINA RESULT:      -5.7     10.084     11.814
REMARK  Name = 
REMARK  9 active torsions:
REMARK  status: ('A' for Active; 'I' for Inactive)
REMARK    1  A    between atoms: C_2  and  C_3
REMARK    2  A    between atoms: C_3  and  C_4
REMARK    3  A    between atoms: C_8  and  O_9
REMARK    4  A    between atoms: C_12  and  O_13
REMARK    5  A    between atoms: C_14  and  O_15
REMARK    6  A    between atoms: C_17  and  C_18
REMARK    7  A    between atoms: C_17  and  C_19
REMARK    8  A    between atoms: C_22  and  O_23
REMARK    9  A    between atoms: C_24  and  C_25
REMARK                            x       y       z     vdW  Elec       q    Type
REMARK                         _______ _______ _______ _____ _____    ______ ____
ROOT
ATOM      1  C   UNL     1       0.164  10.666  19.293  0.00  0.00    +0.000 C 
ATOM      2  C   UNL     1       0.280   9.742  20.516  0.00  0.00    +0.000 C 
ATOM      3  C   UNL     1       1.054  11.888  19.510  0.00  0.00    +0.000 C 
ATOM      4  C   UNL     1       0.412  12.677  20.657  0.00  0.00    +0.000 C 
ATOM      5  O   UNL     1       1.025  12.914  21.684  0.00  0.00    +0.000 OA
ATOM      6  C   UNL     1      -1.043  13.093  20.452  0.00  0.00    +0.000 C 
ATOM      7  C   UNL     1      -1.868  11.867  20.036  0.00  0.00    +0.000 C 
ATOM      8  O   UNL     1      -1.167  11.114  19.021  0.00  0.00    +0.000 OA
ATOM      9  C   UNL     1      -3.154  12.368  19.334  0.00  0.00    +0.000 C 
ATOM     10  C   UNL     1      -4.037  13.188  20.261  0.00  0.00    +0.000 C 
ATOM     11  C   UNL     1      -3.316  14.250  21.184  0.00  0.00    +0.000 C 
ATOM     12  C   UNL     1      -3.839  14.362  22.577  0.00  0.00    +0.000 C 
ATOM     13  C   UNL     1      -3.549  12.663  22.976  0.00  0.00    +0.000 C 
ATOM     14  C   UNL     1      -3.307  16.000  22.786  0.00  0.00    +0.000 C 
ATOM     15  C   UNL     1      -4.396  14.466  23.921  0.00  0.00    +0.000 C 
ATOM     16  C   UNL     1      -2.878  14.366  24.584  0.00  0.00    +0.000 C 
ATOM     17  C   UNL     1      -1.503  14.064  23.368  0.00  0.00    +0.000 C 
ATOM     18  C   UNL     1      -1.689  14.165  21.522  0.00  0.00    +0.000 C 
ATOM     19  C   UNL     1      -0.908  15.483  21.023  0.00  0.00    +0.000 C 
ENDROOT
BRANCH   1  21
ATOM     20  C   UNL     1       1.565   9.107  17.801  0.00  0.00    +0.000 C 
ATOM     21  C   UNL     1       0.485   9.854  18.056  0.00  0.00    +0.000 C 
ENDBRANCH   1  21
BRANCH   6  22
ATOM     22  O   UNL     1      -0.899  13.814  19.158  0.00  0.00    +0.000 OA
ATOM     23  H   UNL     1      -1.785  14.129  18.878  0.00  0.00    +0.000 HD
ENDBRANCH   6  22
BRANCH   9  24
ATOM     24  O   UNL     1      -3.898  11.242  18.826  0.00  0.00    +0.000 OA
ATOM     25  H   UNL     1      -3.393  10.878  18.072  0.00  0.00    +0.000 HD
ENDBRANCH   9  24
BRANCH  10  26
ATOM     26  O   UNL     1      -4.933  12.250  20.885  0.00  0.00    +0.000 OA
ATOM     27  H   UNL     1      -5.027  11.460  20.297  0.00  0.00    +0.000 HD
ENDBRANCH  10  26
BRANCH  17  28
ATOM     28  O   UNL     1      -0.497  14.982  23.819  0.00  0.00    +0.000 OA
ATOM     29  H   UNL     1       0.030  14.532  24.493  0.00  0.00    +0.000 HD
ENDBRANCH  17  28
TORSDOF 5
ENDMDL
MODEL 9
REMARK VINA RESULT:      -5.5     10.458     12.129
REMARK  Name = 
REMARK  9 active torsions:
REMARK  status: ('A' for Active; 'I' for Inactive)
REMARK    1  A    between atoms: C_2  and  C_3
REMARK    2  A    between atoms: C_3  and  C_4
REMARK    3  A    between atoms: C_8  and  O_9
REMARK    4  A    between atoms: C_12  and  O_13
REMARK    5  A    between atoms: C_14  and  O_15
REMARK    6  A    between atoms: C_17  and  C_18
REMARK    7  A    between atoms: C_17  and  C_19
REMARK    8  A    between atoms: C_22  and  O_23
REMARK    9  A    between atoms: C_24  and  C_25
REMARK                            x       y       z     vdW  Elec       q    Type
REMARK                         _______ _______ _______ _____ _____    ______ ____
ROOT
ATOM      1  C   UNL     1      -0.697  10.937  19.365  0.00  0.00    +0.000 C 
ATOM      2  C   UNL     1      -0.417  10.007  20.557  0.00  0.00    +0.000 C 
ATOM      3  C   UNL     1       0.322  12.074  19.373  0.00  0.00    +0.000 C 
ATOM      4  C   UNL     1      -0.001  12.920  20.610  0.00  0.00    +0.000 C 
ATOM      5  O   UNL     1       0.826  13.102  21.487  0.00  0.00    +0.000 OA
ATOM      6  C   UNL     1      -1.425  13.464  20.696  0.00  0.00    +0.000 C 
ATOM      7  C   UNL     1      -2.421  12.317  20.479  0.00  0.00    +0.000 C 
ATOM      8  O   UNL     1      -2.011  11.503  19.359  0.00  0.00    +0.000 OA
ATOM      9  C   UNL     1      -3.774  12.931  20.043  0.00  0.00    +0.000 C 
ATOM     10  C   UNL     1      -4.375  13.829  21.113  0.00  0.00    +0.000 C 
ATOM     11  C   UNL     1      -3.391  14.822  21.850  0.00  0.00    +0.000 C 
ATOM     12  C   UNL     1      -3.607  14.983  23.317  0.00  0.00    +0.000 C 
ATOM     13  C   UNL     1      -3.393  13.266  23.683  0.00  0.00    +0.000 C 
ATOM     14  C   UNL     1      -2.902  16.567  23.382  0.00  0.00    +0.000 C 
ATOM     15  C   UNL     1      -3.868  15.139  24.744  0.00  0.00    +0.000 C 
ATOM     16  C   UNL     1      -2.262  14.903  25.088  0.00  0.00    +0.000 C 
ATOM     17  C   UNL     1      -1.195  14.478  23.625  0.00  0.00    +0.000 C 
ATOM     18  C   UNL     1      -1.743  14.591  21.853  0.00  0.00    +0.000 C 
ATOM     19  C   UNL     1      -0.967  15.833  21.181  0.00  0.00    +0.000 C 
ENDROOT
BRANCH   1  21
ATOM     20  C   UNL     1      -1.657  10.006  17.167  0.00  0.00    +0.000 C 
ATOM     21  C   UNL     1      -0.707  10.097  18.104  0.00  0.00    +0.000 C 
ENDBRANCH   1  21
BRANCH   6  22
ATOM     22  O   UNL     1      -1.484  14.167  19.386  0.00  0.00    +0.000 OA
ATOM     23  H   UNL     1      -1.407  13.500  18.672  0.00  0.00    +0.000 HD
ENDBRANCH   6  22
BRANCH   9  24
ATOM     24  O   UNL     1      -4.702  11.876  19.719  0.00  0.00    +0.000 OA
ATOM     25  H   UNL     1      -4.177  11.067  19.557  0.00  0.00    +0.000 HD
ENDBRANCH   9  24
BRANCH  10  26
ATOM     26  O   UNL     1      -5.204  12.975  21.924  0.00  0.00    +0.000 OA
ATOM     27  H   UNL     1      -5.583  13.509  22.665  0.00  0.00    +0.000 HD
ENDBRANCH  10  26
BRANCH  17  28
ATOM     28  O   UNL     1      -0.042  15.301  23.845  0.00  0.00    +0.000 OA
ATOM     29  H   UNL     1       0.727  14.831  23.495  0.00  0.00    +0.000 HD
ENDBRANCH  17  28
TORSDOF 5
ENDMDL
