MODEL 1
REMARK VINA RESULT:      -7.8      0.000      0.000
REMARK  Name = 
REMARK  3 active torsions:
REMARK  status: ('A' for Active; 'I' for Inactive)
REMARK    1  A    between atoms: C_1  and  C_2
REMARK    2  A    between atoms: C_9  and  O_10
REMARK    3  A    between atoms: N_23  and  C_24
REMARK                            x       y       z     vdW  Elec       q    Type
REMARK                         _______ _______ _______ _____ _____    ______ ____
ROOT
ATOM      1  C   UNL     1       5.801   6.365  18.957  0.00  0.00    +0.000 C 
ATOM      2  C   UNL     1       4.541   5.634  18.401  0.00  0.00    +0.000 C 
ATOM      3  C   UNL     1       3.982   6.438  17.228  0.00  0.00    +0.000 C 
ATOM      4  C   UNL     1       3.359   7.744  17.628  0.00  0.00    +0.000 C 
ATOM      5  C   UNL     1       2.193   7.532  18.595  0.00  0.00    +0.000 C 
ATOM      6  C   UNL     1       1.632   8.891  19.047  0.00  0.00    +0.000 A 
ATOM      7  C   UNL     1       1.690  10.022  18.200  0.00  0.00    +0.000 A 
ATOM      8  C   UNL     1       1.301  11.286  18.637  0.00  0.00    +0.000 A 
ATOM      9  C   UNL     1       0.815  11.429  19.927  0.00  0.00    +0.000 A 
ATOM     10  C   UNL     1       0.690  10.331  20.760  0.00  0.00    +0.000 A 
ATOM     11  C   UNL     1       1.083   9.045  20.336  0.00  0.00    +0.000 A 
ATOM     12  C   UNL     1       1.002   7.881  21.311  0.00  0.00    +0.000 C 
ATOM     13  C   UNL     1       1.373   6.500  20.719  0.00  0.00    +0.000 C 
ATOM     14  C   UNL     1       2.611   6.679  19.837  0.00  0.00    +0.000 C 
ATOM     15  C   UNL     1       3.609   5.496  19.646  0.00  0.00    +0.000 C 
ATOM     16  C   UNL     1       3.493   3.971  19.896  0.00  0.00    +0.000 C 
ATOM     17  C   UNL     1       4.833   3.437  19.279  0.00  0.00    +0.000 C 
ATOM     18  C   UNL     1       4.835   4.166  17.934  0.00  0.00    +0.000 C 
ATOM     19  C   UNL     1       3.779   3.457  17.067  0.00  0.00    +0.000 C 
ATOM     20  N   UNL     1       4.227   3.632  15.707  0.00  0.00    +0.000 NA
ATOM     21  C   UNL     1       5.479   3.965  15.817  0.00  0.00    +0.000 C 
ATOM     22  N   UNL     1       6.325   4.200  14.784  0.00  0.00    +0.000 N 
ATOM     23  O   UNL     1       5.984   4.119  17.091  0.00  0.00    +0.000 OA
ATOM     24  H   UNL     1       7.158   4.748  14.954  0.00  0.00    +0.000 HD
ENDROOT
BRANCH  22  25
ATOM     25  C   UNL     1       6.115   3.734  13.467  0.00  0.00    +0.000 A 
ATOM     26  C   UNL     1       4.833   3.631  12.915  0.00  0.00    +0.000 A 
ATOM     27  C   UNL     1       4.648   3.092  11.628  0.00  0.00    +0.000 A 
ATOM     28  C   UNL     1       5.736   2.648  10.885  0.00  0.00    +0.000 A 
ATOM     29  C   UNL     1       7.015   2.732  11.418  0.00  0.00    +0.000 A 
ATOM     30  C   UNL     1       7.195   3.256  12.699  0.00  0.00    +0.000 A 
ENDBRANCH  22  25
BRANCH   9  31
ATOM     31  O   UNL     1       0.460  12.662  20.396  0.00  0.00    +0.000 OA
ATOM     32  H   UNL     1       1.084  12.921  21.092  0.00  0.00    +0.000 HD
ENDBRANCH   9  31
TORSDOF 2
ENDMDL
MODEL 2
REMARK VINA RESULT:      -7.7      7.883      9.602
REMARK  Name = 
REMARK  3 active torsions:
REMARK  status: ('A' for Active; 'I' for Inactive)
REMARK    1  A    between atoms: C_1  and  C_2
REMARK    2  A    between atoms: C_9  and  O_10
REMARK    3  A    between atoms: N_23  and  C_24
REMARK                            x       y       z     vdW  Elec       q    Type
REMARK                         _______ _______ _______ _____ _____    ______ ____
ROOT
ATOM      1  C   UNL     1       3.336  15.884  17.235  0.00  0.00    +0.000 C 
ATOM      2  C   UNL     1       3.784  15.327  18.621  0.00  0.00    +0.000 C 
ATOM      3  C   UNL     1       3.903  13.807  18.527  0.00  0.00    +0.000 C 
ATOM      4  C   UNL     1       2.587  13.101  18.386  0.00  0.00    +0.000 C 
ATOM      5  C   UNL     1       1.672  13.384  19.579  0.00  0.00    +0.000 C 
ATOM      6  C   UNL     1       0.305  12.714  19.363  0.00  0.00    +0.000 A 
ATOM      7  C   UNL     1       0.188  11.521  18.612  0.00  0.00    +0.000 A 
ATOM      8  C   UNL     1      -1.053  10.969  18.302  0.00  0.00    +0.000 A 
ATOM      9  C   UNL     1      -2.199  11.590  18.772  0.00  0.00    +0.000 A 
ATOM     10  C   UNL     1      -2.116  12.725  19.558  0.00  0.00    +0.000 A 
ATOM     11  C   UNL     1      -0.869  13.301  19.878  0.00  0.00    +0.000 A 
ATOM     12  C   UNL     1      -0.827  14.592  20.680  0.00  0.00    +0.000 C 
ATOM     13  C   UNL     1       0.590  15.090  21.051  0.00  0.00    +0.000 C 
ATOM     14  C   UNL     1       1.490  14.918  19.825  0.00  0.00    +0.000 C 
ATOM     15  C   UNL     1       2.705  15.872  19.609  0.00  0.00    +0.000 C 
ATOM     16  C   UNL     1       3.470  16.830  20.556  0.00  0.00    +0.000 C 
ATOM     17  C   UNL     1       4.676  17.280  19.657  0.00  0.00    +0.000 C 
ATOM     18  C   UNL     1       5.145  15.928  19.116  0.00  0.00    +0.000 C 
ATOM     19  C   UNL     1       5.862  15.230  20.287  0.00  0.00    +0.000 C 
ATOM     20  N   UNL     1       6.840  14.368  19.671  0.00  0.00    +0.000 NA
ATOM     21  C   UNL     1       6.956  14.821  18.457  0.00  0.00    +0.000 C 
ATOM     22  N   UNL     1       7.797  14.336  17.511  0.00  0.00    +0.000 N 
ATOM     23  O   UNL     1       6.134  15.867  18.091  0.00  0.00    +0.000 OA
ATOM     24  H   UNL     1       7.598  14.528  16.539  0.00  0.00    +0.000 HD
ENDROOT
BRANCH  22  25
ATOM     25  C   UNL     1       8.944  13.562  17.795  0.00  0.00    +0.000 A 
ATOM     26  C   UNL     1      10.203  14.146  17.980  0.00  0.00    +0.000 A 
ATOM     27  C   UNL     1      11.342  13.344  18.186  0.00  0.00    +0.000 A 
ATOM     28  C   UNL     1      11.237  11.959  18.204  0.00  0.00    +0.000 A 
ATOM     29  C   UNL     1      10.000  11.359  18.011  0.00  0.00    +0.000 A 
ATOM     30  C   UNL     1       8.874  12.155  17.795  0.00  0.00    +0.000 A 
ENDBRANCH  22  25
BRANCH   9  31
ATOM     31  O   UNL     1      -3.432  11.092  18.454  0.00  0.00    +0.000 OA
ATOM     32  H   UNL     1      -3.863  11.702  17.835  0.00  0.00    +0.000 HD
ENDBRANCH   9  31
TORSDOF 2
ENDMDL
MODEL 3
REMARK VINA RESULT:      -7.6      4.485     10.128
REMARK  Name = 
REMARK  3 active torsions:
REMARK  status: ('A' for Active; 'I' for Inactive)
REMARK    1  A    between atoms: C_1  and  C_2
REMARK    2  A    between atoms: C_9  and  O_10
REMARK    3  A    between atoms: N_23  and  C_24
REMARK                            x       y       z     vdW  Elec       q    Type
REMARK                         _______ _______ _______ _____ _____    ______ ____
ROOT
ATOM      1  C   UNL     1      -1.607  10.234  18.789  0.00  0.00    +0.000 C 
ATOM      2  C   UNL     1      -0.491  10.771  19.738  0.00  0.00    +0.000 C 
ATOM      3  C   UNL     1       0.742  11.113  18.904  0.00  0.00    +0.000 C 
ATOM      4  C   UNL     1       1.448   9.915  18.340  0.00  0.00    +0.000 C 
ATOM      5  C   UNL     1       1.929   8.978  19.449  0.00  0.00    +0.000 C 
ATOM      6  C   UNL     1       2.572   7.724  18.836  0.00  0.00    +0.000 A 
ATOM      7  C   UNL     1       3.227   7.779  17.583  0.00  0.00    +0.000 A 
ATOM      8  C   UNL     1       3.706   6.630  16.955  0.00  0.00    +0.000 A 
ATOM      9  C   UNL     1       3.564   5.409  17.593  0.00  0.00    +0.000 A 
ATOM     10  C   UNL     1       2.982   5.330  18.846  0.00  0.00    +0.000 A 
ATOM     11  C   UNL     1       2.487   6.480  19.494  0.00  0.00    +0.000 A 
ATOM     12  C   UNL     1       1.784   6.337  20.835  0.00  0.00    +0.000 C 
ATOM     13  C   UNL     1       1.359   7.668  21.501  0.00  0.00    +0.000 C 
ATOM     14  C   UNL     1       0.769   8.574  20.417  0.00  0.00    +0.000 C 
ATOM     15  C   UNL     1      -0.314   9.631  20.790  0.00  0.00    +0.000 C 
ATOM     16  C   UNL     1      -0.755  10.254  22.138  0.00  0.00    +0.000 C 
ATOM     17  C   UNL     1      -1.752  11.372  21.669  0.00  0.00    +0.000 C 
ATOM     18  C   UNL     1      -0.934  12.032  20.558  0.00  0.00    +0.000 C 
ATOM     19  C   UNL     1       0.159  12.854  21.267  0.00  0.00    +0.000 C 
ATOM     20  N   UNL     1       0.454  13.944  20.370  0.00  0.00    +0.000 NA
ATOM     21  C   UNL     1      -0.561  13.981  19.558  0.00  0.00    +0.000 C 
ATOM     22  N   UNL     1      -0.736  14.877  18.555  0.00  0.00    +0.000 N 
ATOM     23  O   UNL     1      -1.529  13.011  19.709  0.00  0.00    +0.000 OA
ATOM     24  H   UNL     1      -1.364  14.643  17.799  0.00  0.00    +0.000 HD
ENDROOT
BRANCH  22  25
ATOM     25  C   UNL     1      -0.084  16.129  18.490  0.00  0.00    +0.000 A 
ATOM     26  C   UNL     1      -0.791  17.335  18.557  0.00  0.00    +0.000 A 
ATOM     27  C   UNL     1      -0.124  18.566  18.413  0.00  0.00    +0.000 A 
ATOM     28  C   UNL     1       1.249  18.605  18.198  0.00  0.00    +0.000 A 
ATOM     29  C   UNL     1       1.967  17.420  18.119  0.00  0.00    +0.000 A 
ATOM     30  C   UNL     1       1.302  16.200  18.249  0.00  0.00    +0.000 A 
ENDBRANCH  22  25
BRANCH   9  31
ATOM     31  O   UNL     1       3.992   4.262  16.987  0.00  0.00    +0.000 OA
ATOM     32  H   UNL     1       3.702   4.273  16.061  0.00  0.00    +0.000 HD
ENDBRANCH   9  31
TORSDOF 2
ENDMDL
MODEL 4
REMARK VINA RESULT:      -7.5      8.163      9.854
REMARK  Name = 
REMARK  3 active torsions:
REMARK  status: ('A' for Active; 'I' for Inactive)
REMARK    1  A    between atoms: C_1  and  C_2
REMARK    2  A    between atoms: C_9  and  O_10
REMARK    3  A    between atoms: N_23  and  C_24
REMARK                            x       y       z     vdW  Elec       q    Type
REMARK                         _______ _______ _______ _____ _____    ______ ____
ROOT
ATOM      1  C   UNL     1       3.442  16.404  17.729  0.00  0.00    +0.000 C 
ATOM      2  C   UNL     1       3.938  15.702  19.030  0.00  0.00    +0.000 C 
ATOM      3  C   UNL     1       4.005  14.196  18.784  0.00  0.00    +0.000 C 
ATOM      4  C   UNL     1       2.661  13.542  18.643  0.00  0.00    +0.000 C 
ATOM      5  C   UNL     1       1.814  13.731  19.903  0.00  0.00    +0.000 C 
ATOM      6  C   UNL     1       0.418  13.123  19.693  0.00  0.00    +0.000 A 
ATOM      7  C   UNL     1       0.228  12.012  18.837  0.00  0.00    +0.000 A 
ATOM      8  C   UNL     1      -1.044  11.526  18.539  0.00  0.00    +0.000 A 
ATOM      9  C   UNL     1      -2.146  12.129  19.125  0.00  0.00    +0.000 A 
ATOM     10  C   UNL     1      -1.989  13.179  20.012  0.00  0.00    +0.000 A 
ATOM     11  C   UNL     1      -0.710  13.687  20.322  0.00  0.00    +0.000 A 
ATOM     12  C   UNL     1      -0.589  14.892  21.242  0.00  0.00    +0.000 C 
ATOM     13  C   UNL     1       0.860  15.313  21.586  0.00  0.00    +0.000 C 
ATOM     14  C   UNL     1       1.694  15.238  20.305  0.00  0.00    +0.000 C 
ATOM     15  C   UNL     1       2.925  16.176  20.121  0.00  0.00    +0.000 C 
ATOM     16  C   UNL     1       3.766  17.015  21.115  0.00  0.00    +0.000 C 
ATOM     17  C   UNL     1       4.940  17.519  20.204  0.00  0.00    +0.000 C 
ATOM     18  C   UNL     1       5.340  16.215  19.512  0.00  0.00    +0.000 C 
ATOM     19  C   UNL     1       6.090  15.386  20.571  0.00  0.00    +0.000 C 
ATOM     20  N   UNL     1       7.009  14.563  19.825  0.00  0.00    +0.000 NA
ATOM     21  C   UNL     1       7.081  15.130  18.657  0.00  0.00    +0.000 C 
ATOM     22  N   UNL     1       7.860  14.718  17.627  0.00  0.00    +0.000 N 
ATOM     23  O   UNL     1       6.276  16.228  18.435  0.00  0.00    +0.000 OA
ATOM     24  H   UNL     1       7.620  15.010  16.690  0.00  0.00    +0.000 HD
ENDROOT
BRANCH  22  25
ATOM     25  C   UNL     1       8.994  13.889  17.775  0.00  0.00    +0.000 A 
ATOM     26  C   UNL     1       8.910  12.495  17.675  0.00  0.00    +0.000 A 
ATOM     27  C   UNL     1      10.043  11.691  17.903  0.00  0.00    +0.000 A 
ATOM     28  C   UNL     1      11.263  12.266  18.236  0.00  0.00    +0.000 A 
ATOM     29  C   UNL     1      11.366  13.646  18.351  0.00  0.00    +0.000 A 
ATOM     30  C   UNL     1      10.239  14.441  18.136  0.00  0.00    +0.000 A 
ENDBRANCH  22  25
BRANCH   9  31
ATOM     31  O   UNL     1      -3.407  11.697  18.824  0.00  0.00    +0.000 OA
ATOM     32  H   UNL     1      -3.596  10.901  19.345  0.00  0.00    +0.000 HD
ENDBRANCH   9  31
TORSDOF 2
ENDMDL
MODEL 5
REMARK VINA RESULT:      -7.4      3.769      9.472
REMARK  Name = 
REMARK  3 active torsions:
REMARK  status: ('A' for Active; 'I' for Inactive)
REMARK    1  A    between atoms: C_1  and  C_2
REMARK    2  A    between atoms: C_9  and  O_10
REMARK    3  A    between atoms: N_23  and  C_24
REMARK                            x       y       z     vdW  Elec       q    Type
REMARK                         _______ _______ _______ _____ _____    ______ ____
ROOT
ATOM      1  C   UNL     1      -0.270   9.287  17.764  0.00  0.00    +0.000 C 
ATOM      2  C   UNL     1       0.753   9.600  18.898  0.00  0.00    +0.000 C 
ATOM      3  C   UNL     1       2.058  10.082  18.266  0.00  0.00    +0.000 C 
ATOM      4  C   UNL     1       2.812   9.010  17.535  0.00  0.00    +0.000 C 
ATOM      5  C   UNL     1       3.191   7.859  18.469  0.00  0.00    +0.000 C 
ATOM      6  C   UNL     1       3.888   6.743  17.673  0.00  0.00    +0.000 A 
ATOM      7  C   UNL     1       4.654   7.040  16.521  0.00  0.00    +0.000 A 
ATOM      8  C   UNL     1       5.189   6.035  15.718  0.00  0.00    +0.000 A 
ATOM      9  C   UNL     1       4.990   4.712  16.079  0.00  0.00    +0.000 A 
ATOM     10  C   UNL     1       4.295   4.391  17.232  0.00  0.00    +0.000 A 
ATOM     11  C   UNL     1       3.743   5.394  18.054  0.00  0.00    +0.000 A 
ATOM     12  C   UNL     1       2.920   4.995  19.269  0.00  0.00    +0.000 C 
ATOM     13  C   UNL     1       2.436   6.170  20.151  0.00  0.00    +0.000 C 
ATOM     14  C   UNL     1       1.947   7.288  19.226  0.00  0.00    +0.000 C 
ATOM     15  C   UNL     1       0.833   8.267  19.708  0.00  0.00    +0.000 C 
ATOM     16  C   UNL     1       0.271   8.611  21.110  0.00  0.00    +0.000 C 
ATOM     17  C   UNL     1      -0.679   9.819  20.791  0.00  0.00    +0.000 C 
ATOM     18  C   UNL     1       0.237  10.676  19.916  0.00  0.00    +0.000 C 
ATOM     19  C   UNL     1       1.259  11.317  20.873  0.00  0.00    +0.000 C 
ATOM     20  N   UNL     1       1.635  12.561  20.247  0.00  0.00    +0.000 NA
ATOM     21  C   UNL     1       0.699  12.780  19.371  0.00  0.00    +0.000 C 
ATOM     22  N   UNL     1       0.616  13.865  18.561  0.00  0.00    +0.000 N 
ATOM     23  O   UNL     1      -0.279  11.817  19.234  0.00  0.00    +0.000 OA
ATOM     24  H   UNL     1       0.060  13.800  17.720  0.00  0.00    +0.000 HD
ENDROOT
BRANCH  22  25
ATOM     25  C   UNL     1       1.271  15.091  18.812  0.00  0.00    +0.000 A 
ATOM     26  C   UNL     1       2.548  15.365  18.306  0.00  0.00    +0.000 A 
ATOM     27  C   UNL     1       3.207  16.564  18.635  0.00  0.00    +0.000 A 
ATOM     28  C   UNL     1       2.604  17.496  19.471  0.00  0.00    +0.000 A 
ATOM     29  C   UNL     1       1.343  17.239  19.992  0.00  0.00    +0.000 A 
ATOM     30  C   UNL     1       0.696  16.044  19.674  0.00  0.00    +0.000 A 
ENDBRANCH  22  25
BRANCH   9  31
ATOM     31  O   UNL     1       5.472   3.704  15.292  0.00  0.00    +0.000 OA
ATOM     32  H   UNL     1       6.414   3.580  15.487  0.00  0.00    +0.000 HD
ENDBRANCH   9  31
TORSDOF 2
ENDMDL
MODEL 6
REMARK VINA RESULT:      -7.2      5.088      8.720
REMARK  Name = 
REMARK  3 active torsions:
REMARK  status: ('A' for Active; 'I' for Inactive)
REMARK    1  A    between atoms: C_1  and  C_2
REMARK    2  A    between atoms: C_9  and  O_10
REMARK    3  A    between atoms: N_23  and  C_24
REMARK                            x       y       z     vdW  Elec       q    Type
REMARK                         _______ _______ _______ _____ _____    ______ ____
ROOT
ATOM      1  C   UNL     1      -0.455  13.044  19.758  0.00  0.00    +0.000 C 
ATOM      2  C   UNL     1      -1.196  11.843  20.422  0.00  0.00    +0.000 C 
ATOM      3  C   UNL     1      -1.731  10.926  19.323  0.00  0.00    +0.000 C 
ATOM      4  C   UNL     1      -2.864  11.516  18.536  0.00  0.00    +0.000 C 
ATOM      5  C   UNL     1      -4.057  11.845  19.435  0.00  0.00    +0.000 C 
ATOM      6  C   UNL     1      -5.165  12.522  18.612  0.00  0.00    +0.000 A 
ATOM      7  C   UNL     1      -5.337  12.227  17.240  0.00  0.00    +0.000 A 
ATOM      8  C   UNL     1      -6.253  12.921  16.450  0.00  0.00    +0.000 A 
ATOM      9  C   UNL     1      -7.036  13.901  17.037  0.00  0.00    +0.000 A 
ATOM     10  C   UNL     1      -6.933  14.173  18.390  0.00  0.00    +0.000 A 
ATOM     11  C   UNL     1      -6.008  13.484  19.203  0.00  0.00    +0.000 A 
ATOM     12  C   UNL     1      -5.873  13.868  20.668  0.00  0.00    +0.000 C 
ATOM     13  C   UNL     1      -4.897  12.994  21.490  0.00  0.00    +0.000 C 
ATOM     14  C   UNL     1      -3.646  12.752  20.641  0.00  0.00    +0.000 C 
ATOM     15  C   UNL     1      -2.268  12.522  21.332  0.00  0.00    +0.000 C 
ATOM     16  C   UNL     1      -1.868  12.141  22.780  0.00  0.00    +0.000 C 
ATOM     17  C   UNL     1      -0.322  11.905  22.639  0.00  0.00    +0.000 C 
ATOM     18  C   UNL     1      -0.284  11.017  21.394  0.00  0.00    +0.000 C 
ATOM     19  C   UNL     1      -0.779   9.631  21.847  0.00  0.00    +0.000 C 
ATOM     20  N   UNL     1      -0.133   8.691  20.965  0.00  0.00    +0.000 NA
ATOM     21  C   UNL     1       0.850   9.362  20.438  0.00  0.00    +0.000 C 
ATOM     22  N   UNL     1       1.760   8.869  19.563  0.00  0.00    +0.000 N 
ATOM     23  O   UNL     1       0.960  10.694  20.776  0.00  0.00    +0.000 OA
ATOM     24  H   UNL     1       2.270   9.516  18.978  0.00  0.00    +0.000 HD
ENDROOT
BRANCH  22  25
ATOM     25  C   UNL     1       2.040   7.494  19.403  0.00  0.00    +0.000 A 
ATOM     26  C   UNL     1       2.489   6.967  18.186  0.00  0.00    +0.000 A 
ATOM     27  C   UNL     1       2.687   5.582  18.034  0.00  0.00    +0.000 A 
ATOM     28  C   UNL     1       2.437   4.712  19.088  0.00  0.00    +0.000 A 
ATOM     29  C   UNL     1       1.981   5.212  20.300  0.00  0.00    +0.000 A 
ATOM     30  C   UNL     1       1.773   6.585  20.445  0.00  0.00    +0.000 A 
ENDBRANCH  22  25
BRANCH   9  31
ATOM     31  O   UNL     1      -7.916  14.623  16.281  0.00  0.00    +0.000 OA
ATOM     32  H   UNL     1      -7.807  14.370  15.351  0.00  0.00    +0.000 HD
ENDBRANCH   9  31
TORSDOF 2
ENDMDL
MODEL 7
REMARK VINA RESULT:      -7.1      4.443      7.583
REMARK  Name = 
REMARK  3 active torsions:
REMARK  status: ('A' for Active; 'I' for Inactive)
REMARK    1  A    between atoms: C_1  and  C_2
REMARK    2  A    between atoms: C_9  and  O_10
REMARK    3  A    between atoms: N_23  and  C_24
REMARK                            x       y       z     vdW  Elec       q    Type
REMARK                         _______ _______ _______ _____ _____    ______ ____
ROOT
ATOM      1  C   UNL     1       0.307  12.582  18.273  0.00  0.00    +0.000 C 
ATOM      2  C   UNL     1      -0.150  11.494  19.292  0.00  0.00    +0.000 C 
ATOM      3  C   UNL     1      -0.980  10.445  18.554  0.00  0.00    +0.000 C 
ATOM      4  C   UNL     1      -2.321  10.942  18.098  0.00  0.00    +0.000 C 
ATOM      5  C   UNL     1      -3.174  11.407  19.279  0.00  0.00    +0.000 C 
ATOM      6  C   UNL     1      -4.505  11.985  18.770  0.00  0.00    +0.000 A 
ATOM      7  C   UNL     1      -5.097  11.510  17.576  0.00  0.00    +0.000 A 
ATOM      8  C   UNL     1      -6.235  12.105  17.035  0.00  0.00    +0.000 A 
ATOM      9  C   UNL     1      -6.818  13.168  17.705  0.00  0.00    +0.000 A 
ATOM     10  C   UNL     1      -6.298  13.618  18.906  0.00  0.00    +0.000 A 
ATOM     11  C   UNL     1      -5.144  13.031  19.465  0.00  0.00    +0.000 A 
ATOM     12  C   UNL     1      -4.561  13.607  20.746  0.00  0.00    +0.000 C 
ATOM     13  C   UNL     1      -3.349  12.836  21.322  0.00  0.00    +0.000 C 
ATOM     14  C   UNL     1      -2.427  12.463  20.159  0.00  0.00    +0.000 C 
ATOM     15  C   UNL     1      -0.895  12.306  20.398  0.00  0.00    +0.000 C 
ATOM     16  C   UNL     1      -0.044  12.117  21.680  0.00  0.00    +0.000 C 
ATOM     17  C   UNL     1       1.382  11.840  21.085  0.00  0.00    +0.000 C 
ATOM     18  C   UNL     1       1.047  10.792  20.024  0.00  0.00    +0.000 C 
ATOM     19  C   UNL     1       0.761   9.488  20.791  0.00  0.00    +0.000 C 
ATOM     20  N   UNL     1       1.120   8.427  19.882  0.00  0.00    +0.000 NA
ATOM     21  C   UNL     1       1.864   9.005  18.985  0.00  0.00    +0.000 C 
ATOM     22  N   UNL     1       2.462   8.384  17.939  0.00  0.00    +0.000 N 
ATOM     23  O   UNL     1       2.039  10.369  19.090  0.00  0.00    +0.000 OA
ATOM     24  H   UNL     1       2.741   8.939  17.141  0.00  0.00    +0.000 HD
ENDROOT
BRANCH  22  25
ATOM     25  C   UNL     1       2.716   6.996  17.882  0.00  0.00    +0.000 A 
ATOM     26  C   UNL     1       4.001   6.487  17.660  0.00  0.00    +0.000 A 
ATOM     27  C   UNL     1       4.211   5.101  17.533  0.00  0.00    +0.000 A 
ATOM     28  C   UNL     1       3.146   4.214  17.621  0.00  0.00    +0.000 A 
ATOM     29  C   UNL     1       1.862   4.698  17.829  0.00  0.00    +0.000 A 
ATOM     30  C   UNL     1       1.653   6.073  17.943  0.00  0.00    +0.000 A 
ENDBRANCH  22  25
BRANCH   9  31
ATOM     31  O   UNL     1      -7.914  13.795  17.181  0.00  0.00    +0.000 OA
ATOM     32  H   UNL     1      -7.637  14.305  16.404  0.00  0.00    +0.000 HD
ENDBRANCH   9  31
TORSDOF 2
ENDMDL
MODEL 8
REMARK VINA RESULT:      -7.0      8.074     10.032
REMARK  Name = 
REMARK  3 active torsions:
REMARK  status: ('A' for Active; 'I' for Inactive)
REMARK    1  A    between atoms: C_1  and  C_2
REMARK    2  A    between atoms: C_9  and  O_10
REMARK    3  A    between atoms: N_23  and  C_24
REMARK                            x       y       z     vdW  Elec       q    Type
REMARK                         _______ _______ _______ _____ _____    ______ ____
ROOT
ATOM      1  C   UNL     1       3.500  16.351  18.275  0.00  0.00    +0.000 C 
ATOM      2  C   UNL     1       4.229  15.911  19.581  0.00  0.00    +0.000 C 
ATOM      3  C   UNL     1       4.187  14.387  19.679  0.00  0.00    +0.000 C 
ATOM      4  C   UNL     1       2.821  13.832  19.955  0.00  0.00    +0.000 C 
ATOM      5  C   UNL     1       2.261  14.360  21.277  0.00  0.00    +0.000 C 
ATOM      6  C   UNL     1       0.830  13.839  21.487  0.00  0.00    +0.000 A 
ATOM      7  C   UNL     1       0.425  12.588  20.963  0.00  0.00    +0.000 A 
ATOM      8  C   UNL     1      -0.898  12.156  21.036  0.00  0.00    +0.000 A 
ATOM      9  C   UNL     1      -1.831  12.961  21.669  0.00  0.00    +0.000 A 
ATOM     10  C   UNL     1      -1.455  14.162  22.244  0.00  0.00    +0.000 A 
ATOM     11  C   UNL     1      -0.122  14.618  22.175  0.00  0.00    +0.000 A 
ATOM     12  C   UNL     1       0.231  15.980  22.752  0.00  0.00    +0.000 C 
ATOM     13  C   UNL     1       1.734  16.344  22.703  0.00  0.00    +0.000 C 
ATOM     14  C   UNL     1       2.282  15.923  21.337  0.00  0.00    +0.000 C 
ATOM     15  C   UNL     1       3.482  16.693  20.708  0.00  0.00    +0.000 C 
ATOM     16  C   UNL     1       4.541  17.656  21.301  0.00  0.00    +0.000 C 
ATOM     17  C   UNL     1       5.519  17.851  20.089  0.00  0.00    +0.000 C 
ATOM     18  C   UNL     1       5.719  16.399  19.651  0.00  0.00    +0.000 C 
ATOM     19  C   UNL     1       6.640  15.761  20.707  0.00  0.00    +0.000 C 
ATOM     20  N   UNL     1       7.354  14.722  20.007  0.00  0.00    +0.000 NA
ATOM     21  C   UNL     1       7.203  15.013  18.749  0.00  0.00    +0.000 C 
ATOM     22  N   UNL     1       7.736  14.323  17.710  0.00  0.00    +0.000 N 
ATOM     23  O   UNL     1       6.411  16.099  18.441  0.00  0.00    +0.000 OA
ATOM     24  H   UNL     1       7.318  14.423  16.796  0.00  0.00    +0.000 HD
ENDROOT
BRANCH  22  25
ATOM     25  C   UNL     1       8.845  13.456  17.823  0.00  0.00    +0.000 A 
ATOM     26  C   UNL     1      10.162  13.925  17.743  0.00  0.00    +0.000 A 
ATOM     27  C   UNL     1      11.246  13.028  17.782  0.00  0.00    +0.000 A 
ATOM     28  C   UNL     1      11.028  11.660  17.898  0.00  0.00    +0.000 A 
ATOM     29  C   UNL     1       9.730  11.173  17.968  0.00  0.00    +0.000 A 
ATOM     30  C   UNL     1       8.656  12.063  17.916  0.00  0.00    +0.000 A 
ENDBRANCH  22  25
BRANCH   9  31
ATOM     31  O   UNL     1      -3.142  12.580  21.725  0.00  0.00    +0.000 OA
ATOM     32  H   UNL     1      -3.217  11.805  22.303  0.00  0.00    +0.000 HD
ENDBRANCH   9  31
TORSDOF 2
ENDMDL
MODEL 9
REMARK VINA RESULT:      -6.9      8.708     10.174
REMARK  Name = 
REMARK  3 active torsions:
REMARK  status: ('A' for Active; 'I' for Inactive)
REMARK    1  A    between atoms: C_1  and  C_2
REMARK    2  A    between atoms: C_9  and  O_10
REMARK    3  A    between atoms: N_23  and  C_24
REMARK                            x       y       z     vdW  Elec       q    Type
REMARK                         _______ _______ _______ _____ _____    ______ ____
ROOT
ATOM      1  C   UNL     1       0.584  16.474  18.643  0.00  0.00    +0.000 C 
ATOM      2  C   UNL     1       1.143  15.397  19.623  0.00  0.00    +0.000 C 
ATOM      3  C   UNL     1       1.472  14.133  18.830  0.00  0.00    +0.000 C 
ATOM      4  C   UNL     1       0.264  13.405  18.319  0.00  0.00    +0.000 C 
ATOM      5  C   UNL     1      -0.649  12.964  19.465  0.00  0.00    +0.000 C 
ATOM      6  C   UNL     1      -1.914  12.296  18.903  0.00  0.00    +0.000 A 
ATOM      7  C   UNL     1      -1.883  11.594  17.675  0.00  0.00    +0.000 A 
ATOM      8  C   UNL     1      -3.043  11.089  17.090  0.00  0.00    +0.000 A 
ATOM      9  C   UNL     1      -4.251  11.253  17.748  0.00  0.00    +0.000 A 
ATOM     10  C   UNL     1      -4.306  11.883  18.979  0.00  0.00    +0.000 A 
ATOM     11  C   UNL     1      -3.144  12.404  19.583  0.00  0.00    +0.000 A 
ATOM     12  C   UNL     1      -3.261  13.158  20.899  0.00  0.00    +0.000 C 
ATOM     13  C   UNL     1      -1.917  13.611  21.520  0.00  0.00    +0.000 C 
ATOM     14  C   UNL     1      -1.036  14.160  20.395  0.00  0.00    +0.000 C 
ATOM     15  C   UNL     1       0.026  15.259  20.705  0.00  0.00    +0.000 C 
ATOM     16  C   UNL     1       0.676  15.753  22.022  0.00  0.00    +0.000 C 
ATOM     17  C   UNL     1       1.781  16.733  21.491  0.00  0.00    +0.000 C 
ATOM     18  C   UNL     1       2.420  15.873  20.399  0.00  0.00    +0.000 C 
ATOM     19  C   UNL     1       3.259  14.811  21.133  0.00  0.00    +0.000 C 
ATOM     20  N   UNL     1       4.331  14.483  20.225  0.00  0.00    +0.000 NA
ATOM     21  C   UNL     1       4.349  15.466  19.373  0.00  0.00    +0.000 C 
ATOM     22  N   UNL     1       5.224  15.604  18.347  0.00  0.00    +0.000 N 
ATOM     23  O   UNL     1       3.379  16.438  19.507  0.00  0.00    +0.000 OA
ATOM     24  H   UNL     1       4.972  16.202  17.572  0.00  0.00    +0.000 HD
ENDROOT
BRANCH  22  25
ATOM     25  C   UNL     1       6.475  14.952  18.281  0.00  0.00    +0.000 A 
ATOM     26  C   UNL     1       6.667  13.794  17.518  0.00  0.00    +0.000 A 
ATOM     27  C   UNL     1       7.904  13.123  17.532  0.00  0.00    +0.000 A 
ATOM     28  C   UNL     1       8.956  13.596  18.307  0.00  0.00    +0.000 A 
ATOM     29  C   UNL     1       8.784  14.737  19.080  0.00  0.00    +0.000 A 
ATOM     30  C   UNL     1       7.552  15.394  19.074  0.00  0.00    +0.000 A 
ENDBRANCH  22  25
BRANCH   9  31
ATOM     31  O   UNL     1      -5.410  10.800  17.182  0.00  0.00    +0.000 OA
ATOM     32  H   UNL     1      -5.191  10.113  16.534  0.00  0.00    +0.000 HD
ENDBRANCH   9  31
TORSDOF 2
ENDMDL
