MODEL 1
REMARK VINA RESULT:      -8.5      0.000      0.000
REMARK  Name = 
REMARK  4 active torsions:
REMARK  status: ('A' for Active; 'I' for Inactive)
REMARK    1  A    between atoms: C_6  and  C_7
REMARK    2  A    between atoms: N_10  and  C_11
REMARK    3  A    between atoms: C_11  and  C_12
REMARK    4  A    between atoms: C_15  and  C_16
REMARK                            x       y       z     vdW  Elec       q    Type
REMARK                         _______ _______ _______ _____ _____    ______ ____
ROOT
ATOM      1  C   UNL     1       5.033   4.710  15.970  0.00  0.00    +0.000 C 
ATOM      2  C   UNL     1       6.433   4.121  16.161  0.00  0.00    +0.000 C 
ATOM      3  C   UNL     1       7.168   4.756  17.340  0.00  0.00    +0.000 C 
ATOM      4  N   UNL     1       7.257   6.221  17.225  0.00  0.00    +0.000 NA
ATOM      5  C   UNL     1       5.931   6.834  17.047  0.00  0.00    +0.000 C 
ATOM      6  C   UNL     1       5.169   6.236  15.861  0.00  0.00    +0.000 C 
ENDROOT
BRANCH   1  12
ATOM      7  C   UNL     1       1.259   2.699  20.368  0.00  0.00    +0.000 A 
ATOM      8  C   UNL     1       1.216   4.058  20.671  0.00  0.00    +0.000 A 
ATOM      9  C   UNL     1       1.914   4.993  19.899  0.00  0.00    +0.000 A 
ATOM     10  C   UNL     1       2.659   4.508  18.822  0.00  0.00    +0.000 A 
ATOM     11  N   UNL     1       3.457   5.177  17.916  0.00  0.00    +0.000 N 
ATOM     12  C   UNL     1       4.039   4.291  17.031  0.00  0.00    +0.000 A 
ATOM     13  C   UNL     1       3.572   3.035  17.373  0.00  0.00    +0.000 A 
ATOM     14  C   UNL     1       2.719   3.157  18.497  0.00  0.00    +0.000 A 
ATOM     15  C   UNL     1       2.004   2.234  19.280  0.00  0.00    +0.000 A 
ATOM     16  H   UNL     1       3.599   6.175  17.926  0.00  0.00    +0.000 HD
ENDBRANCH   1  12
BRANCH   4  17
ATOM     17  C   UNL     1       7.896   6.794  18.437  0.00  0.00    +0.000 C 
BRANCH  17  18
ATOM     18  C   UNL     1       8.232   8.247  18.284  0.00  0.00    +0.000 A 
ATOM     19  N   UNL     1       7.712   9.027  17.327  0.00  0.00    +0.000 NA
ATOM     20  O   UNL     1       8.239  10.287  17.625  0.00  0.00    +0.000 OA
ATOM     21  C   UNL     1       9.022  10.135  18.736  0.00  0.00    +0.000 A 
ATOM     22  N   UNL     1       9.063   8.895  19.169  0.00  0.00    +0.000 NA
BRANCH  21  23
ATOM     23  C   UNL     1       9.732  11.297  19.416  0.00  0.00    +0.000 C 
ATOM     24  C   UNL     1      11.181  11.562  19.051  0.00  0.00    +0.000 C 
ATOM     25  C   UNL     1      10.124  12.502  18.586  0.00  0.00    +0.000 C 
ENDBRANCH  21  23
ENDBRANCH  17  18
ENDBRANCH   4  17
TORSDOF 4
ENDMDL
MODEL 2
REMARK VINA RESULT:      -8.5      3.928      6.352
REMARK  Name = 
REMARK  4 active torsions:
REMARK  status: ('A' for Active; 'I' for Inactive)
REMARK    1  A    between atoms: C_6  and  C_7
REMARK    2  A    between atoms: N_10  and  C_11
REMARK    3  A    between atoms: C_11  and  C_12
REMARK    4  A    between atoms: C_15  and  C_16
REMARK                            x       y       z     vdW  Elec       q    Type
REMARK                         _______ _______ _______ _____ _____    ______ ____
ROOT
ATOM      1  C   UNL     1       2.397   4.989  19.129  0.00  0.00    +0.000 C 
ATOM      2  C   UNL     1       3.532   4.494  20.030  0.00  0.00    +0.000 C 
ATOM      3  C   UNL     1       4.904   4.926  19.517  0.00  0.00    +0.000 C 
ATOM      4  N   UNL     1       5.148   4.496  18.130  0.00  0.00    +0.000 NA
ATOM      5  C   UNL     1       4.084   4.955  17.223  0.00  0.00    +0.000 C 
ATOM      6  C   UNL     1       2.693   4.526  17.694  0.00  0.00    +0.000 C 
ENDROOT
BRANCH   1  12
ATOM      7  C   UNL     1       1.163  10.998  19.135  0.00  0.00    +0.000 A 
ATOM      8  C   UNL     1       0.914  10.739  20.481  0.00  0.00    +0.000 A 
ATOM      9  C   UNL     1       1.095   9.459  21.017  0.00  0.00    +0.000 A 
ATOM     10  C   UNL     1       1.527   8.455  20.148  0.00  0.00    +0.000 A 
ATOM     11  N   UNL     1       1.763   7.115  20.380  0.00  0.00    +0.000 N 
ATOM     12  C   UNL     1       2.147   6.479  19.217  0.00  0.00    +0.000 A 
ATOM     13  C   UNL     1       2.182   7.450  18.234  0.00  0.00    +0.000 A 
ATOM     14  C   UNL     1       1.785   8.686  18.801  0.00  0.00    +0.000 A 
ATOM     15  C   UNL     1       1.605   9.981  18.283  0.00  0.00    +0.000 A 
ATOM     16  H   UNL     1       1.646   6.675  21.279  0.00  0.00    +0.000 HD
ENDBRANCH   1  12
BRANCH   4  17
ATOM     17  C   UNL     1       6.453   5.019  17.651  0.00  0.00    +0.000 C 
BRANCH  17  18
ATOM     18  C   UNL     1       6.612   4.909  16.165  0.00  0.00    +0.000 A 
ATOM     19  N   UNL     1       7.293   5.798  15.428  0.00  0.00    +0.000 NA
ATOM     20  O   UNL     1       7.240   5.251  14.144  0.00  0.00    +0.000 OA
ATOM     21  C   UNL     1       6.533   4.084  14.239  0.00  0.00    +0.000 A 
ATOM     22  N   UNL     1       6.110   3.839  15.459  0.00  0.00    +0.000 NA
BRANCH  21  23
ATOM     23  C   UNL     1       6.302   3.154  13.057  0.00  0.00    +0.000 C 
ATOM     24  C   UNL     1       5.212   3.515  12.065  0.00  0.00    +0.000 C 
ATOM     25  C   UNL     1       6.641   3.643  11.664  0.00  0.00    +0.000 C 
ENDBRANCH  21  23
ENDBRANCH  17  18
ENDBRANCH   4  17
TORSDOF 4
ENDMDL
MODEL 3
REMARK VINA RESULT:      -8.4      0.835      1.140
REMARK  Name = 
REMARK  4 active torsions:
REMARK  status: ('A' for Active; 'I' for Inactive)
REMARK    1  A    between atoms: C_6  and  C_7
REMARK    2  A    between atoms: N_10  and  C_11
REMARK    3  A    between atoms: C_11  and  C_12
REMARK    4  A    between atoms: C_15  and  C_16
REMARK                            x       y       z     vdW  Elec       q    Type
REMARK                         _______ _______ _______ _____ _____    ______ ____
ROOT
ATOM      1  C   UNL     1       5.107   4.708  16.349  0.00  0.00    +0.000 C 
ATOM      2  C   UNL     1       6.530   4.165  16.510  0.00  0.00    +0.000 C 
ATOM      3  C   UNL     1       7.309   4.906  17.595  0.00  0.00    +0.000 C 
ATOM      4  N   UNL     1       7.356   6.359  17.363  0.00  0.00    +0.000 NA
ATOM      5  C   UNL     1       6.008   6.929  17.208  0.00  0.00    +0.000 C 
ATOM      6  C   UNL     1       5.200   6.224  16.115  0.00  0.00    +0.000 C 
ENDROOT
BRANCH   1  12
ATOM      7  C   UNL     1       1.048   3.221  20.701  0.00  0.00    +0.000 A 
ATOM      8  C   UNL     1       2.118   2.450  21.151  0.00  0.00    +0.000 A 
ATOM      9  C   UNL     1       3.352   2.471  20.490  0.00  0.00    +0.000 A 
ATOM     10  C   UNL     1       3.462   3.284  19.361  0.00  0.00    +0.000 A 
ATOM     11  N   UNL     1       4.526   3.484  18.505  0.00  0.00    +0.000 N 
ATOM     12  C   UNL     1       4.180   4.354  17.492  0.00  0.00    +0.000 A 
ATOM     13  C   UNL     1       2.874   4.735  17.733  0.00  0.00    +0.000 A 
ATOM     14  C   UNL     1       2.411   4.064  18.891  0.00  0.00    +0.000 A 
ATOM     15  C   UNL     1       1.181   4.037  19.573  0.00  0.00    +0.000 A 
ATOM     16  H   UNL     1       5.421   3.031  18.611  0.00  0.00    +0.000 HD
ENDBRANCH   1  12
BRANCH   4  17
ATOM     17  C   UNL     1       8.042   7.039  18.490  0.00  0.00    +0.000 C 
BRANCH  17  18
ATOM     18  C   UNL     1       8.282   8.495  18.231  0.00  0.00    +0.000 A 
ATOM     19  N   UNL     1       7.614   9.200  17.308  0.00  0.00    +0.000 NA
ATOM     20  O   UNL     1       8.106  10.496  17.481  0.00  0.00    +0.000 OA
ATOM     21  C   UNL     1       9.021  10.439  18.496  0.00  0.00    +0.000 A 
ATOM     22  N   UNL     1       9.177   9.227  18.978  0.00  0.00    +0.000 NA
BRANCH  21  23
ATOM     23  C   UNL     1       9.745  11.666  19.030  0.00  0.00    +0.000 C 
ATOM     24  C   UNL     1      11.011  12.115  18.323  0.00  0.00    +0.000 C 
ATOM     25  C   UNL     1       9.769  12.926  18.189  0.00  0.00    +0.000 C 
ENDBRANCH  21  23
ENDBRANCH  17  18
ENDBRANCH   4  17
TORSDOF 4
ENDMDL
MODEL 4
REMARK VINA RESULT:      -8.3      3.704      7.754
REMARK  Name = 
REMARK  4 active torsions:
REMARK  status: ('A' for Active; 'I' for Inactive)
REMARK    1  A    between atoms: C_6  and  C_7
REMARK    2  A    between atoms: N_10  and  C_11
REMARK    3  A    between atoms: C_11  and  C_12
REMARK    4  A    between atoms: C_15  and  C_16
REMARK                            x       y       z     vdW  Elec       q    Type
REMARK                         _______ _______ _______ _____ _____    ______ ____
ROOT
ATOM      1  C   UNL     1       6.964   5.666  17.340  0.00  0.00    +0.000 C 
ATOM      2  C   UNL     1       6.206   4.857  18.395  0.00  0.00    +0.000 C 
ATOM      3  C   UNL     1       4.692   4.987  18.241  0.00  0.00    +0.000 C 
ATOM      4  N   UNL     1       4.241   6.388  18.272  0.00  0.00    +0.000 NA
ATOM      5  C   UNL     1       4.939   7.207  17.267  0.00  0.00    +0.000 C 
ATOM      6  C   UNL     1       6.461   7.117  17.401  0.00  0.00    +0.000 C 
ENDROOT
BRANCH   1  12
ATOM      7  C   UNL     1       6.240   3.313  11.722  0.00  0.00    +0.000 A 
ATOM      8  C   UNL     1       7.214   4.263  11.420  0.00  0.00    +0.000 A 
ATOM      9  C   UNL     1       7.767   5.074  12.416  0.00  0.00    +0.000 A 
ATOM     10  C   UNL     1       7.297   4.900  13.719  0.00  0.00    +0.000 A 
ATOM     11  N   UNL     1       7.630   5.562  14.884  0.00  0.00    +0.000 N 
ATOM     12  C   UNL     1       6.888   5.085  15.945  0.00  0.00    +0.000 A 
ATOM     13  C   UNL     1       6.089   4.076  15.441  0.00  0.00    +0.000 A 
ATOM     14  C   UNL     1       6.327   3.959  14.049  0.00  0.00    +0.000 A 
ATOM     15  C   UNL     1       5.790   3.147  13.036  0.00  0.00    +0.000 A 
ATOM     16  H   UNL     1       8.310   6.305  14.929  0.00  0.00    +0.000 HD
ENDBRANCH   1  12
BRANCH   4  17
ATOM     17  C   UNL     1       2.778   6.464  18.025  0.00  0.00    +0.000 C 
BRANCH  17  18
ATOM     18  C   UNL     1       2.069   5.181  18.338  0.00  0.00    +0.000 A 
ATOM     19  N   UNL     1       1.525   4.392  17.401  0.00  0.00    +0.000 NA
ATOM     20  O   UNL     1       1.061   3.300  18.138  0.00  0.00    +0.000 OA
ATOM     21  C   UNL     1       1.378   3.542  19.447  0.00  0.00    +0.000 A 
ATOM     22  N   UNL     1       1.984   4.695  19.623  0.00  0.00    +0.000 NA
BRANCH  21  23
ATOM     23  C   UNL     1       1.091   2.553  20.567  0.00  0.00    +0.000 C 
ATOM     24  C   UNL     1       2.270   1.955  21.313  0.00  0.00    +0.000 C 
ATOM     25  C   UNL     1       1.400   2.954  21.995  0.00  0.00    +0.000 C 
ENDBRANCH  21  23
ENDBRANCH  17  18
ENDBRANCH   4  17
TORSDOF 4
ENDMDL
MODEL 5
REMARK VINA RESULT:      -8.3      3.732      6.896
REMARK  Name = 
REMARK  4 active torsions:
REMARK  status: ('A' for Active; 'I' for Inactive)
REMARK    1  A    between atoms: C_6  and  C_7
REMARK    2  A    between atoms: N_10  and  C_11
REMARK    3  A    between atoms: C_11  and  C_12
REMARK    4  A    between atoms: C_15  and  C_16
REMARK                            x       y       z     vdW  Elec       q    Type
REMARK                         _______ _______ _______ _____ _____    ______ ____
ROOT
ATOM      1  C   UNL     1       6.924   5.427  17.519  0.00  0.00    +0.000 C 
ATOM      2  C   UNL     1       6.147   4.581  18.532  0.00  0.00    +0.000 C 
ATOM      3  C   UNL     1       4.637   4.754  18.388  0.00  0.00    +0.000 C 
ATOM      4  N   UNL     1       4.217   6.161  18.491  0.00  0.00    +0.000 NA
ATOM      5  C   UNL     1       4.933   7.015  17.530  0.00  0.00    +0.000 C 
ATOM      6  C   UNL     1       6.453   6.884  17.655  0.00  0.00    +0.000 C 
ENDROOT
BRANCH   1  12
ATOM      7  C   UNL     1       6.143   3.393  11.785  0.00  0.00    +0.000 A 
ATOM      8  C   UNL     1       7.157   4.316  11.536  0.00  0.00    +0.000 A 
ATOM      9  C   UNL     1       7.735   5.052  12.575  0.00  0.00    +0.000 A 
ATOM     10  C   UNL     1       7.250   4.832  13.866  0.00  0.00    +0.000 A 
ATOM     11  N   UNL     1       7.601   5.420  15.064  0.00  0.00    +0.000 N 
ATOM     12  C   UNL     1       6.833   4.920  16.096  0.00  0.00    +0.000 A 
ATOM     13  C   UNL     1       5.997   3.972  15.537  0.00  0.00    +0.000 A 
ATOM     14  C   UNL     1       6.240   3.917  14.142  0.00  0.00    +0.000 A 
ATOM     15  C   UNL     1       5.677   3.179  13.086  0.00  0.00    +0.000 A 
ATOM     16  H   UNL     1       8.311   6.131  15.150  0.00  0.00    +0.000 HD
ENDBRANCH   1  12
BRANCH   4  17
ATOM     17  C   UNL     1       2.757   6.282  18.252  0.00  0.00    +0.000 C 
BRANCH  17  18
ATOM     18  C   UNL     1       2.195   7.585  18.735  0.00  0.00    +0.000 A 
ATOM     19  N   UNL     1       1.852   8.589  17.916  0.00  0.00    +0.000 NA
ATOM     20  O   UNL     1       1.314   9.539  18.789  0.00  0.00    +0.000 OA
ATOM     21  C   UNL     1       1.387   9.007  20.046  0.00  0.00    +0.000 A 
ATOM     22  N   UNL     1       1.937   7.813  20.068  0.00  0.00    +0.000 NA
BRANCH  21  23
ATOM     23  C   UNL     1       0.845   9.714  21.279  0.00  0.00    +0.000 C 
ATOM     24  C   UNL     1      -0.610  10.146  21.276  0.00  0.00    +0.000 C 
ATOM     25  C   UNL     1      -0.184   9.007  22.137  0.00  0.00    +0.000 C 
ENDBRANCH  21  23
ENDBRANCH  17  18
ENDBRANCH   4  17
TORSDOF 4
ENDMDL
MODEL 6
REMARK VINA RESULT:      -8.3      3.163      6.776
REMARK  Name = 
REMARK  4 active torsions:
REMARK  status: ('A' for Active; 'I' for Inactive)
REMARK    1  A    between atoms: C_6  and  C_7
REMARK    2  A    between atoms: N_10  and  C_11
REMARK    3  A    between atoms: C_11  and  C_12
REMARK    4  A    between atoms: C_15  and  C_16
REMARK                            x       y       z     vdW  Elec       q    Type
REMARK                         _______ _______ _______ _____ _____    ______ ____
ROOT
ATOM      1  C   UNL     1       3.933   2.621  17.844  0.00  0.00    +0.000 C 
ATOM      2  C   UNL     1       2.511   2.939  17.373  0.00  0.00    +0.000 C 
ATOM      3  C   UNL     1       1.760   3.823  18.367  0.00  0.00    +0.000 C 
ATOM      4  N   UNL     1       1.717   3.240  19.718  0.00  0.00    +0.000 NA
ATOM      5  C   UNL     1       3.064   2.923  20.218  0.00  0.00    +0.000 C 
ATOM      6  C   UNL     1       3.843   2.022  19.256  0.00  0.00    +0.000 C 
ENDROOT
BRANCH   1  12
ATOM      7  C   UNL     1       7.451   7.637  17.542  0.00  0.00    +0.000 A 
ATOM      8  C   UNL     1       8.139   6.968  18.553  0.00  0.00    +0.000 A 
ATOM      9  C   UNL     1       7.737   5.699  18.983  0.00  0.00    +0.000 A 
ATOM     10  C   UNL     1       6.617   5.137  18.366  0.00  0.00    +0.000 A 
ATOM     11  N   UNL     1       5.983   3.933  18.596  0.00  0.00    +0.000 N 
ATOM     12  C   UNL     1       4.883   3.797  17.773  0.00  0.00    +0.000 A 
ATOM     13  C   UNL     1       4.842   4.932  16.985  0.00  0.00    +0.000 A 
ATOM     14  C   UNL     1       5.913   5.782  17.355  0.00  0.00    +0.000 A 
ATOM     15  C   UNL     1       6.338   7.053  16.930  0.00  0.00    +0.000 A 
ATOM     16  H   UNL     1       6.284   3.265  19.288  0.00  0.00    +0.000 HD
ENDBRANCH   1  12
BRANCH   4  17
ATOM     17  C   UNL     1       1.059   4.178  20.663  0.00  0.00    +0.000 C 
BRANCH  17  18
ATOM     18  C   UNL     1       1.531   5.591  20.502  0.00  0.00    +0.000 A 
ATOM     19  N   UNL     1       2.554   5.942  19.711  0.00  0.00    +0.000 NA
ATOM     20  O   UNL     1       2.572   7.335  19.814  0.00  0.00    +0.000 OA
ATOM     21  C   UNL     1       1.552   7.682  20.656  0.00  0.00    +0.000 A 
ATOM     22  N   UNL     1       0.893   6.643  21.119  0.00  0.00    +0.000 NA
BRANCH  21  23
ATOM     23  C   UNL     1       1.200   9.126  20.983  0.00  0.00    +0.000 C 
ATOM     24  C   UNL     1       0.356   9.900  19.987  0.00  0.00    +0.000 C 
ATOM     25  C   UNL     1      -0.242   9.478  21.285  0.00  0.00    +0.000 C 
ENDBRANCH  21  23
ENDBRANCH  17  18
ENDBRANCH   4  17
TORSDOF 4
ENDMDL
MODEL 7
REMARK VINA RESULT:      -8.2      3.453      6.028
REMARK  Name = 
REMARK  4 active torsions:
REMARK  status: ('A' for Active; 'I' for Inactive)
REMARK    1  A    between atoms: C_6  and  C_7
REMARK    2  A    between atoms: N_10  and  C_11
REMARK    3  A    between atoms: C_11  and  C_12
REMARK    4  A    between atoms: C_15  and  C_16
REMARK                            x       y       z     vdW  Elec       q    Type
REMARK                         _______ _______ _______ _____ _____    ______ ____
ROOT
ATOM      1  C   UNL     1       4.327   7.193  17.812  0.00  0.00    +0.000 C 
ATOM      2  C   UNL     1       4.353   7.179  16.281  0.00  0.00    +0.000 C 
ATOM      3  C   UNL     1       5.123   5.981  15.730  0.00  0.00    +0.000 C 
ATOM      4  N   UNL     1       6.498   5.906  16.250  0.00  0.00    +0.000 NA
ATOM      5  C   UNL     1       6.524   5.910  17.722  0.00  0.00    +0.000 C 
ATOM      6  C   UNL     1       5.777   7.108  18.314  0.00  0.00    +0.000 C 
ENDROOT
BRANCH   1  12
ATOM      7  C   UNL     1       0.863   2.622  19.988  0.00  0.00    +0.000 A 
ATOM      8  C   UNL     1       1.379   3.079  21.199  0.00  0.00    +0.000 A 
ATOM      9  C   UNL     1       2.236   4.184  21.249  0.00  0.00    +0.000 A 
ATOM     10  C   UNL     1       2.557   4.801  20.039  0.00  0.00    +0.000 A 
ATOM     11  N   UNL     1       3.384   5.875  19.778  0.00  0.00    +0.000 N 
ATOM     12  C   UNL     1       3.440   6.129  18.422  0.00  0.00    +0.000 A 
ATOM     13  C   UNL     1       2.603   5.209  17.818  0.00  0.00    +0.000 A 
ATOM     14  C   UNL     1       2.056   4.367  18.817  0.00  0.00    +0.000 A 
ATOM     15  C   UNL     1       1.190   3.260  18.788  0.00  0.00    +0.000 A 
ATOM     16  H   UNL     1       3.887   6.380  20.491  0.00  0.00    +0.000 HD
ENDBRANCH   1  12
BRANCH   4  17
ATOM     17  C   UNL     1       7.170   4.677  15.758  0.00  0.00    +0.000 C 
BRANCH  17  18
ATOM     18  C   UNL     1       7.147   4.561  14.264  0.00  0.00    +0.000 A 
ATOM     19  N   UNL     1       7.842   5.368  13.451  0.00  0.00    +0.000 NA
ATOM     20  O   UNL     1       7.580   4.842  12.183  0.00  0.00    +0.000 OA
ATOM     21  C   UNL     1       6.754   3.767  12.364  0.00  0.00    +0.000 A 
ATOM     22  N   UNL     1       6.445   3.564  13.625  0.00  0.00    +0.000 NA
BRANCH  21  23
ATOM     23  C   UNL     1       6.284   2.881  11.220  0.00  0.00    +0.000 C 
ATOM     24  C   UNL     1       7.159   1.709  10.815  0.00  0.00    +0.000 C 
ATOM     25  C   UNL     1       5.873   1.454  11.521  0.00  0.00    +0.000 C 
ENDBRANCH  21  23
ENDBRANCH  17  18
ENDBRANCH   4  17
TORSDOF 4
ENDMDL
MODEL 8
REMARK VINA RESULT:      -8.2      3.835      7.050
REMARK  Name = 
REMARK  4 active torsions:
REMARK  status: ('A' for Active; 'I' for Inactive)
REMARK    1  A    between atoms: C_6  and  C_7
REMARK    2  A    between atoms: N_10  and  C_11
REMARK    3  A    between atoms: C_11  and  C_12
REMARK    4  A    between atoms: C_15  and  C_16
REMARK                            x       y       z     vdW  Elec       q    Type
REMARK                         _______ _______ _______ _____ _____    ______ ____
ROOT
ATOM      1  C   UNL     1       7.038   5.775  17.292  0.00  0.00    +0.000 C 
ATOM      2  C   UNL     1       6.557   4.876  18.434  0.00  0.00    +0.000 C 
ATOM      3  C   UNL     1       5.036   4.735  18.454  0.00  0.00    +0.000 C 
ATOM      4  N   UNL     1       4.351   6.037  18.524  0.00  0.00    +0.000 NA
ATOM      5  C   UNL     1       4.777   6.936  17.439  0.00  0.00    +0.000 C 
ATOM      6  C   UNL     1       6.297   7.116  17.397  0.00  0.00    +0.000 C 
ENDROOT
BRANCH   1  12
ATOM      7  C   UNL     1       6.106   3.274  11.768  0.00  0.00    +0.000 A 
ATOM      8  C   UNL     1       7.141   4.141  11.426  0.00  0.00    +0.000 A 
ATOM      9  C   UNL     1       7.757   4.948  12.388  0.00  0.00    +0.000 A 
ATOM     10  C   UNL     1       7.287   4.854  13.700  0.00  0.00    +0.000 A 
ATOM     11  N   UNL     1       7.675   5.534  14.837  0.00  0.00    +0.000 N 
ATOM     12  C   UNL     1       6.910   5.149  15.920  0.00  0.00    +0.000 A 
ATOM     13  C   UNL     1       6.038   4.181  15.457  0.00  0.00    +0.000 A 
ATOM     14  C   UNL     1       6.257   3.997  14.070  0.00  0.00    +0.000 A 
ATOM     15  C   UNL     1       5.656   3.187  13.090  0.00  0.00    +0.000 A 
ATOM     16  H   UNL     1       8.405   6.228  14.851  0.00  0.00    +0.000 HD
ENDBRANCH   1  12
BRANCH   4  17
ATOM     17  C   UNL     1       2.880   5.849  18.448  0.00  0.00    +0.000 C 
BRANCH  17  18
ATOM     18  C   UNL     1       2.152   6.496  19.587  0.00  0.00    +0.000 A 
ATOM     19  N   UNL     1       1.607   5.808  20.599  0.00  0.00    +0.000 NA
ATOM     20  O   UNL     1       1.123   6.813  21.440  0.00  0.00    +0.000 OA
ATOM     21  C   UNL     1       1.430   8.007  20.848  0.00  0.00    +0.000 A 
ATOM     22  N   UNL     1       2.048   7.864  19.697  0.00  0.00    +0.000 NA
BRANCH  21  23
ATOM     23  C   UNL     1       1.120   9.353  21.484  0.00  0.00    +0.000 C 
ATOM     24  C   UNL     1      -0.290   9.900  21.353  0.00  0.00    +0.000 C 
ATOM     25  C   UNL     1       0.184   9.403  22.675  0.00  0.00    +0.000 C 
ENDBRANCH  21  23
ENDBRANCH  17  18
ENDBRANCH   4  17
TORSDOF 4
ENDMDL
MODEL 9
REMARK VINA RESULT:      -8.2      4.218      6.322
REMARK  Name = 
REMARK  4 active torsions:
REMARK  status: ('A' for Active; 'I' for Inactive)
REMARK    1  A    between atoms: C_6  and  C_7
REMARK    2  A    between atoms: N_10  and  C_11
REMARK    3  A    between atoms: C_11  and  C_12
REMARK    4  A    between atoms: C_15  and  C_16
REMARK                            x       y       z     vdW  Elec       q    Type
REMARK                         _______ _______ _______ _____ _____    ______ ____
ROOT
ATOM      1  C   UNL     1       3.346   4.046  18.457  0.00  0.00    +0.000 C 
ATOM      2  C   UNL     1       4.675   3.680  19.123  0.00  0.00    +0.000 C 
ATOM      3  C   UNL     1       5.862   4.368  18.453  0.00  0.00    +0.000 C 
ATOM      4  N   UNL     1       5.937   4.086  17.010  0.00  0.00    +0.000 NA
ATOM      5  C   UNL     1       4.681   4.428  16.323  0.00  0.00    +0.000 C 
ATOM      6  C   UNL     1       3.467   3.743  16.955  0.00  0.00    +0.000 C 
ENDROOT
BRANCH   1  12
ATOM      7  C   UNL     1       1.277   9.772  19.202  0.00  0.00    +0.000 A 
ATOM      8  C   UNL     1       1.117   9.327  20.513  0.00  0.00    +0.000 A 
ATOM      9  C   UNL     1       1.497   8.034  20.889  0.00  0.00    +0.000 A 
ATOM     10  C   UNL     1       2.033   7.210  19.898  0.00  0.00    +0.000 A 
ATOM     11  N   UNL     1       2.465   5.900  19.964  0.00  0.00    +0.000 N 
ATOM     12  C   UNL     1       2.891   5.464  18.726  0.00  0.00    +0.000 A 
ATOM     13  C   UNL     1       2.752   6.536  17.865  0.00  0.00    +0.000 A 
ATOM     14  C   UNL     1       2.206   7.628  18.583  0.00  0.00    +0.000 A 
ATOM     15  C   UNL     1       1.826   8.934  18.226  0.00  0.00    +0.000 A 
ATOM     16  H   UNL     1       2.444   5.347  20.807  0.00  0.00    +0.000 HD
ENDBRANCH   1  12
BRANCH   4  17
ATOM     17  C   UNL     1       7.050   4.850  16.392  0.00  0.00    +0.000 C 
BRANCH  17  18
ATOM     18  C   UNL     1       7.056   4.761  14.897  0.00  0.00    +0.000 A 
ATOM     19  N   UNL     1       7.827   5.529  14.115  0.00  0.00    +0.000 NA
ATOM     20  O   UNL     1       7.559   5.044  12.832  0.00  0.00    +0.000 OA
ATOM     21  C   UNL     1       6.654   4.029  12.974  0.00  0.00    +0.000 A 
ATOM     22  N   UNL     1       6.300   3.828  14.223  0.00  0.00    +0.000 NA
BRANCH  21  23
ATOM     23  C   UNL     1       6.149   3.198  11.803  0.00  0.00    +0.000 C 
ATOM     24  C   UNL     1       7.114   2.231  11.143  0.00  0.00    +0.000 C 
ATOM     25  C   UNL     1       6.001   1.700  11.978  0.00  0.00    +0.000 C 
ENDBRANCH  21  23
ENDBRANCH  17  18
ENDBRANCH   4  17
TORSDOF 4
ENDMDL
