MODEL 1
REMARK VINA RESULT:      -8.0      0.000      0.000
REMARK  Name = 
REMARK  14 active torsions:
REMARK  status: ('A' for Active; 'I' for Inactive)
REMARK    1  A    between atoms: C_1  and  C_2
REMARK    2  A    between atoms: C_2  and  N_3
REMARK    3  A    between atoms: C_2  and  C_32
REMARK    4  A    between atoms: N_3  and  P_4
REMARK    5  A    between atoms: P_4  and  O_6
REMARK    6  A    between atoms: P_4  and  O_7
REMARK    7  A    between atoms: O_7  and  C_8
REMARK    8  A    between atoms: C_8  and  C_9
REMARK    9  A    between atoms: C_11  and  N_12
REMARK   10  A    between atoms: N_17  and  C_18
REMARK   11  A    between atoms: C_18  and  C_19
REMARK   12  A    between atoms: C_28  and  O_29
REMARK   13  A    between atoms: C_30  and  O_31
REMARK   14  A    between atoms: C_32  and  O_34
REMARK                            x       y       z     vdW  Elec       q    Type
REMARK                         _______ _______ _______ _____ _____    ______ ____
ROOT
ATOM      1  C   UNL     1       5.911   4.896  18.227  0.00  0.00    +0.000 C 
ATOM      2  O   UNL     1       5.260   5.971  18.934  0.00  0.00    +0.000 OA
ATOM      3  C   UNL     1       3.850   5.670  19.080  0.00  0.00    +0.000 C 
ATOM      4  C   UNL     1       3.564   4.421  18.241  0.00  0.00    +0.000 C 
ATOM      5  C   UNL     1       4.922   3.731  18.244  0.00  0.00    +0.000 C 
ENDROOT
BRANCH   3   6
ATOM      6  N   UNL     1       3.083   6.839  18.703  0.00  0.00    +0.000 N 
ATOM      7  C   UNL     1       3.184   7.554  17.536  0.00  0.00    +0.000 A 
ATOM      8  N   UNL     1       2.439   8.639  17.555  0.00  0.00    +0.000 NA
ATOM      9  C   UNL     1       1.842   8.635  18.799  0.00  0.00    +0.000 A 
ATOM     10  C   UNL     1       0.992   9.556  19.432  0.00  0.00    +0.000 A 
ATOM     11  N   UNL     1       0.703  10.779  18.835  0.00  0.00    +0.000 N 
ATOM     12  N   UNL     1       0.524   9.244  20.671  0.00  0.00    +0.000 NA
ATOM     13  C   UNL     1       0.939   8.088  21.238  0.00  0.00    +0.000 A 
ATOM     14  N   UNL     1       1.787   7.162  20.745  0.00  0.00    +0.000 NA
ATOM     15  C   UNL     1       2.198   7.499  19.513  0.00  0.00    +0.000 A 
ATOM     16  H   UNL     1       0.956  10.762  17.850  0.00  0.00    +0.000 HD
BRANCH  11  17
ATOM     17  C   UNL     1      -0.591  11.376  19.111  0.00  0.00    +0.000 C 
BRANCH  17  18
ATOM     18  C   UNL     1      -1.613  10.934  18.114  0.00  0.00    +0.000 A 
ATOM     19  C   UNL     1      -1.948  11.397  16.852  0.00  0.00    +0.000 A 
ATOM     20  C   UNL     1      -2.936  10.518  16.354  0.00  0.00    +0.000 A 
ATOM     21  C   UNL     1      -3.151   9.585  17.341  0.00  0.00    +0.000 A 
ATOM     22  O   UNL     1      -2.353   9.829  18.414  0.00  0.00    +0.000 OA
ENDBRANCH  17  18
ENDBRANCH  11  17
ENDBRANCH   3   6
BRANCH   4  23
ATOM     23  O   UNL     1       2.564   3.565  18.793  0.00  0.00    +0.000 OA
ATOM     24  H   UNL     1       2.931   3.214  19.634  0.00  0.00    +0.000 HD
ENDBRANCH   4  23
BRANCH   5  25
ATOM     25  O   UNL     1       5.030   2.963  19.457  0.00  0.00    +0.000 OA
ATOM     26  H   UNL     1       4.259   3.155  20.024  0.00  0.00    +0.000 HD
ENDBRANCH   5  25
BRANCH   1  27
ATOM     27  C   UNL     1       6.259   5.328  16.801  0.00  0.00    +0.000 C 
BRANCH  27  28
ATOM     28  O   UNL     1       6.998   4.323  16.098  0.00  0.00    +0.000 OA
BRANCH  28  29
ATOM     29  P   UNL     1       6.741   4.205  14.391  0.00  0.00    +0.000 P 
ATOM     30  O   UNL     1       7.609   5.437  14.132  0.00  0.00    +0.000 OA
BRANCH  29  31
ATOM     31  N   UNL     1       6.477   4.082  12.634  0.00  0.00    +0.000 NA
ATOM     32  H   UNL     1       7.424   3.909  12.293  0.00  0.00    +0.000 HD
BRANCH  31  34
ATOM     33  C   UNL     1       4.425   3.269  11.446  0.00  0.00    +0.000 C 
ATOM     34  C   UNL     1       5.660   2.894  12.257  0.00  0.00    +0.000 C 
BRANCH  34  35
ATOM     35  C   UNL     1       6.546   1.898  11.501  0.00  0.00    +0.000 C 
ATOM     36  O   UNL     1       7.643   2.141  11.026  0.00  0.00    +0.000 OA
BRANCH  35  37
ATOM     37  O   UNL     1       5.968   0.670  11.425  0.00  0.00    +0.000 OA
ATOM     38  H   UNL     1       6.383   0.160  10.689  0.00  0.00    +0.000 HD
ENDBRANCH  35  37
ENDBRANCH  34  35
ENDBRANCH  31  34
ENDBRANCH  29  31
BRANCH  29  39
ATOM     39  O   UNL     1       5.235   4.835  14.458  0.00  0.00    +0.000 OA
ATOM     40  H   UNL     1       4.967   4.822  15.401  0.00  0.00    +0.000 HD
ENDBRANCH  29  39
ENDBRANCH  28  29
ENDBRANCH  27  28
ENDBRANCH   1  27
TORSDOF 13
ENDMDL
MODEL 2
REMARK VINA RESULT:      -7.8      0.664      1.032
REMARK  Name = 
REMARK  14 active torsions:
REMARK  status: ('A' for Active; 'I' for Inactive)
REMARK    1  A    between atoms: C_1  and  C_2
REMARK    2  A    between atoms: C_2  and  N_3
REMARK    3  A    between atoms: C_2  and  C_32
REMARK    4  A    between atoms: N_3  and  P_4
REMARK    5  A    between atoms: P_4  and  O_6
REMARK    6  A    between atoms: P_4  and  O_7
REMARK    7  A    between atoms: O_7  and  C_8
REMARK    8  A    between atoms: C_8  and  C_9
REMARK    9  A    between atoms: C_11  and  N_12
REMARK   10  A    between atoms: N_17  and  C_18
REMARK   11  A    between atoms: C_18  and  C_19
REMARK   12  A    between atoms: C_28  and  O_29
REMARK   13  A    between atoms: C_30  and  O_31
REMARK   14  A    between atoms: C_32  and  O_34
REMARK                            x       y       z     vdW  Elec       q    Type
REMARK                         _______ _______ _______ _____ _____    ______ ____
ROOT
ATOM      1  C   UNL     1       5.802   5.022  18.238  0.00  0.00    +0.000 C 
ATOM      2  O   UNL     1       5.114   6.086  18.925  0.00  0.00    +0.000 OA
ATOM      3  C   UNL     1       3.700   5.779  19.001  0.00  0.00    +0.000 C 
ATOM      4  C   UNL     1       3.459   4.538  18.136  0.00  0.00    +0.000 C 
ATOM      5  C   UNL     1       4.818   3.853  18.196  0.00  0.00    +0.000 C 
ENDROOT
BRANCH   3   6
ATOM      6  N   UNL     1       2.948   6.949  18.601  0.00  0.00    +0.000 N 
ATOM      7  C   UNL     1       3.019   7.608  17.399  0.00  0.00    +0.000 A 
ATOM      8  N   UNL     1       2.302   8.712  17.397  0.00  0.00    +0.000 NA
ATOM      9  C   UNL     1       1.755   8.780  18.662  0.00  0.00    +0.000 A 
ATOM     10  C   UNL     1       0.953   9.750  19.285  0.00  0.00    +0.000 A 
ATOM     11  N   UNL     1       0.671  10.952  18.644  0.00  0.00    +0.000 N 
ATOM     12  N   UNL     1       0.528   9.506  20.554  0.00  0.00    +0.000 NA
ATOM     13  C   UNL     1       0.937   8.366  21.157  0.00  0.00    +0.000 A 
ATOM     14  N   UNL     1       1.742   7.397  20.674  0.00  0.00    +0.000 NA
ATOM     15  C   UNL     1       2.111   7.668  19.413  0.00  0.00    +0.000 A 
ATOM     16  H   UNL     1       0.884  10.884  17.651  0.00  0.00    +0.000 HD
BRANCH  11  17
ATOM     17  C   UNL     1      -0.596  11.594  18.942  0.00  0.00    +0.000 C 
BRANCH  17  18
ATOM     18  C   UNL     1      -1.686  11.070  18.064  0.00  0.00    +0.000 A 
ATOM     19  C   UNL     1      -1.741  10.009  17.176  0.00  0.00    +0.000 A 
ATOM     20  C   UNL     1      -3.072   9.951  16.705  0.00  0.00    +0.000 A 
ATOM     21  C   UNL     1      -3.742  10.982  17.322  0.00  0.00    +0.000 A 
ATOM     22  O   UNL     1      -2.909  11.668  18.148  0.00  0.00    +0.000 OA
ENDBRANCH  17  18
ENDBRANCH  11  17
ENDBRANCH   3   6
BRANCH   4  23
ATOM     23  O   UNL     1       2.438   3.673  18.630  0.00  0.00    +0.000 OA
ATOM     24  H   UNL     1       1.767   3.596  17.917  0.00  0.00    +0.000 HD
ENDBRANCH   4  23
BRANCH   5  25
ATOM     25  O   UNL     1       4.871   3.072  19.404  0.00  0.00    +0.000 OA
ATOM     26  H   UNL     1       5.787   2.763  19.543  0.00  0.00    +0.000 HD
ENDBRANCH   5  25
BRANCH   1  27
ATOM     27  C   UNL     1       6.216   5.470  16.836  0.00  0.00    +0.000 C 
BRANCH  27  28
ATOM     28  O   UNL     1       5.246   5.110  15.845  0.00  0.00    +0.000 OA
BRANCH  28  29
ATOM     29  P   UNL     1       5.836   4.383  14.390  0.00  0.00    +0.000 P 
ATOM     30  O   UNL     1       6.434   3.210  15.168  0.00  0.00    +0.000 OA
BRANCH  29  31
ATOM     31  N   UNL     1       6.443   3.636  12.892  0.00  0.00    +0.000 NA
ATOM     32  H   UNL     1       7.234   3.089  13.238  0.00  0.00    +0.000 HD
BRANCH  31  34
ATOM     33  C   UNL     1       4.402   3.353  11.465  0.00  0.00    +0.000 C 
ATOM     34  C   UNL     1       5.477   2.668  12.300  0.00  0.00    +0.000 C 
BRANCH  34  35
ATOM     35  C   UNL     1       6.250   1.630  11.478  0.00  0.00    +0.000 C 
ATOM     36  O   UNL     1       5.816   0.553  11.105  0.00  0.00    +0.000 OA
BRANCH  35  37
ATOM     37  O   UNL     1       7.507   2.056  11.187  0.00  0.00    +0.000 OA
ATOM     38  H   UNL     1       7.959   2.331  12.020  0.00  0.00    +0.000 HD
ENDBRANCH  35  37
ENDBRANCH  34  35
ENDBRANCH  31  34
ENDBRANCH  29  31
BRANCH  29  39
ATOM     39  O   UNL     1       7.102   5.408  14.257  0.00  0.00    +0.000 OA
ATOM     40  H   UNL     1       6.939   5.952  13.459  0.00  0.00    +0.000 HD
ENDBRANCH  29  39
ENDBRANCH  28  29
ENDBRANCH  27  28
ENDBRANCH   1  27
TORSDOF 13
ENDMDL
MODEL 3
REMARK VINA RESULT:      -7.7      2.543      3.530
REMARK  Name = 
REMARK  14 active torsions:
REMARK  status: ('A' for Active; 'I' for Inactive)
REMARK    1  A    between atoms: C_1  and  C_2
REMARK    2  A    between atoms: C_2  and  N_3
REMARK    3  A    between atoms: C_2  and  C_32
REMARK    4  A    between atoms: N_3  and  P_4
REMARK    5  A    between atoms: P_4  and  O_6
REMARK    6  A    between atoms: P_4  and  O_7
REMARK    7  A    between atoms: O_7  and  C_8
REMARK    8  A    between atoms: C_8  and  C_9
REMARK    9  A    between atoms: C_11  and  N_12
REMARK   10  A    between atoms: N_17  and  C_18
REMARK   11  A    between atoms: C_18  and  C_19
REMARK   12  A    between atoms: C_28  and  O_29
REMARK   13  A    between atoms: C_30  and  O_31
REMARK   14  A    between atoms: C_32  and  O_34
REMARK                            x       y       z     vdW  Elec       q    Type
REMARK                         _______ _______ _______ _____ _____    ______ ____
ROOT
ATOM      1  C   UNL     1       4.255   3.744  18.599  0.00  0.00    +0.000 C 
ATOM      2  O   UNL     1       4.348   5.159  18.854  0.00  0.00    +0.000 OA
ATOM      3  C   UNL     1       3.244   5.572  19.698  0.00  0.00    +0.000 C 
ATOM      4  C   UNL     1       2.294   4.377  19.818  0.00  0.00    +0.000 C 
ATOM      5  C   UNL     1       3.245   3.205  19.612  0.00  0.00    +0.000 C 
ENDROOT
BRANCH   3   6
ATOM      6  N   UNL     1       2.647   6.764  19.134  0.00  0.00    +0.000 N 
ATOM      7  C   UNL     1       2.850   7.275  17.877  0.00  0.00    +0.000 A 
ATOM      8  N   UNL     1       2.261   8.442  17.716  0.00  0.00    +0.000 NA
ATOM      9  C   UNL     1       1.664   8.706  18.932  0.00  0.00    +0.000 A 
ATOM     10  C   UNL     1       0.946   9.817  19.401  0.00  0.00    +0.000 A 
ATOM     11  N   UNL     1       0.830  10.965  18.623  0.00  0.00    +0.000 N 
ATOM     12  N   UNL     1       0.435   9.761  20.661  0.00  0.00    +0.000 NA
ATOM     13  C   UNL     1       0.685   8.657  21.403  0.00  0.00    +0.000 A 
ATOM     14  N   UNL     1       1.399   7.561  21.073  0.00  0.00    +0.000 NA
ATOM     15  C   UNL     1       1.857   7.652  19.815  0.00  0.00    +0.000 A 
ATOM     16  H   UNL     1       1.083  10.765  17.657  0.00  0.00    +0.000 HD
BRANCH  11  17
ATOM     17  C   UNL     1      -0.371  11.765  18.776  0.00  0.00    +0.000 C 
BRANCH  17  18
ATOM     18  C   UNL     1      -1.521  11.158  18.041  0.00  0.00    +0.000 A 
ATOM     19  C   UNL     1      -1.661   9.971  17.342  0.00  0.00    +0.000 A 
ATOM     20  C   UNL     1      -3.014   9.901  16.941  0.00  0.00    +0.000 A 
ATOM     21  C   UNL     1      -3.612  11.049  17.406  0.00  0.00    +0.000 A 
ATOM     22  O   UNL     1      -2.714  11.819  18.074  0.00  0.00    +0.000 OA
ENDBRANCH  17  18
ENDBRANCH  11  17
ENDBRANCH   3   6
BRANCH   4  23
ATOM     23  O   UNL     1       1.640   4.277  21.082  0.00  0.00    +0.000 OA
ATOM     24  H   UNL     1       1.417   3.328  21.207  0.00  0.00    +0.000 HD
ENDBRANCH   4  23
BRANCH   5  25
ATOM     25  O   UNL     1       3.869   2.910  20.876  0.00  0.00    +0.000 OA
ATOM     26  H   UNL     1       3.500   3.503  21.558  0.00  0.00    +0.000 HD
ENDBRANCH   5  25
BRANCH   1  27
ATOM     27  C   UNL     1       3.809   3.488  17.159  0.00  0.00    +0.000 C 
BRANCH  27  28
ATOM     28  O   UNL     1       4.065   4.609  16.306  0.00  0.00    +0.000 OA
BRANCH  28  29
ATOM     29  P   UNL     1       5.694   5.187  16.231  0.00  0.00    +0.000 P 
ATOM     30  O   UNL     1       5.468   5.772  14.837  0.00  0.00    +0.000 OA
BRANCH  29  31
ATOM     31  N   UNL     1       7.371   5.782  16.155  0.00  0.00    +0.000 NA
ATOM     32  H   UNL     1       7.313   6.473  15.406  0.00  0.00    +0.000 HD
BRANCH  31  34
ATOM     33  C   UNL     1       6.849   7.680  17.706  0.00  0.00    +0.000 C 
ATOM     34  C   UNL     1       7.777   6.515  17.387  0.00  0.00    +0.000 C 
BRANCH  34  35
ATOM     35  C   UNL     1       7.856   5.525  18.555  0.00  0.00    +0.000 C 
ATOM     36  O   UNL     1       7.920   4.311  18.454  0.00  0.00    +0.000 OA
BRANCH  35  37
ATOM     37  O   UNL     1       7.861   6.164  19.755  0.00  0.00    +0.000 OA
ATOM     38  H   UNL     1       8.396   5.642  20.399  0.00  0.00    +0.000 HD
ENDBRANCH  35  37
ENDBRANCH  34  35
ENDBRANCH  31  34
ENDBRANCH  29  31
BRANCH  29  39
ATOM     39  O   UNL     1       6.323   3.714  15.904  0.00  0.00    +0.000 OA
ATOM     40  H   UNL     1       7.278   3.848  15.735  0.00  0.00    +0.000 HD
ENDBRANCH  29  39
ENDBRANCH  28  29
ENDBRANCH  27  28
ENDBRANCH   1  27
TORSDOF 13
ENDMDL
MODEL 4
REMARK VINA RESULT:      -7.7      1.815      2.270
REMARK  Name = 
REMARK  14 active torsions:
REMARK  status: ('A' for Active; 'I' for Inactive)
REMARK    1  A    between atoms: C_1  and  C_2
REMARK    2  A    between atoms: C_2  and  N_3
REMARK    3  A    between atoms: C_2  and  C_32
REMARK    4  A    between atoms: N_3  and  P_4
REMARK    5  A    between atoms: P_4  and  O_6
REMARK    6  A    between atoms: P_4  and  O_7
REMARK    7  A    between atoms: O_7  and  C_8
REMARK    8  A    between atoms: C_8  and  C_9
REMARK    9  A    between atoms: C_11  and  N_12
REMARK   10  A    between atoms: N_17  and  C_18
REMARK   11  A    between atoms: C_18  and  C_19
REMARK   12  A    between atoms: C_28  and  O_29
REMARK   13  A    between atoms: C_30  and  O_31
REMARK   14  A    between atoms: C_32  and  O_34
REMARK                            x       y       z     vdW  Elec       q    Type
REMARK                         _______ _______ _______ _____ _____    ______ ____
ROOT
ATOM      1  C   UNL     1       4.207   3.548  19.283  0.00  0.00    +0.000 C 
ATOM      2  O   UNL     1       4.184   4.961  19.571  0.00  0.00    +0.000 OA
ATOM      3  C   UNL     1       2.901   5.317  20.144  0.00  0.00    +0.000 C 
ATOM      4  C   UNL     1       1.996   4.087  20.026  0.00  0.00    +0.000 C 
ATOM      5  C   UNL     1       3.013   2.954  20.030  0.00  0.00    +0.000 C 
ENDROOT
BRANCH   3   6
ATOM      6  N   UNL     1       2.404   6.499  19.473  0.00  0.00    +0.000 N 
ATOM      7  C   UNL     1       2.570   6.832  18.152  0.00  0.00    +0.000 A 
ATOM      8  N   UNL     1       2.108   8.035  17.883  0.00  0.00    +0.000 NA
ATOM      9  C   UNL     1       1.637   8.510  19.090  0.00  0.00    +0.000 A 
ATOM     10  C   UNL     1       1.088   9.748  19.460  0.00  0.00    +0.000 A 
ATOM     11  N   UNL     1       1.047  10.803  18.553  0.00  0.00    +0.000 N 
ATOM     12  N   UNL     1       0.670   9.902  20.745  0.00  0.00    +0.000 NA
ATOM     13  C   UNL     1       0.847   8.870  21.603  0.00  0.00    +0.000 A 
ATOM     14  N   UNL     1       1.404   7.664  21.369  0.00  0.00    +0.000 NA
ATOM     15  C   UNL     1       1.774   7.551  20.085  0.00  0.00    +0.000 A 
ATOM     16  H   UNL     1       1.203  10.463  17.607  0.00  0.00    +0.000 HD
BRANCH  11  17
ATOM     17  C   UNL     1      -0.039  11.757  18.677  0.00  0.00    +0.000 C 
BRANCH  17  18
ATOM     18  C   UNL     1      -1.319  11.189  18.156  0.00  0.00    +0.000 A 
ATOM     19  C   UNL     1      -1.606  10.040  17.438  0.00  0.00    +0.000 A 
ATOM     20  C   UNL     1      -3.013   9.990  17.311  0.00  0.00    +0.000 A 
ATOM     21  C   UNL     1      -3.495  11.111  17.945  0.00  0.00    +0.000 A 
ATOM     22  O   UNL     1      -2.474  11.846  18.460  0.00  0.00    +0.000 OA
ENDBRANCH  17  18
ENDBRANCH  11  17
ENDBRANCH   3   6
BRANCH   4  23
ATOM     23  O   UNL     1       1.073   3.938  21.105  0.00  0.00    +0.000 OA
ATOM     24  H   UNL     1       1.591   3.607  21.871  0.00  0.00    +0.000 HD
ENDBRANCH   4  23
BRANCH   5  25
ATOM     25  O   UNL     1       3.342   2.653  21.400  0.00  0.00    +0.000 OA
ATOM     26  H   UNL     1       2.543   2.766  21.950  0.00  0.00    +0.000 HD
ENDBRANCH   5  25
BRANCH   1  27
ATOM     27  C   UNL     1       4.114   3.308  17.776  0.00  0.00    +0.000 C 
BRANCH  27  28
ATOM     28  O   UNL     1       3.967   4.529  17.042  0.00  0.00    +0.000 OA
BRANCH  28  29
ATOM     29  P   UNL     1       5.296   5.017  16.048  0.00  0.00    +0.000 P 
ATOM     30  O   UNL     1       6.119   3.802  16.477  0.00  0.00    +0.000 OA
BRANCH  29  31
ATOM     31  N   UNL     1       6.664   5.520  15.025  0.00  0.00    +0.000 NA
ATOM     32  H   UNL     1       7.436   5.519  15.694  0.00  0.00    +0.000 HD
BRANCH  31  34
ATOM     33  C   UNL     1       5.760   3.884  13.355  0.00  0.00    +0.000 C 
ATOM     34  C   UNL     1       7.000   4.515  13.978  0.00  0.00    +0.000 C 
BRANCH  34  35
ATOM     35  C   UNL     1       7.887   5.175  12.917  0.00  0.00    +0.000 C 
ATOM     36  O   UNL     1       8.755   6.004  13.132  0.00  0.00    +0.000 OA
BRANCH  35  37
ATOM     37  O   UNL     1       7.604   4.714  11.669  0.00  0.00    +0.000 OA
ATOM     38  H   UNL     1       7.412   5.479  11.076  0.00  0.00    +0.000 HD
ENDBRANCH  35  37
ENDBRANCH  34  35
ENDBRANCH  31  34
ENDBRANCH  29  31
BRANCH  29  39
ATOM     39  O   UNL     1       5.796   6.174  17.088  0.00  0.00    +0.000 OA
ATOM     40  H   UNL     1       6.677   5.897  17.414  0.00  0.00    +0.000 HD
ENDBRANCH  29  39
ENDBRANCH  28  29
ENDBRANCH  27  28
ENDBRANCH   1  27
TORSDOF 13
ENDMDL
MODEL 5
REMARK VINA RESULT:      -7.6      1.364      1.658
REMARK  Name = 
REMARK  14 active torsions:
REMARK  status: ('A' for Active; 'I' for Inactive)
REMARK    1  A    between atoms: C_1  and  C_2
REMARK    2  A    between atoms: C_2  and  N_3
REMARK    3  A    between atoms: C_2  and  C_32
REMARK    4  A    between atoms: N_3  and  P_4
REMARK    5  A    between atoms: P_4  and  O_6
REMARK    6  A    between atoms: P_4  and  O_7
REMARK    7  A    between atoms: O_7  and  C_8
REMARK    8  A    between atoms: C_8  and  C_9
REMARK    9  A    between atoms: C_11  and  N_12
REMARK   10  A    between atoms: N_17  and  C_18
REMARK   11  A    between atoms: C_18  and  C_19
REMARK   12  A    between atoms: C_28  and  O_29
REMARK   13  A    between atoms: C_30  and  O_31
REMARK   14  A    between atoms: C_32  and  O_34
REMARK                            x       y       z     vdW  Elec       q    Type
REMARK                         _______ _______ _______ _____ _____    ______ ____
ROOT
ATOM      1  C   UNL     1       4.337   3.735  19.033  0.00  0.00    +0.000 C 
ATOM      2  O   UNL     1       4.307   5.148  19.320  0.00  0.00    +0.000 OA
ATOM      3  C   UNL     1       3.057   5.482  19.973  0.00  0.00    +0.000 C 
ATOM      4  C   UNL     1       2.167   4.236  19.913  0.00  0.00    +0.000 C 
ATOM      5  C   UNL     1       3.203   3.121  19.853  0.00  0.00    +0.000 C 
ENDROOT
BRANCH   3   6
ATOM      6  N   UNL     1       2.497   6.654  19.333  0.00  0.00    +0.000 N 
ATOM      7  C   UNL     1       2.699   7.067  18.041  0.00  0.00    +0.000 A 
ATOM      8  N   UNL     1       2.153   8.242  17.806  0.00  0.00    +0.000 NA
ATOM      9  C   UNL     1       1.587   8.614  19.008  0.00  0.00    +0.000 A 
ATOM     10  C   UNL     1       0.920   9.784  19.406  0.00  0.00    +0.000 A 
ATOM     11  N   UNL     1       0.836  10.877  18.550  0.00  0.00    +0.000 N 
ATOM     12  N   UNL     1       0.428   9.837  20.674  0.00  0.00    +0.000 NA
ATOM     13  C   UNL     1       0.647   8.779  21.489  0.00  0.00    +0.000 A 
ATOM     14  N   UNL     1       1.313   7.635  21.228  0.00  0.00    +0.000 NA
ATOM     15  C   UNL     1       1.754   7.619  19.961  0.00  0.00    +0.000 A 
ATOM     16  H   UNL     1       1.065  10.601  17.598  0.00  0.00    +0.000 HD
BRANCH  11  17
ATOM     17  C   UNL     1      -0.330  11.734  18.662  0.00  0.00    +0.000 C 
BRANCH  17  18
ATOM     18  C   UNL     1      -1.499  11.152  17.936  0.00  0.00    +0.000 A 
ATOM     19  C   UNL     1      -2.079  11.445  16.713  0.00  0.00    +0.000 A 
ATOM     20  C   UNL     1      -3.105  10.494  16.520  0.00  0.00    +0.000 A 
ATOM     21  C   UNL     1      -3.098   9.690  17.636  0.00  0.00    +0.000 A 
ATOM     22  O   UNL     1      -2.127  10.082  18.502  0.00  0.00    +0.000 OA
ENDBRANCH  17  18
ENDBRANCH  11  17
ENDBRANCH   3   6
BRANCH   4  23
ATOM     23  O   UNL     1       1.318   4.072  21.048  0.00  0.00    +0.000 OA
ATOM     24  H   UNL     1       0.423   3.866  20.699  0.00  0.00    +0.000 HD
ENDBRANCH   4  23
BRANCH   5  25
ATOM     25  O   UNL     1       3.623   2.829  21.200  0.00  0.00    +0.000 OA
ATOM     26  H   UNL     1       4.517   3.196  21.340  0.00  0.00    +0.000 HD
ENDBRANCH   5  25
BRANCH   1  27
ATOM     27  C   UNL     1       4.153   3.491  17.534  0.00  0.00    +0.000 C 
BRANCH  27  28
ATOM     28  O   UNL     1       4.676   4.564  16.743  0.00  0.00    +0.000 OA
BRANCH  28  29
ATOM     29  P   UNL     1       5.714   4.140  15.426  0.00  0.00    +0.000 P 
ATOM     30  O   UNL     1       6.935   4.100  16.345  0.00  0.00    +0.000 OA
BRANCH  29  31
ATOM     31  N   UNL     1       6.783   3.703  14.070  0.00  0.00    +0.000 NA
ATOM     32  H   UNL     1       6.678   2.687  14.042  0.00  0.00    +0.000 HD
BRANCH  31  34
ATOM     33  C   UNL     1       7.426   4.717  11.870  0.00  0.00    +0.000 C 
ATOM     34  C   UNL     1       6.293   4.222  12.762  0.00  0.00    +0.000 C 
BRANCH  34  35
ATOM     35  C   UNL     1       5.468   3.132  12.068  0.00  0.00    +0.000 C 
ATOM     36  O   UNL     1       4.325   3.256  11.663  0.00  0.00    +0.000 OA
BRANCH  35  37
ATOM     37  O   UNL     1       6.174   1.977  11.935  0.00  0.00    +0.000 OA
ATOM     38  H   UNL     1       5.547   1.225  11.812  0.00  0.00    +0.000 HD
ENDBRANCH  35  37
ENDBRANCH  34  35
ENDBRANCH  31  34
ENDBRANCH  29  31
BRANCH  29  39
ATOM     39  O   UNL     1       5.765   5.659  14.827  0.00  0.00    +0.000 OA
ATOM     40  H   UNL     1       5.546   6.261  15.569  0.00  0.00    +0.000 HD
ENDBRANCH  29  39
ENDBRANCH  28  29
ENDBRANCH  27  28
ENDBRANCH   1  27
TORSDOF 13
ENDMDL
MODEL 6
REMARK VINA RESULT:      -7.6      1.484      1.812
REMARK  Name = 
REMARK  14 active torsions:
REMARK  status: ('A' for Active; 'I' for Inactive)
REMARK    1  A    between atoms: C_1  and  C_2
REMARK    2  A    between atoms: C_2  and  N_3
REMARK    3  A    between atoms: C_2  and  C_32
REMARK    4  A    between atoms: N_3  and  P_4
REMARK    5  A    between atoms: P_4  and  O_6
REMARK    6  A    between atoms: P_4  and  O_7
REMARK    7  A    between atoms: O_7  and  C_8
REMARK    8  A    between atoms: C_8  and  C_9
REMARK    9  A    between atoms: C_11  and  N_12
REMARK   10  A    between atoms: N_17  and  C_18
REMARK   11  A    between atoms: C_18  and  C_19
REMARK   12  A    between atoms: C_28  and  O_29
REMARK   13  A    between atoms: C_30  and  O_31
REMARK   14  A    between atoms: C_32  and  O_34
REMARK                            x       y       z     vdW  Elec       q    Type
REMARK                         _______ _______ _______ _____ _____    ______ ____
ROOT
ATOM      1  C   UNL     1       4.199   4.765  18.608  0.00  0.00    +0.000 C 
ATOM      2  O   UNL     1       4.094   6.150  18.992  0.00  0.00    +0.000 OA
ATOM      3  C   UNL     1       2.811   6.380  19.626  0.00  0.00    +0.000 C 
ATOM      4  C   UNL     1       1.984   5.103  19.451  0.00  0.00    +0.000 C 
ATOM      5  C   UNL     1       3.073   4.043  19.347  0.00  0.00    +0.000 C 
ENDROOT
BRANCH   3   6
ATOM      6  N   UNL     1       2.215   7.568  19.052  0.00  0.00    +0.000 N 
ATOM      7  C   UNL     1       2.396   8.053  17.781  0.00  0.00    +0.000 A 
ATOM      8  N   UNL     1       1.817   9.224  17.611  0.00  0.00    +0.000 NA
ATOM      9  C   UNL     1       1.250   9.517  18.834  0.00  0.00    +0.000 A 
ATOM     10  C   UNL     1       0.555  10.646  19.298  0.00  0.00    +0.000 A 
ATOM     11  N   UNL     1       0.435  11.780  18.500  0.00  0.00    +0.000 N 
ATOM     12  N   UNL     1       0.071  10.619  20.569  0.00  0.00    +0.000 NA
ATOM     13  C   UNL     1       0.325   9.527  21.327  0.00  0.00    +0.000 A 
ATOM     14  N   UNL     1       1.020   8.417  21.002  0.00  0.00    +0.000 NA
ATOM     15  C   UNL     1       1.451   8.478  19.733  0.00  0.00    +0.000 A 
ATOM     16  H   UNL     1       0.664  11.559  17.534  0.00  0.00    +0.000 HD
BRANCH  11  17
ATOM     17  C   UNL     1      -0.753  12.597  18.664  0.00  0.00    +0.000 C 
BRANCH  17  18
ATOM     18  C   UNL     1      -1.956  11.922  18.091  0.00  0.00    +0.000 A 
ATOM     19  C   UNL     1      -2.145  11.165  16.947  0.00  0.00    +0.000 A 
ATOM     20  C   UNL     1      -3.485  10.717  16.982  0.00  0.00    +0.000 A 
ATOM     21  C   UNL     1      -4.032  11.234  18.133  0.00  0.00    +0.000 A 
ATOM     22  O   UNL     1      -3.112  11.968  18.812  0.00  0.00    +0.000 OA
ENDBRANCH  17  18
ENDBRANCH  11  17
ENDBRANCH   3   6
BRANCH   4  23
ATOM     23  O   UNL     1       1.110   4.820  20.543  0.00  0.00    +0.000 OA
ATOM     24  H   UNL     1       0.339   5.420  20.446  0.00  0.00    +0.000 HD
ENDBRANCH   4  23
BRANCH   5  25
ATOM     25  O   UNL     1       3.467   3.675  20.682  0.00  0.00    +0.000 OA
ATOM     26  H   UNL     1       2.705   3.266  21.136  0.00  0.00    +0.000 HD
ENDBRANCH   5  25
BRANCH   1  27
ATOM     27  C   UNL     1       4.070   4.619  17.091  0.00  0.00    +0.000 C 
BRANCH  27  28
ATOM     28  O   UNL     1       5.177   5.205  16.395  0.00  0.00    +0.000 OA
BRANCH  28  29
ATOM     29  P   UNL     1       5.856   4.299  15.088  0.00  0.00    +0.000 P 
ATOM     30  O   UNL     1       5.783   3.001  15.892  0.00  0.00    +0.000 OA
BRANCH  29  31
ATOM     31  N   UNL     1       6.555   3.367  13.741  0.00  0.00    +0.000 NA
ATOM     32  H   UNL     1       6.120   2.452  13.872  0.00  0.00    +0.000 HD
BRANCH  31  34
ATOM     33  C   UNL     1       7.282   4.334  11.545  0.00  0.00    +0.000 C 
ATOM     34  C   UNL     1       6.115   3.865  12.407  0.00  0.00    +0.000 C 
BRANCH  34  35
ATOM     35  C   UNL     1       5.305   2.769  11.706  0.00  0.00    +0.000 C 
ATOM     36  O   UNL     1       4.183   2.899  11.248  0.00  0.00    +0.000 OA
BRANCH  35  37
ATOM     37  O   UNL     1       5.998   1.601  11.635  0.00  0.00    +0.000 OA
ATOM     38  H   UNL     1       5.385   0.876  11.365  0.00  0.00    +0.000 HD
ENDBRANCH  35  37
ENDBRANCH  34  35
ENDBRANCH  31  34
ENDBRANCH  29  31
BRANCH  29  39
ATOM     39  O   UNL     1       7.381   4.812  15.373  0.00  0.00    +0.000 OA
ATOM     40  H   UNL     1       7.728   5.149  14.521  0.00  0.00    +0.000 HD
ENDBRANCH  29  39
ENDBRANCH  28  29
ENDBRANCH  27  28
ENDBRANCH   1  27
TORSDOF 13
ENDMDL
MODEL 7
REMARK VINA RESULT:      -7.5      2.469      3.308
REMARK  Name = 
REMARK  14 active torsions:
REMARK  status: ('A' for Active; 'I' for Inactive)
REMARK    1  A    between atoms: C_1  and  C_2
REMARK    2  A    between atoms: C_2  and  N_3
REMARK    3  A    between atoms: C_2  and  C_32
REMARK    4  A    between atoms: N_3  and  P_4
REMARK    5  A    between atoms: P_4  and  O_6
REMARK    6  A    between atoms: P_4  and  O_7
REMARK    7  A    between atoms: O_7  and  C_8
REMARK    8  A    between atoms: C_8  and  C_9
REMARK    9  A    between atoms: C_11  and  N_12
REMARK   10  A    between atoms: N_17  and  C_18
REMARK   11  A    between atoms: C_18  and  C_19
REMARK   12  A    between atoms: C_28  and  O_29
REMARK   13  A    between atoms: C_30  and  O_31
REMARK   14  A    between atoms: C_32  and  O_34
REMARK                            x       y       z     vdW  Elec       q    Type
REMARK                         _______ _______ _______ _____ _____    ______ ____
ROOT
ATOM      1  C   UNL     1       4.068   3.950  19.368  0.00  0.00    +0.000 C 
ATOM      2  O   UNL     1       3.955   5.319  19.806  0.00  0.00    +0.000 OA
ATOM      3  C   UNL     1       2.575   5.608  20.139  0.00  0.00    +0.000 C 
ATOM      4  C   UNL     1       1.740   4.403  19.695  0.00  0.00    +0.000 C 
ATOM      5  C   UNL     1       2.760   3.275  19.778  0.00  0.00    +0.000 C 
ENDROOT
BRANCH   3   6
ATOM      6  N   UNL     1       2.200   6.862  19.521  0.00  0.00    +0.000 N 
ATOM      7  C   UNL     1       2.474   7.268  18.239  0.00  0.00    +0.000 A 
ATOM      8  N   UNL     1       2.109   8.515  18.026  0.00  0.00    +0.000 NA
ATOM      9  C   UNL     1       1.590   8.941  19.231  0.00  0.00    +0.000 A 
ATOM     10  C   UNL     1       1.098  10.188  19.650  0.00  0.00    +0.000 A 
ATOM     11  N   UNL     1       1.185  11.299  18.817  0.00  0.00    +0.000 N 
ATOM     12  N   UNL     1       0.604  10.286  20.914  0.00  0.00    +0.000 NA
ATOM     13  C   UNL     1       0.657   9.191  21.708  0.00  0.00    +0.000 A 
ATOM     14  N   UNL     1       1.151   7.967  21.427  0.00  0.00    +0.000 NA
ATOM     15  C   UNL     1       1.599   7.913  20.163  0.00  0.00    +0.000 A 
ATOM     16  H   UNL     1       1.381  11.011  17.861  0.00  0.00    +0.000 HD
BRANCH  11  17
ATOM     17  C   UNL     1       0.155  12.315  18.938  0.00  0.00    +0.000 C 
BRANCH  17  18
ATOM     18  C   UNL     1       0.721  13.599  19.451  0.00  0.00    +0.000 A 
ATOM     19  C   UNL     1       1.011  14.804  18.834  0.00  0.00    +0.000 A 
ATOM     20  C   UNL     1       1.445  15.681  19.853  0.00  0.00    +0.000 A 
ATOM     21  C   UNL     1       1.406  14.958  21.022  0.00  0.00    +0.000 A 
ATOM     22  O   UNL     1       0.969  13.692  20.789  0.00  0.00    +0.000 OA
ENDBRANCH  17  18
ENDBRANCH  11  17
ENDBRANCH   3   6
BRANCH   4  23
ATOM     23  O   UNL     1       0.619   4.130  20.535  0.00  0.00    +0.000 OA
ATOM     24  H   UNL     1       0.000   3.580  20.006  0.00  0.00    +0.000 HD
ENDBRANCH   4  23
BRANCH   5  25
ATOM     25  O   UNL     1       2.806   2.814  21.141  0.00  0.00    +0.000 OA
ATOM     26  H   UNL     1       3.719   2.539  21.352  0.00  0.00    +0.000 HD
ENDBRANCH   5  25
BRANCH   1  27
ATOM     27  C   UNL     1       4.291   3.889  17.856  0.00  0.00    +0.000 C 
BRANCH  27  28
ATOM     28  O   UNL     1       4.506   5.187  17.288  0.00  0.00    +0.000 OA
BRANCH  28  29
ATOM     29  P   UNL     1       5.866   5.372  16.236  0.00  0.00    +0.000 P 
ATOM     30  O   UNL     1       6.748   4.528  17.156  0.00  0.00    +0.000 OA
BRANCH  29  31
ATOM     31  N   UNL     1       7.265   5.564  15.151  0.00  0.00    +0.000 NA
ATOM     32  H   UNL     1       8.044   5.352  15.777  0.00  0.00    +0.000 HD
BRANCH  31  34
ATOM     33  C   UNL     1       5.922   3.942  13.792  0.00  0.00    +0.000 C 
ATOM     34  C   UNL     1       7.296   4.543  14.066  0.00  0.00    +0.000 C 
BRANCH  34  35
ATOM     35  C   UNL     1       7.894   5.174  12.803  0.00  0.00    +0.000 C 
ATOM     36  O   UNL     1       7.533   4.953  11.660  0.00  0.00    +0.000 OA
BRANCH  35  37
ATOM     37  O   UNL     1       8.894   6.045  13.103  0.00  0.00    +0.000 OA
ATOM     38  H   UNL     1       8.565   6.969  12.992  0.00  0.00    +0.000 HD
ENDBRANCH  35  37
ENDBRANCH  34  35
ENDBRANCH  31  34
ENDBRANCH  29  31
BRANCH  29  39
ATOM     39  O   UNL     1       6.186   6.896  16.731  0.00  0.00    +0.000 OA
ATOM     40  H   UNL     1       7.118   6.903  17.036  0.00  0.00    +0.000 HD
ENDBRANCH  29  39
ENDBRANCH  28  29
ENDBRANCH  27  28
ENDBRANCH   1  27
TORSDOF 13
ENDMDL
MODEL 8
REMARK VINA RESULT:      -7.5      4.489      9.678
REMARK  Name = 
REMARK  14 active torsions:
REMARK  status: ('A' for Active; 'I' for Inactive)
REMARK    1  A    between atoms: C_1  and  C_2
REMARK    2  A    between atoms: C_2  and  N_3
REMARK    3  A    between atoms: C_2  and  C_32
REMARK    4  A    between atoms: N_3  and  P_4
REMARK    5  A    between atoms: P_4  and  O_6
REMARK    6  A    between atoms: P_4  and  O_7
REMARK    7  A    between atoms: O_7  and  C_8
REMARK    8  A    between atoms: C_8  and  C_9
REMARK    9  A    between atoms: C_11  and  N_12
REMARK   10  A    between atoms: N_17  and  C_18
REMARK   11  A    between atoms: C_18  and  C_19
REMARK   12  A    between atoms: C_28  and  O_29
REMARK   13  A    between atoms: C_30  and  O_31
REMARK   14  A    between atoms: C_32  and  O_34
REMARK                            x       y       z     vdW  Elec       q    Type
REMARK                         _______ _______ _______ _____ _____    ______ ____
ROOT
ATOM      1  C   UNL     1      -0.703  11.300  20.283  0.00  0.00    +0.000 C 
ATOM      2  O   UNL     1      -0.521  10.006  19.674  0.00  0.00    +0.000 OA
ATOM      3  C   UNL     1       0.404   9.223  20.469  0.00  0.00    +0.000 C 
ATOM      4  C   UNL     1       0.986  10.155  21.535  0.00  0.00    +0.000 C 
ATOM      5  C   UNL     1      -0.132  11.176  21.696  0.00  0.00    +0.000 C 
ENDROOT
BRANCH   3   6
ATOM      6  N   UNL     1       1.385   8.626  19.588  0.00  0.00    +0.000 N 
ATOM      7  C   UNL     1       1.852   9.137  18.403  0.00  0.00    +0.000 A 
ATOM      8  N   UNL     1       2.643   8.290  17.777  0.00  0.00    +0.000 NA
ATOM      9  C   UNL     1       2.675   7.173  18.586  0.00  0.00    +0.000 A 
ATOM     10  C   UNL     1       3.291   5.921  18.430  0.00  0.00    +0.000 A 
ATOM     11  N   UNL     1       3.936   5.593  17.242  0.00  0.00    +0.000 N 
ATOM     12  N   UNL     1       3.173   5.022  19.444  0.00  0.00    +0.000 NA
ATOM     13  C   UNL     1       2.433   5.369  20.523  0.00  0.00    +0.000 A 
ATOM     14  N   UNL     1       1.761   6.516  20.753  0.00  0.00    +0.000 NA
ATOM     15  C   UNL     1       1.931   7.379  19.740  0.00  0.00    +0.000 A 
ATOM     16  H   UNL     1       4.107   6.430  16.688  0.00  0.00    +0.000 HD
BRANCH  11  17
ATOM     17  C   UNL     1       5.063   4.682  17.315  0.00  0.00    +0.000 C 
BRANCH  17  18
ATOM     18  C   UNL     1       6.269   5.359  17.882  0.00  0.00    +0.000 A 
ATOM     19  C   UNL     1       6.998   6.463  17.473  0.00  0.00    +0.000 A 
ATOM     20  C   UNL     1       7.981   6.681  18.464  0.00  0.00    +0.000 A 
ATOM     21  C   UNL     1       7.801   5.696  19.406  0.00  0.00    +0.000 A 
ATOM     22  O   UNL     1       6.764   4.887  19.061  0.00  0.00    +0.000 OA
ENDBRANCH  17  18
ENDBRANCH  11  17
ENDBRANCH   3   6
BRANCH   4  23
ATOM     23  O   UNL     1       1.263   9.514  22.780  0.00  0.00    +0.000 OA
ATOM     24  H   UNL     1       2.212   9.258  22.758  0.00  0.00    +0.000 HD
ENDBRANCH   4  23
BRANCH   5  25
ATOM     25  O   UNL     1      -1.102  10.636  22.613  0.00  0.00    +0.000 OA
ATOM     26  H   UNL     1      -1.075   9.661  22.566  0.00  0.00    +0.000 HD
ENDBRANCH   5  25
BRANCH   1  27
ATOM     27  C   UNL     1       0.014  12.380  19.472  0.00  0.00    +0.000 C 
BRANCH  27  28
ATOM     28  O   UNL     1       1.438  12.297  19.600  0.00  0.00    +0.000 OA
BRANCH  28  29
ATOM     29  P   UNL     1       2.381  13.374  18.630  0.00  0.00    +0.000 P 
ATOM     30  O   UNL     1       1.183  14.299  18.415  0.00  0.00    +0.000 OA
BRANCH  29  31
ATOM     31  N   UNL     1       3.354  14.483  17.633  0.00  0.00    +0.000 NA
ATOM     32  H   UNL     1       2.677  15.217  17.416  0.00  0.00    +0.000 HD
BRANCH  31  34
ATOM     33  C   UNL     1       5.835  14.753  17.867  0.00  0.00    +0.000 C 
ATOM     34  C   UNL     1       4.457  15.129  18.399  0.00  0.00    +0.000 C 
BRANCH  34  35
ATOM     35  C   UNL     1       4.249  16.648  18.392  0.00  0.00    +0.000 C 
ATOM     36  O   UNL     1       3.229  17.223  18.052  0.00  0.00    +0.000 OA
BRANCH  35  37
ATOM     37  O   UNL     1       5.353  17.307  18.832  0.00  0.00    +0.000 OA
ATOM     38  H   UNL     1       5.116  17.845  19.624  0.00  0.00    +0.000 HD
ENDBRANCH  35  37
ENDBRANCH  34  35
ENDBRANCH  31  34
ENDBRANCH  29  31
BRANCH  29  39
ATOM     39  O   UNL     1       2.334  12.412  17.311  0.00  0.00    +0.000 OA
ATOM     40  H   UNL     1       1.428  12.484  16.943  0.00  0.00    +0.000 HD
ENDBRANCH  29  39
ENDBRANCH  28  29
ENDBRANCH  27  28
ENDBRANCH   1  27
TORSDOF 13
ENDMDL
MODEL 9
REMARK VINA RESULT:      -7.4      1.890      2.174
REMARK  Name = 
REMARK  14 active torsions:
REMARK  status: ('A' for Active; 'I' for Inactive)
REMARK    1  A    between atoms: C_1  and  C_2
REMARK    2  A    between atoms: C_2  and  N_3
REMARK    3  A    between atoms: C_2  and  C_32
REMARK    4  A    between atoms: N_3  and  P_4
REMARK    5  A    between atoms: P_4  and  O_6
REMARK    6  A    between atoms: P_4  and  O_7
REMARK    7  A    between atoms: O_7  and  C_8
REMARK    8  A    between atoms: C_8  and  C_9
REMARK    9  A    between atoms: C_11  and  N_12
REMARK   10  A    between atoms: N_17  and  C_18
REMARK   11  A    between atoms: C_18  and  C_19
REMARK   12  A    between atoms: C_28  and  O_29
REMARK   13  A    between atoms: C_30  and  O_31
REMARK   14  A    between atoms: C_32  and  O_34
REMARK                            x       y       z     vdW  Elec       q    Type
REMARK                         _______ _______ _______ _____ _____    ______ ____
ROOT
ATOM      1  C   UNL     1       4.407   3.928  19.282  0.00  0.00    +0.000 C 
ATOM      2  O   UNL     1       4.254   5.319  19.630  0.00  0.00    +0.000 OA
ATOM      3  C   UNL     1       2.897   5.559  20.078  0.00  0.00    +0.000 C 
ATOM      4  C   UNL     1       2.098   4.281  19.806  0.00  0.00    +0.000 C 
ATOM      5  C   UNL     1       3.187   3.218  19.867  0.00  0.00    +0.000 C 
ENDROOT
BRANCH   3   6
ATOM      6  N   UNL     1       2.390   6.740  19.412  0.00  0.00    +0.000 N 
ATOM      7  C   UNL     1       2.588   7.102  18.103  0.00  0.00    +0.000 A 
ATOM      8  N   UNL     1       2.103   8.298  17.842  0.00  0.00    +0.000 NA
ATOM      9  C   UNL     1       1.582   8.737  19.042  0.00  0.00    +0.000 A 
ATOM     10  C   UNL     1       0.989   9.954  19.416  0.00  0.00    +0.000 A 
ATOM     11  N   UNL     1       0.949  11.024  18.527  0.00  0.00    +0.000 N 
ATOM     12  N   UNL     1       0.526  10.072  20.690  0.00  0.00    +0.000 NA
ATOM     13  C   UNL     1       0.703   9.029  21.534  0.00  0.00    +0.000 A 
ATOM     14  N   UNL     1       1.300   7.842  21.296  0.00  0.00    +0.000 NA
ATOM     15  C   UNL     1       1.713   7.763  20.022  0.00  0.00    +0.000 A 
ATOM     16  H   UNL     1       1.143  10.706  17.580  0.00  0.00    +0.000 HD
BRANCH  11  17
ATOM     17  C   UNL     1      -0.166  11.947  18.634  0.00  0.00    +0.000 C 
BRANCH  17  18
ATOM     18  C   UNL     1      -1.432  11.323  18.144  0.00  0.00    +0.000 A 
ATOM     19  C   UNL     1      -2.754  11.736  18.185  0.00  0.00    +0.000 A 
ATOM     20  C   UNL     1      -3.497  10.764  17.479  0.00  0.00    +0.000 A 
ATOM     21  C   UNL     1      -2.592   9.817  17.062  0.00  0.00    +0.000 A 
ATOM     22  O   UNL     1      -1.336  10.146  17.462  0.00  0.00    +0.000 OA
ENDBRANCH  17  18
ENDBRANCH  11  17
ENDBRANCH   3   6
BRANCH   4  23
ATOM     23  O   UNL     1       1.081   4.013  20.771  0.00  0.00    +0.000 OA
ATOM     24  H   UNL     1       0.973   4.835  21.298  0.00  0.00    +0.000 HD
ENDBRANCH   4  23
BRANCH   5  25
ATOM     25  O   UNL     1       3.391   2.866  21.248  0.00  0.00    +0.000 OA
ATOM     26  H   UNL     1       3.825   1.993  21.293  0.00  0.00    +0.000 HD
ENDBRANCH   5  25
BRANCH   1  27
ATOM     27  C   UNL     1       4.489   3.764  17.763  0.00  0.00    +0.000 C 
BRANCH  27  28
ATOM     28  O   UNL     1       5.819   3.955  17.269  0.00  0.00    +0.000 OA
BRANCH  28  29
ATOM     29  P   UNL     1       5.982   4.631  15.685  0.00  0.00    +0.000 P 
ATOM     30  O   UNL     1       7.497   4.755  15.847  0.00  0.00    +0.000 OA
BRANCH  29  31
ATOM     31  N   UNL     1       6.149   5.326  14.054  0.00  0.00    +0.000 NA
ATOM     32  H   UNL     1       6.464   6.275  14.263  0.00  0.00    +0.000 HD
BRANCH  31  34
ATOM     33  C   UNL     1       6.689   3.752  12.179  0.00  0.00    +0.000 C 
ATOM     34  C   UNL     1       7.232   4.678  13.261  0.00  0.00    +0.000 C 
BRANCH  34  35
ATOM     35  C   UNL     1       8.135   5.766  12.667  0.00  0.00    +0.000 C 
ATOM     36  O   UNL     1       7.923   6.380  11.635  0.00  0.00    +0.000 OA
BRANCH  35  37
ATOM     37  O   UNL     1       9.228   5.990  13.445  0.00  0.00    +0.000 OA
ATOM     38  H   UNL     1       9.758   6.726  13.056  0.00  0.00    +0.000 HD
ENDBRANCH  35  37
ENDBRANCH  34  35
ENDBRANCH  31  34
ENDBRANCH  29  31
BRANCH  29  39
ATOM     39  O   UNL     1       5.451   6.109  16.136  0.00  0.00    +0.000 OA
ATOM     40  H   UNL     1       4.475   6.049  16.199  0.00  0.00    +0.000 HD
ENDBRANCH  29  39
ENDBRANCH  28  29
ENDBRANCH  27  28
ENDBRANCH   1  27
TORSDOF 13
ENDMDL
