MODEL 1
REMARK VINA RESULT:      -8.4      0.000      0.000
REMARK  Name = 
REMARK  8 active torsions:
REMARK  status: ('A' for Active; 'I' for Inactive)
REMARK    1  A    between atoms: C_1  and  O_2
REMARK    2  A    between atoms: O_2  and  C_3
REMARK    3  A    between atoms: C_8  and  O_9
REMARK    4  A    between atoms: C_11  and  O_12
REMARK    5  A    between atoms: C_13  and  O_14
REMARK    6  A    between atoms: O_14  and  C_15
REMARK    7  A    between atoms: N_21  and  C_22
REMARK    8  A    between atoms: N_21  and  C_23
REMARK                            x       y       z     vdW  Elec       q    Type
REMARK                         _______ _______ _______ _____ _____    ______ ____
ROOT
ATOM      1  C   UNL     1       1.520   9.316  19.241  0.00  0.00    +0.000 A 
ATOM      2  C   UNL     1       1.071   8.872  20.490  0.00  0.00    +0.000 A 
ATOM      3  C   UNL     1       1.289   7.566  20.889  0.00  0.00    +0.000 A 
ATOM      4  C   UNL     1       2.016   6.687  20.078  0.00  0.00    +0.000 A 
ATOM      5  C   UNL     1       2.521   7.093  18.820  0.00  0.00    +0.000 A 
ATOM      6  C   UNL     1       2.197   8.424  18.383  0.00  0.00    +0.000 A 
ATOM      7  C   UNL     1       3.317   6.054  18.034  0.00  0.00    +0.000 A 
ATOM      8  C   UNL     1       4.347   6.370  17.087  0.00  0.00    +0.000 A 
ATOM      9  C   UNL     1       4.997   5.360  16.363  0.00  0.00    +0.000 A 
ATOM     10  C   UNL     1       4.681   4.020  16.604  0.00  0.00    +0.000 A 
ATOM     11  C   UNL     1       3.750   3.670  17.574  0.00  0.00    +0.000 A 
ATOM     12  C   UNL     1       3.074   4.668  18.312  0.00  0.00    +0.000 A 
ATOM     13  C   UNL     1       2.121   4.265  19.453  0.00  0.00    +0.000 C 
ATOM     14  C   UNL     1       2.289   5.305  20.586  0.00  0.00    +0.000 C 
ATOM     15  N   UNL     1       2.347   2.848  19.934  0.00  0.00    +0.000 N 
ATOM     16  C   UNL     1       3.614   2.699  20.708  0.00  0.00    +0.000 C 
ATOM     17  C   UNL     1       1.228   2.408  20.809  0.00  0.00    +0.000 C 
ATOM     18  C   UNL     1       2.352   1.944  18.756  0.00  0.00    +0.000 C 
ATOM     19  C   UNL     1       3.530   2.201  17.818  0.00  0.00    +0.000 C 
ENDROOT
BRANCH   1  21
ATOM     20  C   UNL     1       0.195  11.359  19.118  0.00  0.00    +0.000 C 
ATOM     21  O   UNL     1       1.310  10.595  18.825  0.00  0.00    +0.000 OA
ENDBRANCH   1  21
BRANCH   6  22
ATOM     22  O   UNL     1       2.455   8.880  17.137  0.00  0.00    +0.000 OA
ATOM     23  H   UNL     1       1.903   8.687  16.370  0.00  0.00    +0.000 HD
ENDBRANCH   6  22
BRANCH   8  24
ATOM     24  O   UNL     1       4.818   7.621  16.899  0.00  0.00    +0.000 OA
ATOM     25  H   UNL     1       4.758   8.321  17.561  0.00  0.00    +0.000 HD
ENDBRANCH   8  24
BRANCH   9  26
ATOM     26  O   UNL     1       5.948   5.719  15.458  0.00  0.00    +0.000 OA
ATOM     27  C   UNL     1       6.831   4.864  14.829  0.00  0.00    +0.000 C 
ENDBRANCH   9  26
TORSDOF 4
ENDMDL
MODEL 2
REMARK VINA RESULT:      -7.3      1.161      5.393
REMARK  Name = 
REMARK  8 active torsions:
REMARK  status: ('A' for Active; 'I' for Inactive)
REMARK    1  A    between atoms: C_1  and  O_2
REMARK    2  A    between atoms: O_2  and  C_3
REMARK    3  A    between atoms: C_8  and  O_9
REMARK    4  A    between atoms: C_11  and  O_12
REMARK    5  A    between atoms: C_13  and  O_14
REMARK    6  A    between atoms: O_14  and  C_15
REMARK    7  A    between atoms: N_21  and  C_22
REMARK    8  A    between atoms: N_21  and  C_23
REMARK                            x       y       z     vdW  Elec       q    Type
REMARK                         _______ _______ _______ _____ _____    ______ ____
ROOT
ATOM      1  C   UNL     1       6.558   5.047  15.314  0.00  0.00    +0.000 A 
ATOM      2  C   UNL     1       6.326   3.666  15.299  0.00  0.00    +0.000 A 
ATOM      3  C   UNL     1       5.345   3.111  16.100  0.00  0.00    +0.000 A 
ATOM      4  C   UNL     1       4.527   3.927  16.890  0.00  0.00    +0.000 A 
ATOM      5  C   UNL     1       4.695   5.332  16.918  0.00  0.00    +0.000 A 
ATOM      6  C   UNL     1       5.786   5.876  16.154  0.00  0.00    +0.000 A 
ATOM      7  C   UNL     1       3.730   6.121  17.799  0.00  0.00    +0.000 A 
ATOM      8  C   UNL     1       3.344   7.481  17.562  0.00  0.00    +0.000 A 
ATOM      9  C   UNL     1       2.494   8.156  18.451  0.00  0.00    +0.000 A 
ATOM     10  C   UNL     1       1.964   7.480  19.554  0.00  0.00    +0.000 A 
ATOM     11  C   UNL     1       2.247   6.137  19.770  0.00  0.00    +0.000 A 
ATOM     12  C   UNL     1       3.109   5.436  18.896  0.00  0.00    +0.000 A 
ATOM     13  C   UNL     1       3.332   3.924  19.089  0.00  0.00    +0.000 C 
ATOM     14  C   UNL     1       3.431   3.287  17.683  0.00  0.00    +0.000 C 
ATOM     15  N   UNL     1       2.262   3.277  19.941  0.00  0.00    +0.000 N 
ATOM     16  C   UNL     1       0.953   3.168  19.235  0.00  0.00    +0.000 C 
ATOM     17  C   UNL     1       2.673   1.905  20.344  0.00  0.00    +0.000 C 
ATOM     18  C   UNL     1       2.111   4.065  21.191  0.00  0.00    +0.000 C 
ATOM     19  C   UNL     1       1.573   5.473  20.940  0.00  0.00    +0.000 C 
ENDROOT
BRANCH   1  21
ATOM     20  C   UNL     1       7.801   5.270  13.229  0.00  0.00    +0.000 C 
ATOM     21  O   UNL     1       7.523   5.613  14.540  0.00  0.00    +0.000 OA
ENDBRANCH   1  21
BRANCH   6  22
ATOM     22  O   UNL     1       6.175   7.168  16.231  0.00  0.00    +0.000 OA
ATOM     23  H   UNL     1       7.004   7.456  16.633  0.00  0.00    +0.000 HD
ENDBRANCH   6  22
BRANCH   8  24
ATOM     24  O   UNL     1       3.687   8.163  16.448  0.00  0.00    +0.000 OA
ATOM     25  H   UNL     1       3.054   8.435  15.772  0.00  0.00    +0.000 HD
ENDBRANCH   8  24
BRANCH   9  26
ATOM     26  O   UNL     1       2.181   9.455  18.190  0.00  0.00    +0.000 OA
ATOM     27  C   UNL     1       1.014  10.095  18.555  0.00  0.00    +0.000 C 
ENDBRANCH   9  26
TORSDOF 4
ENDMDL
MODEL 3
REMARK VINA RESULT:      -6.4      2.656      4.455
REMARK  Name = 
REMARK  8 active torsions:
REMARK  status: ('A' for Active; 'I' for Inactive)
REMARK    1  A    between atoms: C_1  and  O_2
REMARK    2  A    between atoms: O_2  and  C_3
REMARK    3  A    between atoms: C_8  and  O_9
REMARK    4  A    between atoms: C_11  and  O_12
REMARK    5  A    between atoms: C_13  and  O_14
REMARK    6  A    between atoms: O_14  and  C_15
REMARK    7  A    between atoms: N_21  and  C_22
REMARK    8  A    between atoms: N_21  and  C_23
REMARK                            x       y       z     vdW  Elec       q    Type
REMARK                         _______ _______ _______ _____ _____    ______ ____
ROOT
ATOM      1  C   UNL     1       0.904   9.358  19.806  0.00  0.00    +0.000 A 
ATOM      2  C   UNL     1       1.424  10.034  18.696  0.00  0.00    +0.000 A 
ATOM      3  C   UNL     1       2.370   9.429  17.888  0.00  0.00    +0.000 A 
ATOM      4  C   UNL     1       2.775   8.111  18.131  0.00  0.00    +0.000 A 
ATOM      5  C   UNL     1       2.257   7.371  19.220  0.00  0.00    +0.000 A 
ATOM      6  C   UNL     1       1.349   8.054  20.103  0.00  0.00    +0.000 A 
ATOM      7  C   UNL     1       2.755   5.936  19.373  0.00  0.00    +0.000 A 
ATOM      8  C   UNL     1       2.005   4.879  19.986  0.00  0.00    +0.000 A 
ATOM      9  C   UNL     1       2.555   3.598  20.138  0.00  0.00    +0.000 A 
ATOM     10  C   UNL     1       3.830   3.325  19.634  0.00  0.00    +0.000 A 
ATOM     11  C   UNL     1       4.553   4.300  18.959  0.00  0.00    +0.000 A 
ATOM     12  C   UNL     1       4.027   5.602  18.800  0.00  0.00    +0.000 A 
ATOM     13  C   UNL     1       4.794   6.642  17.961  0.00  0.00    +0.000 C 
ATOM     14  C   UNL     1       3.746   7.476  17.186  0.00  0.00    +0.000 C 
ATOM     15  N   UNL     1       5.822   6.015  17.045  0.00  0.00    +0.000 N 
ATOM     16  C   UNL     1       5.203   5.290  15.897  0.00  0.00    +0.000 C 
ATOM     17  C   UNL     1       6.730   7.053  16.489  0.00  0.00    +0.000 C 
ATOM     18  C   UNL     1       6.666   5.090  17.844  0.00  0.00    +0.000 C 
ATOM     19  C   UNL     1       5.884   3.894  18.385  0.00  0.00    +0.000 C 
ENDROOT
BRANCH   1  21
ATOM     20  C   UNL     1      -0.768  11.060  20.310  0.00  0.00    +0.000 C 
ATOM     21  O   UNL     1      -0.023   9.936  20.618  0.00  0.00    +0.000 OA
ENDBRANCH   1  21
BRANCH   6  22
ATOM     22  O   UNL     1       0.922   7.534  21.276  0.00  0.00    +0.000 OA
ATOM     23  H   UNL     1       0.435   6.704  21.349  0.00  0.00    +0.000 HD
ENDBRANCH   6  22
BRANCH   8  24
ATOM     24  O   UNL     1       0.716   5.012  20.366  0.00  0.00    +0.000 OA
ATOM     25  H   UNL     1       0.067   5.534  19.879  0.00  0.00    +0.000 HD
ENDBRANCH   8  24
BRANCH   9  26
ATOM     26  O   UNL     1       1.808   2.639  20.751  0.00  0.00    +0.000 OA
ATOM     27  C   UNL     1       1.671   2.468  22.113  0.00  0.00    +0.000 C 
ENDBRANCH   9  26
TORSDOF 4
ENDMDL
MODEL 4
REMARK VINA RESULT:      -6.4      6.547      9.079
REMARK  Name = 
REMARK  8 active torsions:
REMARK  status: ('A' for Active; 'I' for Inactive)
REMARK    1  A    between atoms: C_1  and  O_2
REMARK    2  A    between atoms: O_2  and  C_3
REMARK    3  A    between atoms: C_8  and  O_9
REMARK    4  A    between atoms: C_11  and  O_12
REMARK    5  A    between atoms: C_13  and  O_14
REMARK    6  A    between atoms: O_14  and  C_15
REMARK    7  A    between atoms: N_21  and  C_22
REMARK    8  A    between atoms: N_21  and  C_23
REMARK                            x       y       z     vdW  Elec       q    Type
REMARK                         _______ _______ _______ _____ _____    ______ ____
ROOT
ATOM      1  C   UNL     1      -5.898  13.180  21.065  0.00  0.00    +0.000 A 
ATOM      2  C   UNL     1      -4.984  13.823  21.908  0.00  0.00    +0.000 A 
ATOM      3  C   UNL     1      -3.623  13.674  21.709  0.00  0.00    +0.000 A 
ATOM      4  C   UNL     1      -3.140  12.931  20.626  0.00  0.00    +0.000 A 
ATOM      5  C   UNL     1      -4.019  12.287  19.724  0.00  0.00    +0.000 A 
ATOM      6  C   UNL     1      -5.427  12.374  20.007  0.00  0.00    +0.000 A 
ATOM      7  C   UNL     1      -3.378  11.524  18.568  0.00  0.00    +0.000 A 
ATOM      8  C   UNL     1      -4.004  11.304  17.297  0.00  0.00    +0.000 A 
ATOM      9  C   UNL     1      -3.370  10.543  16.302  0.00  0.00    +0.000 A 
ATOM     10  C   UNL     1      -2.086  10.039  16.526  0.00  0.00    +0.000 A 
ATOM     11  C   UNL     1      -1.413  10.303  17.712  0.00  0.00    +0.000 A 
ATOM     12  C   UNL     1      -2.031  11.058  18.735  0.00  0.00    +0.000 A 
ATOM     13  C   UNL     1      -1.237  11.429  20.001  0.00  0.00    +0.000 C 
ATOM     14  C   UNL     1      -1.660  12.859  20.411  0.00  0.00    +0.000 C 
ATOM     15  N   UNL     1       0.259  11.302  19.814  0.00  0.00    +0.000 N 
ATOM     16  C   UNL     1       0.821  12.372  18.939  0.00  0.00    +0.000 C 
ATOM     17  C   UNL     1       0.958  11.376  21.125  0.00  0.00    +0.000 C 
ATOM     18  C   UNL     1       0.553   9.962  19.245  0.00  0.00    +0.000 C 
ATOM     19  C   UNL     1      -0.006   9.783  17.834  0.00  0.00    +0.000 C 
ENDROOT
BRANCH   1  21
ATOM     20  C   UNL     1      -7.917  14.502  21.412  0.00  0.00    +0.000 C 
ATOM     21  O   UNL     1      -7.241  13.307  21.246  0.00  0.00    +0.000 OA
ENDBRANCH   1  21
BRANCH   6  22
ATOM     22  O   UNL     1      -6.364  11.663  19.342  0.00  0.00    +0.000 OA
ATOM     23  H   UNL     1      -7.255  11.986  19.161  0.00  0.00    +0.000 HD
ENDBRANCH   6  22
BRANCH   8  24
ATOM     24  O   UNL     1      -5.174  11.875  16.940  0.00  0.00    +0.000 OA
ATOM     25  H   UNL     1      -5.743  11.536  16.238  0.00  0.00    +0.000 HD
ENDBRANCH   8  24
BRANCH   9  26
ATOM     26  O   UNL     1      -4.022  10.345  15.123  0.00  0.00    +0.000 OA
ATOM     27  C   UNL     1      -3.432  10.031  13.916  0.00  0.00    +0.000 C 
ENDBRANCH   9  26
TORSDOF 4
ENDMDL
MODEL 5
REMARK VINA RESULT:      -6.2      7.645     10.678
REMARK  Name = 
REMARK  8 active torsions:
REMARK  status: ('A' for Active; 'I' for Inactive)
REMARK    1  A    between atoms: C_1  and  O_2
REMARK    2  A    between atoms: O_2  and  C_3
REMARK    3  A    between atoms: C_8  and  O_9
REMARK    4  A    between atoms: C_11  and  O_12
REMARK    5  A    between atoms: C_13  and  O_14
REMARK    6  A    between atoms: O_14  and  C_15
REMARK    7  A    between atoms: N_21  and  C_22
REMARK    8  A    between atoms: N_21  and  C_23
REMARK                            x       y       z     vdW  Elec       q    Type
REMARK                         _______ _______ _______ _____ _____    ______ ____
ROOT
ATOM      1  C   UNL     1      -3.568  10.391  15.808  0.00  0.00    +0.000 A 
ATOM      2  C   UNL     1      -2.285   9.866  15.998  0.00  0.00    +0.000 A 
ATOM      3  C   UNL     1      -1.602  10.093  17.179  0.00  0.00    +0.000 A 
ATOM      4  C   UNL     1      -2.208  10.797  18.226  0.00  0.00    +0.000 A 
ATOM      5  C   UNL     1      -3.517  11.321  18.100  0.00  0.00    +0.000 A 
ATOM      6  C   UNL     1      -4.168  11.158  16.828  0.00  0.00    +0.000 A 
ATOM      7  C   UNL     1      -4.083  12.052  19.315  0.00  0.00    +0.000 A 
ATOM      8  C   UNL     1      -5.479  12.149  19.624  0.00  0.00    +0.000 A 
ATOM      9  C   UNL     1      -5.925  12.885  20.732  0.00  0.00    +0.000 A 
ATOM     10  C   UNL     1      -4.995  13.488  21.584  0.00  0.00    +0.000 A 
ATOM     11  C   UNL     1      -3.631  13.345  21.366  0.00  0.00    +0.000 A 
ATOM     12  C   UNL     1      -3.155  12.617  20.252  0.00  0.00    +0.000 A 
ATOM     13  C   UNL     1      -1.643  12.380  20.080  0.00  0.00    +0.000 C 
ATOM     14  C   UNL     1      -1.458  10.954  19.512  0.00  0.00    +0.000 C 
ATOM     15  N   UNL     1      -0.865  12.596  21.360  0.00  0.00    +0.000 N 
ATOM     16  C   UNL     1      -1.095  11.513  22.361  0.00  0.00    +0.000 C 
ATOM     17  C   UNL     1       0.595  12.652  21.082  0.00  0.00    +0.000 C 
ATOM     18  C   UNL     1      -1.245  13.914  21.929  0.00  0.00    +0.000 C 
ATOM     19  C   UNL     1      -2.705  13.965  22.378  0.00  0.00    +0.000 C 
ENDROOT
BRANCH   1  21
ATOM     20  C   UNL     1      -3.686   9.907  13.421  0.00  0.00    +0.000 C 
ATOM     21  O   UNL     1      -4.255  10.186  14.651  0.00  0.00    +0.000 OA
ENDBRANCH   1  21
BRANCH   6  22
ATOM     22  O   UNL     1      -5.334  11.761  16.507  0.00  0.00    +0.000 OA
ATOM     23  H   UNL     1      -5.404  12.684  16.234  0.00  0.00    +0.000 HD
ENDBRANCH   6  22
BRANCH   8  24
ATOM     24  O   UNL     1      -6.434  11.478  18.944  0.00  0.00    +0.000 OA
ATOM     25  H   UNL     1      -6.884  11.831  18.166  0.00  0.00    +0.000 HD
ENDBRANCH   8  24
BRANCH   9  26
ATOM     26  O   UNL     1      -7.264  12.965  20.963  0.00  0.00    +0.000 OA
ATOM     27  C   UNL     1      -7.915  12.540  22.103  0.00  0.00    +0.000 C 
ENDBRANCH   9  26
TORSDOF 4
ENDMDL
MODEL 6
REMARK VINA RESULT:      -6.2      8.337     10.392
REMARK  Name = 
REMARK  8 active torsions:
REMARK  status: ('A' for Active; 'I' for Inactive)
REMARK    1  A    between atoms: C_1  and  O_2
REMARK    2  A    between atoms: O_2  and  C_3
REMARK    3  A    between atoms: C_8  and  O_9
REMARK    4  A    between atoms: C_11  and  O_12
REMARK    5  A    between atoms: C_13  and  O_14
REMARK    6  A    between atoms: O_14  and  C_15
REMARK    7  A    between atoms: N_21  and  C_22
REMARK    8  A    between atoms: N_21  and  C_23
REMARK                            x       y       z     vdW  Elec       q    Type
REMARK                         _______ _______ _______ _____ _____    ______ ____
ROOT
ATOM      1  C   UNL     1      -3.186  10.981  17.030  0.00  0.00    +0.000 A 
ATOM      2  C   UNL     1      -4.547  11.302  16.963  0.00  0.00    +0.000 A 
ATOM      3  C   UNL     1      -5.169  11.941  18.020  0.00  0.00    +0.000 A 
ATOM      4  C   UNL     1      -4.435  12.332  19.146  0.00  0.00    +0.000 A 
ATOM      5  C   UNL     1      -3.050  12.061  19.251  0.00  0.00    +0.000 A 
ATOM      6  C   UNL     1      -2.446  11.309  18.184  0.00  0.00    +0.000 A 
ATOM      7  C   UNL     1      -2.350  12.554  20.515  0.00  0.00    +0.000 A 
ATOM      8  C   UNL     1      -0.960  12.900  20.589  0.00  0.00    +0.000 A 
ATOM      9  C   UNL     1      -0.377  13.294  21.803  0.00  0.00    +0.000 A 
ATOM     10  C   UNL     1      -1.169  13.409  22.948  0.00  0.00    +0.000 A 
ATOM     11  C   UNL     1      -2.536  13.165  22.898  0.00  0.00    +0.000 A 
ATOM     12  C   UNL     1      -3.148  12.758  21.690  0.00  0.00    +0.000 A 
ATOM     13  C   UNL     1      -4.677  12.591  21.623  0.00  0.00    +0.000 C 
ATOM     14  C   UNL     1      -5.137  13.085  20.232  0.00  0.00    +0.000 C 
ATOM     15  N   UNL     1      -5.395  13.298  22.752  0.00  0.00    +0.000 N 
ATOM     16  C   UNL     1      -5.378  14.782  22.603  0.00  0.00    +0.000 C 
ATOM     17  C   UNL     1      -6.817  12.866  22.820  0.00  0.00    +0.000 C 
ATOM     18  C   UNL     1      -4.764  12.901  24.037  0.00  0.00    +0.000 C 
ATOM     19  C   UNL     1      -3.321  13.388  24.162  0.00  0.00    +0.000 C 
ENDROOT
BRANCH   1  21
ATOM     20  C   UNL     1      -3.043  10.227  14.716  0.00  0.00    +0.000 C 
ATOM     21  O   UNL     1      -2.555  10.346  16.004  0.00  0.00    +0.000 OA
ENDBRANCH   1  21
BRANCH   6  22
ATOM     22  O   UNL     1      -1.185  10.825  18.238  0.00  0.00    +0.000 OA
ATOM     23  H   UNL     1      -0.404  11.333  17.987  0.00  0.00    +0.000 HD
ENDBRANCH   6  22
BRANCH   8  24
ATOM     24  O   UNL     1      -0.156  12.960  19.506  0.00  0.00    +0.000 OA
ATOM     25  H   UNL     1       0.696  12.509  19.447  0.00  0.00    +0.000 HD
ENDBRANCH   8  24
BRANCH   9  26
ATOM     26  O   UNL     1       0.952  13.585  21.820  0.00  0.00    +0.000 OA
ATOM     27  C   UNL     1       1.503  14.850  21.857  0.00  0.00    +0.000 C 
ENDBRANCH   9  26
TORSDOF 4
ENDMDL
MODEL 7
REMARK VINA RESULT:      -6.2      8.340      9.994
REMARK  Name = 
REMARK  8 active torsions:
REMARK  status: ('A' for Active; 'I' for Inactive)
REMARK    1  A    between atoms: C_1  and  O_2
REMARK    2  A    between atoms: O_2  and  C_3
REMARK    3  A    between atoms: C_8  and  O_9
REMARK    4  A    between atoms: C_11  and  O_12
REMARK    5  A    between atoms: C_13  and  O_14
REMARK    6  A    between atoms: O_14  and  C_15
REMARK    7  A    between atoms: N_21  and  C_22
REMARK    8  A    between atoms: N_21  and  C_23
REMARK                            x       y       z     vdW  Elec       q    Type
REMARK                         _______ _______ _______ _____ _____    ______ ____
ROOT
ATOM      1  C   UNL     1      -0.276  13.201  21.663  0.00  0.00    +0.000 A 
ATOM      2  C   UNL     1      -1.038  13.431  22.814  0.00  0.00    +0.000 A 
ATOM      3  C   UNL     1      -2.412  13.274  22.787  0.00  0.00    +0.000 A 
ATOM      4  C   UNL     1      -3.054  12.823  21.628  0.00  0.00    +0.000 A 
ATOM      5  C   UNL     1      -2.328  12.544  20.446  0.00  0.00    +0.000 A 
ATOM      6  C   UNL     1      -0.914  12.810  20.468  0.00  0.00    +0.000 A 
ATOM      7  C   UNL     1      -3.131  12.038  19.251  0.00  0.00    +0.000 A 
ATOM      8  C   UNL     1      -2.603  11.195  18.218  0.00  0.00    +0.000 A 
ATOM      9  C   UNL     1      -3.391  10.815  17.121  0.00  0.00    +0.000 A 
ATOM     10  C   UNL     1      -4.729  11.213  17.058  0.00  0.00    +0.000 A 
ATOM     11  C   UNL     1      -5.301  11.959  18.081  0.00  0.00    +0.000 A 
ATOM     12  C   UNL     1      -4.527  12.363  19.193  0.00  0.00    +0.000 A 
ATOM     13  C   UNL     1      -5.198  13.101  20.367  0.00  0.00    +0.000 C 
ATOM     14  C   UNL     1      -4.533  12.598  21.670  0.00  0.00    +0.000 C 
ATOM     15  N   UNL     1      -6.701  12.931  20.385  0.00  0.00    +0.000 N 
ATOM     16  C   UNL     1      -7.120  11.556  20.785  0.00  0.00    +0.000 C 
ATOM     17  C   UNL     1      -7.324  13.888  21.338  0.00  0.00    +0.000 C 
ATOM     18  C   UNL     1      -7.231  13.260  19.037  0.00  0.00    +0.000 C 
ATOM     19  C   UNL     1      -6.767  12.277  17.963  0.00  0.00    +0.000 C 
ENDROOT
BRANCH   1  21
ATOM     20  C   UNL     1       1.743  14.568  21.706  0.00  0.00    +0.000 C 
ATOM     21  O   UNL     1       1.076  13.357  21.665  0.00  0.00    +0.000 OA
ENDBRANCH   1  21
BRANCH   6  22
ATOM     22  O   UNL     1      -0.132  12.765  19.366  0.00  0.00    +0.000 OA
ATOM     23  H   UNL     1       0.810  12.559  19.384  0.00  0.00    +0.000 HD
ENDBRANCH   6  22
BRANCH   8  24
ATOM     24  O   UNL     1      -1.371  10.644  18.273  0.00  0.00    +0.000 OA
ATOM     25  H   UNL     1      -0.600  11.013  17.824  0.00  0.00    +0.000 HD
ENDBRANCH   8  24
BRANCH   9  26
ATOM     26  O   UNL     1      -2.830  10.035  16.158  0.00  0.00    +0.000 OA
ATOM     27  C   UNL     1      -3.017  10.170  14.797  0.00  0.00    +0.000 C 
ENDBRANCH   9  26
TORSDOF 4
ENDMDL
MODEL 8
REMARK VINA RESULT:      -6.2      7.874      9.536
REMARK  Name = 
REMARK  8 active torsions:
REMARK  status: ('A' for Active; 'I' for Inactive)
REMARK    1  A    between atoms: C_1  and  O_2
REMARK    2  A    between atoms: O_2  and  C_3
REMARK    3  A    between atoms: C_8  and  O_9
REMARK    4  A    between atoms: C_11  and  O_12
REMARK    5  A    between atoms: C_13  and  O_14
REMARK    6  A    between atoms: O_14  and  C_15
REMARK    7  A    between atoms: N_21  and  C_22
REMARK    8  A    between atoms: N_21  and  C_23
REMARK                            x       y       z     vdW  Elec       q    Type
REMARK                         _______ _______ _______ _____ _____    ______ ____
ROOT
ATOM      1  C   UNL     1      -3.211  10.440  16.744  0.00  0.00    +0.000 A 
ATOM      2  C   UNL     1      -4.527  10.836  17.008  0.00  0.00    +0.000 A 
ATOM      3  C   UNL     1      -4.816  11.612  18.115  0.00  0.00    +0.000 A 
ATOM      4  C   UNL     1      -3.790  12.066  18.953  0.00  0.00    +0.000 A 
ATOM      5  C   UNL     1      -2.438  11.723  18.713  0.00  0.00    +0.000 A 
ATOM      6  C   UNL     1      -2.173  10.834  17.614  0.00  0.00    +0.000 A 
ATOM      7  C   UNL     1      -1.404  12.294  19.680  0.00  0.00    +0.000 A 
ATOM      8  C   UNL     1      -0.037  12.559  19.340  0.00  0.00    +0.000 A 
ATOM      9  C   UNL     1       0.868  13.034  20.302  0.00  0.00    +0.000 A 
ATOM     10  C   UNL     1       0.422  13.310  21.598  0.00  0.00    +0.000 A 
ATOM     11  C   UNL     1      -0.914  13.147  21.942  0.00  0.00    +0.000 A 
ATOM     12  C   UNL     1      -1.844  12.661  20.996  0.00  0.00    +0.000 A 
ATOM     13  C   UNL     1      -3.339  12.582  21.360  0.00  0.00    +0.000 C 
ATOM     14  C   UNL     1      -4.145  12.965  20.096  0.00  0.00    +0.000 C 
ATOM     15  N   UNL     1      -3.698  13.440  22.554  0.00  0.00    +0.000 N 
ATOM     16  C   UNL     1      -3.674  14.899  22.241  0.00  0.00    +0.000 C 
ATOM     17  C   UNL     1      -5.061  13.106  23.047  0.00  0.00    +0.000 C 
ATOM     18  C   UNL     1      -2.754  13.134  23.658  0.00  0.00    +0.000 C 
ATOM     19  C   UNL     1      -1.317  13.541  23.337  0.00  0.00    +0.000 C 
ENDROOT
BRANCH   1  21
ATOM     20  C   UNL     1      -3.118  10.021  14.344  0.00  0.00    +0.000 C 
ATOM     21  O   UNL     1      -2.905   9.670  15.664  0.00  0.00    +0.000 OA
ENDBRANCH   1  21
BRANCH   6  22
ATOM     22  O   UNL     1      -0.962  10.280  17.381  0.00  0.00    +0.000 OA
ATOM     23  H   UNL     1      -0.735   9.806  16.573  0.00  0.00    +0.000 HD
ENDBRANCH   6  22
BRANCH   8  24
ATOM     24  O   UNL     1       0.443  12.463  18.082  0.00  0.00    +0.000 OA
ATOM     25  H   UNL     1       1.377  12.332  17.875  0.00  0.00    +0.000 HD
ENDBRANCH   8  24
BRANCH   9  26
ATOM     26  O   UNL     1       2.160  13.243  19.930  0.00  0.00    +0.000 OA
ATOM     27  C   UNL     1       2.790  14.468  19.847  0.00  0.00    +0.000 C 
ENDBRANCH   9  26
TORSDOF 4
ENDMDL
MODEL 9
REMARK VINA RESULT:      -6.0      6.019     11.101
REMARK  Name = 
REMARK  8 active torsions:
REMARK  status: ('A' for Active; 'I' for Inactive)
REMARK    1  A    between atoms: C_1  and  O_2
REMARK    2  A    between atoms: O_2  and  C_3
REMARK    3  A    between atoms: C_8  and  O_9
REMARK    4  A    between atoms: C_11  and  O_12
REMARK    5  A    between atoms: C_13  and  O_14
REMARK    6  A    between atoms: O_14  and  C_15
REMARK    7  A    between atoms: N_21  and  C_22
REMARK    8  A    between atoms: N_21  and  C_23
REMARK                            x       y       z     vdW  Elec       q    Type
REMARK                         _______ _______ _______ _____ _____    ______ ____
ROOT
ATOM      1  C   UNL     1      -0.117  10.952  19.545  0.00  0.00    +0.000 A 
ATOM      2  C   UNL     1      -1.084  10.890  18.535  0.00  0.00    +0.000 A 
ATOM      3  C   UNL     1      -2.330  11.461  18.721  0.00  0.00    +0.000 A 
ATOM      4  C   UNL     1      -2.621  12.164  19.896  0.00  0.00    +0.000 A 
ATOM      5  C   UNL     1      -1.669  12.286  20.936  0.00  0.00    +0.000 A 
ATOM      6  C   UNL     1      -0.417  11.600  20.761  0.00  0.00    +0.000 A 
ATOM      7  C   UNL     1      -2.091  13.094  22.161  0.00  0.00    +0.000 A 
ATOM      8  C   UNL     1      -1.184  13.802  23.016  0.00  0.00    +0.000 A 
ATOM      9  C   UNL     1      -1.645  14.478  24.156  0.00  0.00    +0.000 A 
ATOM     10  C   UNL     1      -3.013  14.514  24.436  0.00  0.00    +0.000 A 
ATOM     11  C   UNL     1      -3.932  13.911  23.585  0.00  0.00    +0.000 A 
ATOM     12  C   UNL     1      -3.494  13.216  22.435  0.00  0.00    +0.000 A 
ATOM     13  C   UNL     1      -4.527  12.641  21.447  0.00  0.00    +0.000 C 
ATOM     14  C   UNL     1      -3.957  12.826  20.021  0.00  0.00    +0.000 C 
ATOM     15  N   UNL     1      -5.899  13.261  21.605  0.00  0.00    +0.000 N 
ATOM     16  C   UNL     1      -5.953  14.668  21.111  0.00  0.00    +0.000 C 
ATOM     17  C   UNL     1      -6.916  12.478  20.854  0.00  0.00    +0.000 C 
ATOM     18  C   UNL     1      -6.283  13.201  23.038  0.00  0.00    +0.000 C 
ATOM     19  C   UNL     1      -5.389  14.066  23.926  0.00  0.00    +0.000 C 
ENDROOT
BRANCH   1  21
ATOM     20  C   UNL     1       1.651   9.970  18.183  0.00  0.00    +0.000 C 
ATOM     21  O   UNL     1       1.112  10.391  19.386  0.00  0.00    +0.000 OA
ENDBRANCH   1  21
BRANCH   6  22
ATOM     22  O   UNL     1       0.507  11.478  21.741  0.00  0.00    +0.000 OA
ATOM     23  H   UNL     1       1.166  10.775  21.772  0.00  0.00    +0.000 HD
ENDBRANCH   6  22
BRANCH   8  24
ATOM     24  O   UNL     1       0.130  13.946  22.741  0.00  0.00    +0.000 OA
ATOM     25  H   UNL     1       0.833  13.722  23.363  0.00  0.00    +0.000 HD
ENDBRANCH   8  24
BRANCH   9  26
ATOM     26  O   UNL     1      -0.736  15.113  24.945  0.00  0.00    +0.000 OA
ATOM     27  C   UNL     1      -1.019  15.831  26.089  0.00  0.00    +0.000 C 
ENDBRANCH   9  26
TORSDOF 4
ENDMDL
