MODEL 1
REMARK VINA RESULT:      -8.6      0.000      0.000
REMARK  Name = 
REMARK  7 active torsions:
REMARK  status: ('A' for Active; 'I' for Inactive)
REMARK    1  A    between atoms: C_1  and  O_2
REMARK    2  A    between atoms: O_2  and  C_3
REMARK    3  A    between atoms: C_6  and  N_7
REMARK    4  A    between atoms: C_8  and  S_9
REMARK    5  A    between atoms: S_9  and  C_10
REMARK    6  A    between atoms: C_10  and  C_11
REMARK    7  A    between atoms: C_11  and  C_13
REMARK                            x       y       z     vdW  Elec       q    Type
REMARK                         _______ _______ _______ _____ _____    ______ ____
ROOT
ATOM      1  N   UNL     1       5.549   5.668  17.631  0.00  0.00    +0.000 N 
ATOM      2  C   UNL     1       6.382   5.166  18.633  0.00  0.00    +0.000 A 
ATOM      3  N   UNL     1       5.965   4.525  19.694  0.00  0.00    +0.000 NA
ATOM      4  C   UNL     1       4.566   4.651  19.842  0.00  0.00    +0.000 A 
ATOM      5  C   UNL     1       3.990   5.819  19.387  0.00  0.00    +0.000 A 
ATOM      6  N   UNL     1       2.761   5.812  19.997  0.00  0.00    +0.000 N 
ATOM      7  C   UNL     1       2.303   4.520  19.816  0.00  0.00    +0.000 A 
ATOM      8  C   UNL     1       0.992   4.059  19.698  0.00  0.00    +0.000 A 
ATOM      9  C   UNL     1       0.837   2.751  19.254  0.00  0.00    +0.000 A 
ATOM     10  C   UNL     1       1.950   1.932  19.049  0.00  0.00    +0.000 A 
ATOM     11  C   UNL     1       3.266   2.384  19.307  0.00  0.00    +0.000 A 
ATOM     12  C   UNL     1       3.464   3.730  19.678  0.00  0.00    +0.000 A 
ATOM     13  C   UNL     1       4.298   6.178  18.012  0.00  0.00    +0.000 A 
ATOM     14  O   UNL     1       3.478   6.727  17.283  0.00  0.00    +0.000 OA
ATOM     15  H   UNL     1       2.545   6.320  20.843  0.00  0.00    +0.000 HD
ENDROOT
BRANCH   1  19
ATOM     16  C   UNL     1       6.192   4.026  13.734  0.00  0.00    +0.000 A 
ATOM     17  C   UNL     1       5.118   3.585  14.517  0.00  0.00    +0.000 A 
ATOM     18  C   UNL     1       4.866   4.135  15.783  0.00  0.00    +0.000 A 
ATOM     19  C   UNL     1       5.698   5.126  16.298  0.00  0.00    +0.000 A 
ATOM     20  C   UNL     1       6.763   5.576  15.480  0.00  0.00    +0.000 A 
ATOM     21  C   UNL     1       7.009   5.034  14.222  0.00  0.00    +0.000 A 
BRANCH  16  23
ATOM     22  C   UNL     1       5.187   3.029  11.832  0.00  0.00    +0.000 C 
ATOM     23  O   UNL     1       6.369   3.367  12.550  0.00  0.00    +0.000 OA
ENDBRANCH  16  23
ENDBRANCH   1  19
BRANCH   2  24
ATOM     24  S   UNL     1       8.067   5.605  18.323  0.00  0.00    +0.000 S 
BRANCH  24  25
ATOM     25  C   UNL     1       8.318   7.205  19.119  0.00  0.00    +0.000 C 
BRANCH  25  26
ATOM     26  C   UNL     1       8.159   8.341  18.128  0.00  0.00    +0.000 C 
ATOM     27  O   UNL     1       7.629   8.205  17.026  0.00  0.00    +0.000 OA
BRANCH  26  28
ATOM     28  C   UNL     1       8.682   9.692  18.483  0.00  0.00    +0.000 A 
ATOM     29  C   UNL     1       8.420  10.727  17.575  0.00  0.00    +0.000 A 
ATOM     30  C   UNL     1       8.838  12.029  17.838  0.00  0.00    +0.000 A 
ATOM     31  C   UNL     1       9.514  12.313  19.022  0.00  0.00    +0.000 A 
ATOM     32  C   UNL     1       9.770  11.294  19.940  0.00  0.00    +0.000 A 
ATOM     33  C   UNL     1       9.359   9.980  19.676  0.00  0.00    +0.000 A 
ENDBRANCH  26  28
ENDBRANCH  25  26
ENDBRANCH  24  25
ENDBRANCH   2  24
TORSDOF 6
ENDMDL
MODEL 2
REMARK VINA RESULT:      -8.5      0.145      1.212
REMARK  Name = 
REMARK  7 active torsions:
REMARK  status: ('A' for Active; 'I' for Inactive)
REMARK    1  A    between atoms: C_1  and  O_2
REMARK    2  A    between atoms: O_2  and  C_3
REMARK    3  A    between atoms: C_6  and  N_7
REMARK    4  A    between atoms: C_8  and  S_9
REMARK    5  A    between atoms: S_9  and  C_10
REMARK    6  A    between atoms: C_10  and  C_11
REMARK    7  A    between atoms: C_11  and  C_13
REMARK                            x       y       z     vdW  Elec       q    Type
REMARK                         _______ _______ _______ _____ _____    ______ ____
ROOT
ATOM      1  N   UNL     1       5.652   5.604  17.655  0.00  0.00    +0.000 N 
ATOM      2  C   UNL     1       6.437   5.139  18.711  0.00  0.00    +0.000 A 
ATOM      3  N   UNL     1       5.975   4.514  19.763  0.00  0.00    +0.000 NA
ATOM      4  C   UNL     1       4.568   4.619  19.832  0.00  0.00    +0.000 A 
ATOM      5  C   UNL     1       3.998   5.766  19.320  0.00  0.00    +0.000 A 
ATOM      6  N   UNL     1       2.738   5.752  19.864  0.00  0.00    +0.000 N 
ATOM      7  C   UNL     1       2.312   4.448  19.687  0.00  0.00    +0.000 A 
ATOM      8  C   UNL     1       1.016   3.963  19.510  0.00  0.00    +0.000 A 
ATOM      9  C   UNL     1       0.906   2.643  19.089  0.00  0.00    +0.000 A 
ATOM     10  C   UNL     1       2.042   1.838  18.961  0.00  0.00    +0.000 A 
ATOM     11  C   UNL     1       3.334   2.319  19.279  0.00  0.00    +0.000 A 
ATOM     12  C   UNL     1       3.491   3.676  19.631  0.00  0.00    +0.000 A 
ATOM     13  C   UNL     1       4.374   6.101  17.956  0.00  0.00    +0.000 A 
ATOM     14  O   UNL     1       3.586   6.620  17.172  0.00  0.00    +0.000 OA
ATOM     15  H   UNL     1       2.469   6.275  20.685  0.00  0.00    +0.000 HD
ENDROOT
BRANCH   1  19
ATOM     16  C   UNL     1       6.125   3.953  13.738  0.00  0.00    +0.000 A 
ATOM     17  C   UNL     1       6.982   4.966  14.184  0.00  0.00    +0.000 A 
ATOM     18  C   UNL     1       6.870   5.497  15.478  0.00  0.00    +0.000 A 
ATOM     19  C   UNL     1       5.882   5.036  16.344  0.00  0.00    +0.000 A 
ATOM     20  C   UNL     1       5.042   3.992  15.883  0.00  0.00    +0.000 A 
ATOM     21  C   UNL     1       5.157   3.463  14.601  0.00  0.00    +0.000 A 
BRANCH  16  23
ATOM     22  C   UNL     1       5.191   2.904  11.827  0.00  0.00    +0.000 C 
ATOM     23  O   UNL     1       6.294   3.566  12.437  0.00  0.00    +0.000 OA
ENDBRANCH  16  23
ENDBRANCH   1  19
BRANCH   2  24
ATOM     24  S   UNL     1       8.130   5.600  18.482  0.00  0.00    +0.000 S 
BRANCH  24  25
ATOM     25  C   UNL     1       8.287   7.264  19.160  0.00  0.00    +0.000 C 
BRANCH  25  26
ATOM     26  C   UNL     1       8.165   8.313  18.073  0.00  0.00    +0.000 C 
ATOM     27  O   UNL     1       7.749   8.066  16.941  0.00  0.00    +0.000 OA
BRANCH  26  28
ATOM     28  C   UNL     1       8.585   9.714  18.367  0.00  0.00    +0.000 A 
ATOM     29  C   UNL     1       9.337   9.914  19.532  0.00  0.00    +0.000 A 
ATOM     30  C   UNL     1       9.803  11.182  19.871  0.00  0.00    +0.000 A 
ATOM     31  C   UNL     1       9.531  12.265  19.038  0.00  0.00    +0.000 A 
ATOM     32  C   UNL     1       8.793  12.077  17.869  0.00  0.00    +0.000 A 
ATOM     33  C   UNL     1       8.315  10.804  17.528  0.00  0.00    +0.000 A 
ENDBRANCH  26  28
ENDBRANCH  25  26
ENDBRANCH  24  25
ENDBRANCH   2  24
TORSDOF 6
ENDMDL
MODEL 3
REMARK VINA RESULT:      -7.9      7.665     10.237
REMARK  Name = 
REMARK  7 active torsions:
REMARK  status: ('A' for Active; 'I' for Inactive)
REMARK    1  A    between atoms: C_1  and  O_2
REMARK    2  A    between atoms: O_2  and  C_3
REMARK    3  A    between atoms: C_6  and  N_7
REMARK    4  A    between atoms: C_8  and  S_9
REMARK    5  A    between atoms: S_9  and  C_10
REMARK    6  A    between atoms: C_10  and  C_11
REMARK    7  A    between atoms: C_11  and  C_13
REMARK                            x       y       z     vdW  Elec       q    Type
REMARK                         _______ _______ _______ _____ _____    ______ ____
ROOT
ATOM      1  N   UNL     1      -0.463  11.857  18.530  0.00  0.00    +0.000 N 
ATOM      2  C   UNL     1       0.189  10.778  19.128  0.00  0.00    +0.000 A 
ATOM      3  N   UNL     1       0.700  10.792  20.332  0.00  0.00    +0.000 NA
ATOM      4  C   UNL     1       0.762  12.110  20.837  0.00  0.00    +0.000 A 
ATOM      5  C   UNL     1       0.948  13.125  19.922  0.00  0.00    +0.000 A 
ATOM      6  N   UNL     1       1.344  14.178  20.708  0.00  0.00    +0.000 N 
ATOM      7  C   UNL     1       0.459  14.154  21.771  0.00  0.00    +0.000 A 
ATOM      8  C   UNL     1      -0.007  15.211  22.552  0.00  0.00    +0.000 A 
ATOM      9  C   UNL     1      -1.092  14.936  23.375  0.00  0.00    +0.000 A 
ATOM     10  C   UNL     1      -1.599  13.637  23.476  0.00  0.00    +0.000 A 
ATOM     11  C   UNL     1      -1.018  12.555  22.774  0.00  0.00    +0.000 A 
ATOM     12  C   UNL     1       0.031  12.813  21.867  0.00  0.00    +0.000 A 
ATOM     13  C   UNL     1       0.013  13.149  18.809  0.00  0.00    +0.000 A 
ATOM     14  O   UNL     1      -0.384  14.198  18.313  0.00  0.00    +0.000 OA
ATOM     15  H   UNL     1       2.306  14.453  20.846  0.00  0.00    +0.000 HD
ENDROOT
BRANCH   1  19
ATOM     16  C   UNL     1      -4.626  11.570  17.591  0.00  0.00    +0.000 A 
ATOM     17  C   UNL     1      -3.662  11.269  16.622  0.00  0.00    +0.000 A 
ATOM     18  C   UNL     1      -2.291  11.320  16.917  0.00  0.00    +0.000 A 
ATOM     19  C   UNL     1      -1.860  11.695  18.187  0.00  0.00    +0.000 A 
ATOM     20  C   UNL     1      -2.850  11.971  19.161  0.00  0.00    +0.000 A 
ATOM     21  C   UNL     1      -4.210  11.915  18.868  0.00  0.00    +0.000 A 
BRANCH  16  23
ATOM     22  C   UNL     1      -6.723  12.674  17.506  0.00  0.00    +0.000 C 
ATOM     23  O   UNL     1      -5.924  11.547  17.161  0.00  0.00    +0.000 OA
ENDBRANCH  16  23
ENDBRANCH   1  19
BRANCH   2  24
ATOM     24  S   UNL     1       0.319   9.423  17.999  0.00  0.00    +0.000 S 
BRANCH  24  25
ATOM     25  C   UNL     1       2.064   8.969  17.966  0.00  0.00    +0.000 C 
BRANCH  25  26
ATOM     26  C   UNL     1       2.324   7.727  18.795  0.00  0.00    +0.000 C 
ATOM     27  O   UNL     1       2.101   7.664  20.004  0.00  0.00    +0.000 OA
BRANCH  26  28
ATOM     28  C   UNL     1       2.897   6.520  18.133  0.00  0.00    +0.000 A 
ATOM     29  C   UNL     1       4.134   6.680  17.494  0.00  0.00    +0.000 A 
ATOM     30  C   UNL     1       4.763   5.601  16.878  0.00  0.00    +0.000 A 
ATOM     31  C   UNL     1       4.166   4.344  16.906  0.00  0.00    +0.000 A 
ATOM     32  C   UNL     1       2.940   4.168  17.550  0.00  0.00    +0.000 A 
ATOM     33  C   UNL     1       2.299   5.252  18.163  0.00  0.00    +0.000 A 
ENDBRANCH  26  28
ENDBRANCH  25  26
ENDBRANCH  24  25
ENDBRANCH   2  24
TORSDOF 6
ENDMDL
MODEL 4
REMARK VINA RESULT:      -7.9      2.644      4.995
REMARK  Name = 
REMARK  7 active torsions:
REMARK  status: ('A' for Active; 'I' for Inactive)
REMARK    1  A    between atoms: C_1  and  O_2
REMARK    2  A    between atoms: O_2  and  C_3
REMARK    3  A    between atoms: C_6  and  N_7
REMARK    4  A    between atoms: C_8  and  S_9
REMARK    5  A    between atoms: S_9  and  C_10
REMARK    6  A    between atoms: C_10  and  C_11
REMARK    7  A    between atoms: C_11  and  C_13
REMARK                            x       y       z     vdW  Elec       q    Type
REMARK                         _______ _______ _______ _____ _____    ______ ____
ROOT
ATOM      1  N   UNL     1       4.328   5.017  17.743  0.00  0.00    +0.000 N 
ATOM      2  C   UNL     1       4.033   4.064  16.768  0.00  0.00    +0.000 A 
ATOM      3  N   UNL     1       3.512   2.889  17.010  0.00  0.00    +0.000 NA
ATOM      4  C   UNL     1       3.547   2.597  18.391  0.00  0.00    +0.000 A 
ATOM      5  C   UNL     1       4.593   3.126  19.118  0.00  0.00    +0.000 A 
ATOM      6  N   UNL     1       4.573   2.382  20.271  0.00  0.00    +0.000 N 
ATOM      7  C   UNL     1       3.236   2.345  20.623  0.00  0.00    +0.000 A 
ATOM      8  C   UNL     1       2.662   2.250  21.891  0.00  0.00    +0.000 A 
ATOM      9  C   UNL     1       1.298   2.504  21.969  0.00  0.00    +0.000 A 
ATOM     10  C   UNL     1       0.548   2.733  20.812  0.00  0.00    +0.000 A 
ATOM     11  C   UNL     1       1.133   2.688  19.524  0.00  0.00    +0.000 A 
ATOM     12  C   UNL     1       2.528   2.514  19.414  0.00  0.00    +0.000 A 
ATOM     13  C   UNL     1       4.786   4.562  18.990  0.00  0.00    +0.000 A 
ATOM     14  O   UNL     1       5.164   5.255  19.929  0.00  0.00    +0.000 OA
ATOM     15  H   UNL     1       5.172   1.587  20.443  0.00  0.00    +0.000 HD
ENDROOT
BRANCH   1  19
ATOM     16  C   UNL     1       2.191   8.723  17.773  0.00  0.00    +0.000 A 
ATOM     17  C   UNL     1       3.507   8.672  17.299  0.00  0.00    +0.000 A 
ATOM     18  C   UNL     1       4.216   7.461  17.246  0.00  0.00    +0.000 A 
ATOM     19  C   UNL     1       3.623   6.280  17.685  0.00  0.00    +0.000 A 
ATOM     20  C   UNL     1       2.282   6.348  18.136  0.00  0.00    +0.000 A 
ATOM     21  C   UNL     1       1.579   7.549  18.185  0.00  0.00    +0.000 A 
BRANCH  16  23
ATOM     22  C   UNL     1       0.346  10.055  18.440  0.00  0.00    +0.000 C 
ATOM     23  O   UNL     1       1.634   9.969  17.836  0.00  0.00    +0.000 OA
ENDBRANCH  16  23
ENDBRANCH   1  19
BRANCH   2  24
ATOM     24  S   UNL     1       4.557   4.620  15.172  0.00  0.00    +0.000 S 
BRANCH  24  25
ATOM     25  C   UNL     1       6.214   3.950  14.932  0.00  0.00    +0.000 C 
BRANCH  25  26
ATOM     26  C   UNL     1       7.272   5.018  15.131  0.00  0.00    +0.000 C 
ATOM     27  O   UNL     1       7.950   5.474  14.211  0.00  0.00    +0.000 OA
BRANCH  26  28
ATOM     28  C   UNL     1       7.528   5.538  16.505  0.00  0.00    +0.000 A 
ATOM     29  C   UNL     1       7.862   4.592  17.484  0.00  0.00    +0.000 A 
ATOM     30  C   UNL     1       8.153   4.986  18.787  0.00  0.00    +0.000 A 
ATOM     31  C   UNL     1       8.125   6.337  19.124  0.00  0.00    +0.000 A 
ATOM     32  C   UNL     1       7.806   7.290  18.156  0.00  0.00    +0.000 A 
ATOM     33  C   UNL     1       7.505   6.897  16.845  0.00  0.00    +0.000 A 
ENDBRANCH  26  28
ENDBRANCH  25  26
ENDBRANCH  24  25
ENDBRANCH   2  24
TORSDOF 6
ENDMDL
MODEL 5
REMARK VINA RESULT:      -7.9      7.236     10.093
REMARK  Name = 
REMARK  7 active torsions:
REMARK  status: ('A' for Active; 'I' for Inactive)
REMARK    1  A    between atoms: C_1  and  O_2
REMARK    2  A    between atoms: O_2  and  C_3
REMARK    3  A    between atoms: C_6  and  N_7
REMARK    4  A    between atoms: C_8  and  S_9
REMARK    5  A    between atoms: S_9  and  C_10
REMARK    6  A    between atoms: C_10  and  C_11
REMARK    7  A    between atoms: C_11  and  C_13
REMARK                            x       y       z     vdW  Elec       q    Type
REMARK                         _______ _______ _______ _____ _____    ______ ____
ROOT
ATOM      1  N   UNL     1       0.152  11.122  19.726  0.00  0.00    +0.000 N 
ATOM      2  C   UNL     1      -0.047  10.776  21.064  0.00  0.00    +0.000 A 
ATOM      3  N   UNL     1      -0.026  11.621  22.062  0.00  0.00    +0.000 NA
ATOM      4  C   UNL     1       0.501  12.867  21.655  0.00  0.00    +0.000 A 
ATOM      5  C   UNL     1       1.450  12.851  20.654  0.00  0.00    +0.000 A 
ATOM      6  N   UNL     1       2.024  14.093  20.756  0.00  0.00    +0.000 N 
ATOM      7  C   UNL     1       0.946  14.951  20.881  0.00  0.00    +0.000 A 
ATOM      8  C   UNL     1       0.828  16.280  20.475  0.00  0.00    +0.000 A 
ATOM      9  C   UNL     1      -0.455  16.815  20.484  0.00  0.00    +0.000 A 
ATOM     10  C   UNL     1      -1.532  16.073  20.978  0.00  0.00    +0.000 A 
ATOM     11  C   UNL     1      -1.360  14.774  21.510  0.00  0.00    +0.000 A 
ATOM     12  C   UNL     1      -0.087  14.171  21.441  0.00  0.00    +0.000 A 
ATOM     13  C   UNL     1       1.075  12.141  19.442  0.00  0.00    +0.000 A 
ATOM     14  O   UNL     1       1.432  12.516  18.330  0.00  0.00    +0.000 OA
ATOM     15  H   UNL     1       2.889  14.280  21.242  0.00  0.00    +0.000 HD
ENDROOT
BRANCH   1  19
ATOM     16  C   UNL     1      -3.083  10.681  16.963  0.00  0.00    +0.000 A 
ATOM     17  C   UNL     1      -1.939   9.884  16.841  0.00  0.00    +0.000 A 
ATOM     18  C   UNL     1      -0.880   9.985  17.758  0.00  0.00    +0.000 A 
ATOM     19  C   UNL     1      -0.941  10.902  18.804  0.00  0.00    +0.000 A 
ATOM     20  C   UNL     1      -2.118  11.681  18.924  0.00  0.00    +0.000 A 
ATOM     21  C   UNL     1      -3.169  11.576  18.018  0.00  0.00    +0.000 A 
BRANCH  16  23
ATOM     22  C   UNL     1      -3.513  10.189  14.683  0.00  0.00    +0.000 C 
ATOM     23  O   UNL     1      -4.013  10.535  15.971  0.00  0.00    +0.000 OA
ENDBRANCH  16  23
ENDBRANCH   1  19
BRANCH   2  24
ATOM     24  S   UNL     1      -0.231   9.025  21.235  0.00  0.00    +0.000 S 
BRANCH  24  25
ATOM     25  C   UNL     1       1.442   8.353  21.285  0.00  0.00    +0.000 C 
BRANCH  25  26
ATOM     26  C   UNL     1       1.859   7.820  19.928  0.00  0.00    +0.000 C 
ATOM     27  O   UNL     1       2.101   8.546  18.964  0.00  0.00    +0.000 OA
BRANCH  26  28
ATOM     28  C   UNL     1       1.968   6.346  19.730  0.00  0.00    +0.000 A 
ATOM     29  C   UNL     1       2.414   5.911  18.474  0.00  0.00    +0.000 A 
ATOM     30  C   UNL     1       2.581   4.555  18.206  0.00  0.00    +0.000 A 
ATOM     31  C   UNL     1       2.314   3.616  19.200  0.00  0.00    +0.000 A 
ATOM     32  C   UNL     1       1.881   4.036  20.458  0.00  0.00    +0.000 A 
ATOM     33  C   UNL     1       1.704   5.400  20.729  0.00  0.00    +0.000 A 
ENDBRANCH  26  28
ENDBRANCH  25  26
ENDBRANCH  24  25
ENDBRANCH   2  24
TORSDOF 6
ENDMDL
MODEL 6
REMARK VINA RESULT:      -7.9      7.199      9.938
REMARK  Name = 
REMARK  7 active torsions:
REMARK  status: ('A' for Active; 'I' for Inactive)
REMARK    1  A    between atoms: C_1  and  O_2
REMARK    2  A    between atoms: O_2  and  C_3
REMARK    3  A    between atoms: C_6  and  N_7
REMARK    4  A    between atoms: C_8  and  S_9
REMARK    5  A    between atoms: S_9  and  C_10
REMARK    6  A    between atoms: C_10  and  C_11
REMARK    7  A    between atoms: C_11  and  C_13
REMARK                            x       y       z     vdW  Elec       q    Type
REMARK                         _______ _______ _______ _____ _____    ______ ____
ROOT
ATOM      1  N   UNL     1      -0.039  11.493  19.307  0.00  0.00    +0.000 N 
ATOM      2  C   UNL     1       0.546  10.485  20.075  0.00  0.00    +0.000 A 
ATOM      3  N   UNL     1       0.566  10.462  21.382  0.00  0.00    +0.000 NA
ATOM      4  C   UNL     1       0.176  11.712  21.913  0.00  0.00    +0.000 A 
ATOM      5  C   UNL     1       0.482  12.833  21.170  0.00  0.00    +0.000 A 
ATOM      6  N   UNL     1       0.344  13.851  22.080  0.00  0.00    +0.000 N 
ATOM      7  C   UNL     1      -0.845  13.566  22.724  0.00  0.00    +0.000 A 
ATOM      8  C   UNL     1      -1.765  14.442  23.301  0.00  0.00    +0.000 A 
ATOM      9  C   UNL     1      -3.000  13.902  23.641  0.00  0.00    +0.000 A 
ATOM     10  C   UNL     1      -3.241  12.532  23.501  0.00  0.00    +0.000 A 
ATOM     11  C   UNL     1      -2.242  11.643  23.040  0.00  0.00    +0.000 A 
ATOM     12  C   UNL     1      -1.006  12.169  22.609  0.00  0.00    +0.000 A 
ATOM     13  C   UNL     1       0.036  12.811  19.786  0.00  0.00    +0.000 A 
ATOM     14  O   UNL     1      -0.349  13.822  19.209  0.00  0.00    +0.000 OA
ATOM     15  H   UNL     1       1.114  14.271  22.581  0.00  0.00    +0.000 HD
ENDROOT
BRANCH   1  19
ATOM     16  C   UNL     1      -3.355  10.625  16.747  0.00  0.00    +0.000 A 
ATOM     17  C   UNL     1      -2.130   9.974  16.560  0.00  0.00    +0.000 A 
ATOM     18  C   UNL     1      -1.039  10.215  17.409  0.00  0.00    +0.000 A 
ATOM     19  C   UNL     1      -1.150  11.130  18.454  0.00  0.00    +0.000 A 
ATOM     20  C   UNL     1      -2.405  11.758  18.643  0.00  0.00    +0.000 A 
ATOM     21  C   UNL     1      -3.487  11.515  17.802  0.00  0.00    +0.000 A 
BRANCH  16  23
ATOM     22  C   UNL     1      -3.863  10.143  14.482  0.00  0.00    +0.000 C 
ATOM     23  O   UNL     1      -4.317  10.354  15.815  0.00  0.00    +0.000 OA
ENDBRANCH  16  23
ENDBRANCH   1  19
BRANCH   2  24
ATOM     24  S   UNL     1       1.347   9.296  19.038  0.00  0.00    +0.000 S 
BRANCH  24  25
ATOM     25  C   UNL     1       1.780   7.913  20.113  0.00  0.00    +0.000 C 
BRANCH  25  26
ATOM     26  C   UNL     1       2.450   6.800  19.331  0.00  0.00    +0.000 C 
ATOM     27  O   UNL     1       3.394   6.989  18.564  0.00  0.00    +0.000 OA
BRANCH  26  28
ATOM     28  C   UNL     1       1.941   5.405  19.473  0.00  0.00    +0.000 A 
ATOM     29  C   UNL     1       1.828   4.654  18.295  0.00  0.00    +0.000 A 
ATOM     30  C   UNL     1       1.395   3.331  18.332  0.00  0.00    +0.000 A 
ATOM     31  C   UNL     1       1.081   2.740  19.553  0.00  0.00    +0.000 A 
ATOM     32  C   UNL     1       1.201   3.473  20.734  0.00  0.00    +0.000 A 
ATOM     33  C   UNL     1       1.628   4.807  20.701  0.00  0.00    +0.000 A 
ENDBRANCH  26  28
ENDBRANCH  25  26
ENDBRANCH  24  25
ENDBRANCH   2  24
TORSDOF 6
ENDMDL
MODEL 7
REMARK VINA RESULT:      -7.8      7.218     10.393
REMARK  Name = 
REMARK  7 active torsions:
REMARK  status: ('A' for Active; 'I' for Inactive)
REMARK    1  A    between atoms: C_1  and  O_2
REMARK    2  A    between atoms: O_2  and  C_3
REMARK    3  A    between atoms: C_6  and  N_7
REMARK    4  A    between atoms: C_8  and  S_9
REMARK    5  A    between atoms: S_9  and  C_10
REMARK    6  A    between atoms: C_10  and  C_11
REMARK    7  A    between atoms: C_11  and  C_13
REMARK                            x       y       z     vdW  Elec       q    Type
REMARK                         _______ _______ _______ _____ _____    ______ ____
ROOT
ATOM      1  N   UNL     1       0.563  11.797  19.995  0.00  0.00    +0.000 N 
ATOM      2  C   UNL     1       0.391  12.166  21.330  0.00  0.00    +0.000 A 
ATOM      3  N   UNL     1       0.689  13.342  21.821  0.00  0.00    +0.000 NA
ATOM      4  C   UNL     1       1.462  14.088  20.904  0.00  0.00    +0.000 A 
ATOM      5  C   UNL     1       2.300  13.382  20.068  0.00  0.00    +0.000 A 
ATOM      6  N   UNL     1       3.158  14.348  19.605  0.00  0.00    +0.000 N 
ATOM      7  C   UNL     1       2.326  15.401  19.270  0.00  0.00    +0.000 A 
ATOM      8  C   UNL     1       2.495  16.378  18.288  0.00  0.00    +0.000 A 
ATOM      9  C   UNL     1       1.379  17.152  17.992  0.00  0.00    +0.000 A 
ATOM     10  C   UNL     1       0.198  17.010  18.727  0.00  0.00    +0.000 A 
ATOM     11  C   UNL     1       0.099  16.104  19.809  0.00  0.00    +0.000 A 
ATOM     12  C   UNL     1       1.184  15.247  20.084  0.00  0.00    +0.000 A 
ATOM     13  C   UNL     1       1.676  12.309  19.310  0.00  0.00    +0.000 A 
ATOM     14  O   UNL     1       2.025  12.031  18.168  0.00  0.00    +0.000 OA
ATOM     15  H   UNL     1       4.078  14.520  19.985  0.00  0.00    +0.000 HD
ENDROOT
BRANCH   1  19
ATOM     16  C   UNL     1      -2.927  10.973  17.664  0.00  0.00    +0.000 A 
ATOM     17  C   UNL     1      -1.837  10.095  17.636  0.00  0.00    +0.000 A 
ATOM     18  C   UNL     1      -0.696  10.326  18.420  0.00  0.00    +0.000 A 
ATOM     19  C   UNL     1      -0.619  11.452  19.234  0.00  0.00    +0.000 A 
ATOM     20  C   UNL     1      -1.743  12.314  19.269  0.00  0.00    +0.000 A 
ATOM     21  C   UNL     1      -2.875  12.082  18.495  0.00  0.00    +0.000 A 
BRANCH  16  23
ATOM     22  C   UNL     1      -5.116  11.484  16.909  0.00  0.00    +0.000 C 
ATOM     23  O   UNL     1      -3.950  10.673  16.807  0.00  0.00    +0.000 OA
ENDBRANCH  16  23
ENDBRANCH   1  19
BRANCH   2  24
ATOM     24  S   UNL     1      -0.187  10.797  22.288  0.00  0.00    +0.000 S 
BRANCH  24  25
ATOM     25  C   UNL     1       1.067   9.511  22.124  0.00  0.00    +0.000 C 
BRANCH  25  26
ATOM     26  C   UNL     1       0.521   8.303  21.388  0.00  0.00    +0.000 C 
ATOM     27  O   UNL     1      -0.615   7.863  21.564  0.00  0.00    +0.000 OA
BRANCH  26  28
ATOM     28  C   UNL     1       1.397   7.591  20.413  0.00  0.00    +0.000 A 
ATOM     29  C   UNL     1       1.830   8.327  19.302  0.00  0.00    +0.000 A 
ATOM     30  C   UNL     1       2.679   7.758  18.356  0.00  0.00    +0.000 A 
ATOM     31  C   UNL     1       3.114   6.445  18.518  0.00  0.00    +0.000 A 
ATOM     32  C   UNL     1       2.699   5.705  19.626  0.00  0.00    +0.000 A 
ATOM     33  C   UNL     1       1.839   6.271  20.576  0.00  0.00    +0.000 A 
ENDBRANCH  26  28
ENDBRANCH  25  26
ENDBRANCH  24  25
ENDBRANCH   2  24
TORSDOF 6
ENDMDL
MODEL 8
REMARK VINA RESULT:      -7.8      3.290      6.716
REMARK  Name = 
REMARK  7 active torsions:
REMARK  status: ('A' for Active; 'I' for Inactive)
REMARK    1  A    between atoms: C_1  and  O_2
REMARK    2  A    between atoms: O_2  and  C_3
REMARK    3  A    between atoms: C_6  and  N_7
REMARK    4  A    between atoms: C_8  and  S_9
REMARK    5  A    between atoms: S_9  and  C_10
REMARK    6  A    between atoms: C_10  and  C_11
REMARK    7  A    between atoms: C_11  and  C_13
REMARK                            x       y       z     vdW  Elec       q    Type
REMARK                         _______ _______ _______ _____ _____    ______ ____
ROOT
ATOM      1  N   UNL     1       4.643   5.413  17.682  0.00  0.00    +0.000 N 
ATOM      2  C   UNL     1       4.468   4.514  16.629  0.00  0.00    +0.000 A 
ATOM      3  N   UNL     1       4.020   3.292  16.761  0.00  0.00    +0.000 NA
ATOM      4  C   UNL     1       4.004   2.906  18.119  0.00  0.00    +0.000 A 
ATOM      5  C   UNL     1       4.971   3.450  18.938  0.00  0.00    +0.000 A 
ATOM      6  N   UNL     1       4.945   2.625  20.035  0.00  0.00    +0.000 N 
ATOM      7  C   UNL     1       3.597   2.473  20.307  0.00  0.00    +0.000 A 
ATOM      8  C   UNL     1       2.967   2.250  21.532  0.00  0.00    +0.000 A 
ATOM      9  C   UNL     1       1.586   2.405  21.550  0.00  0.00    +0.000 A 
ATOM     10  C   UNL     1       0.883   2.664  20.371  0.00  0.00    +0.000 A 
ATOM     11  C   UNL     1       1.535   2.752  19.118  0.00  0.00    +0.000 A 
ATOM     12  C   UNL     1       2.943   2.681  19.075  0.00  0.00    +0.000 A 
ATOM     13  C   UNL     1       5.067   4.901  18.919  0.00  0.00    +0.000 A 
ATOM     14  O   UNL     1       5.347   5.549  19.923  0.00  0.00    +0.000 OA
ATOM     15  H   UNL     1       5.590   1.863  20.186  0.00  0.00    +0.000 HD
ENDROOT
BRANCH   1  19
ATOM     16  C   UNL     1       2.250   8.955  17.844  0.00  0.00    +0.000 A 
ATOM     17  C   UNL     1       3.587   9.025  17.434  0.00  0.00    +0.000 A 
ATOM     18  C   UNL     1       4.381   7.872  17.338  0.00  0.00    +0.000 A 
ATOM     19  C   UNL     1       3.854   6.626  17.670  0.00  0.00    +0.000 A 
ATOM     20  C   UNL     1       2.493   6.573  18.058  0.00  0.00    +0.000 A 
ATOM     21  C   UNL     1       1.705   7.717  18.149  0.00  0.00    +0.000 A 
BRANCH  16  23
ATOM     22  C   UNL     1       0.976  10.414  19.211  0.00  0.00    +0.000 C 
ATOM     23  O   UNL     1       1.604  10.154  17.959  0.00  0.00    +0.000 OA
ENDBRANCH  16  23
ENDBRANCH   1  19
BRANCH   2  24
ATOM     24  S   UNL     1       5.032   5.217  15.107  0.00  0.00    +0.000 S 
BRANCH  24  25
ATOM     25  C   UNL     1       6.723   4.629  14.885  0.00  0.00    +0.000 C 
BRANCH  25  26
ATOM     26  C   UNL     1       7.132   4.672  13.426  0.00  0.00    +0.000 C 
ATOM     27  O   UNL     1       7.856   5.548  12.954  0.00  0.00    +0.000 OA
BRANCH  26  28
ATOM     28  C   UNL     1       6.625   3.619  12.500  0.00  0.00    +0.000 A 
ATOM     29  C   UNL     1       7.585   2.793  11.900  0.00  0.00    +0.000 A 
ATOM     30  C   UNL     1       7.205   1.760  11.047  0.00  0.00    +0.000 A 
ATOM     31  C   UNL     1       5.855   1.532  10.795  0.00  0.00    +0.000 A 
ATOM     32  C   UNL     1       4.888   2.340  11.396  0.00  0.00    +0.000 A 
ATOM     33  C   UNL     1       5.266   3.386  12.247  0.00  0.00    +0.000 A 
ENDBRANCH  26  28
ENDBRANCH  25  26
ENDBRANCH  24  25
ENDBRANCH   2  24
TORSDOF 6
ENDMDL
MODEL 9
REMARK VINA RESULT:      -7.8      7.817     10.319
REMARK  Name = 
REMARK  7 active torsions:
REMARK  status: ('A' for Active; 'I' for Inactive)
REMARK    1  A    between atoms: C_1  and  O_2
REMARK    2  A    between atoms: O_2  and  C_3
REMARK    3  A    between atoms: C_6  and  N_7
REMARK    4  A    between atoms: C_8  and  S_9
REMARK    5  A    between atoms: S_9  and  C_10
REMARK    6  A    between atoms: C_10  and  C_11
REMARK    7  A    between atoms: C_11  and  C_13
REMARK                            x       y       z     vdW  Elec       q    Type
REMARK                         _______ _______ _______ _____ _____    ______ ____
ROOT
ATOM      1  N   UNL     1      -0.453  11.336  20.316  0.00  0.00    +0.000 N 
ATOM      2  C   UNL     1      -0.677  10.656  21.514  0.00  0.00    +0.000 A 
ATOM      3  N   UNL     1      -1.009  11.228  22.643  0.00  0.00    +0.000 NA
ATOM      4  C   UNL     1      -0.835  12.628  22.568  0.00  0.00    +0.000 A 
ATOM      5  C   UNL     1       0.174  13.092  21.750  0.00  0.00    +0.000 A 
ATOM      6  N   UNL     1       0.342  14.387  22.175  0.00  0.00    +0.000 N 
ATOM      7  C   UNL     1      -0.948  14.874  22.282  0.00  0.00    +0.000 A 
ATOM      8  C   UNL     1      -1.412  16.180  22.119  0.00  0.00    +0.000 A 
ATOM      9  C   UNL     1      -2.789  16.336  22.019  0.00  0.00    +0.000 A 
ATOM     10  C   UNL     1      -3.644  15.242  22.184  0.00  0.00    +0.000 A 
ATOM     11  C   UNL     1      -3.151  13.950  22.483  0.00  0.00    +0.000 A 
ATOM     12  C   UNL     1      -1.757  13.740  22.510  0.00  0.00    +0.000 A 
ATOM     13  C   UNL     1       0.152  12.602  20.382  0.00  0.00    +0.000 A 
ATOM     14  O   UNL     1       0.493  13.300  19.433  0.00  0.00    +0.000 OA
ATOM     15  H   UNL     1       1.059  14.683  22.822  0.00  0.00    +0.000 HD
ENDROOT
BRANCH   1  19
ATOM     16  C   UNL     1      -3.077  10.691  17.000  0.00  0.00    +0.000 A 
ATOM     17  C   UNL     1      -1.833  10.050  17.050  0.00  0.00    +0.000 A 
ATOM     18  C   UNL     1      -0.971  10.218  18.145  0.00  0.00    +0.000 A 
ATOM     19  C   UNL     1      -1.333  11.047  19.203  0.00  0.00    +0.000 A 
ATOM     20  C   UNL     1      -2.606  11.665  19.146  0.00  0.00    +0.000 A 
ATOM     21  C   UNL     1      -3.462  11.495  18.062  0.00  0.00    +0.000 A 
BRANCH  16  23
ATOM     22  C   UNL     1      -3.050  10.133  14.696  0.00  0.00    +0.000 C 
ATOM     23  O   UNL     1      -3.795  10.499  15.853  0.00  0.00    +0.000 OA
ENDBRANCH  16  23
ENDBRANCH   1  19
BRANCH   2  24
ATOM     24  S   UNL     1      -0.352   8.928  21.322  0.00  0.00    +0.000 S 
BRANCH  24  25
ATOM     25  C   UNL     1       1.438   8.775  21.160  0.00  0.00    +0.000 C 
BRANCH  25  26
ATOM     26  C   UNL     1       1.820   8.225  19.799  0.00  0.00    +0.000 C 
ATOM     27  O   UNL     1       2.033   8.939  18.820  0.00  0.00    +0.000 OA
BRANCH  26  28
ATOM     28  C   UNL     1       1.929   6.749  19.618  0.00  0.00    +0.000 A 
ATOM     29  C   UNL     1       2.319   6.298  18.349  0.00  0.00    +0.000 A 
ATOM     30  C   UNL     1       2.482   4.939  18.094  0.00  0.00    +0.000 A 
ATOM     31  C   UNL     1       2.267   4.014  19.112  0.00  0.00    +0.000 A 
ATOM     32  C   UNL     1       1.889   4.450  20.383  0.00  0.00    +0.000 A 
ATOM     33  C   UNL     1       1.717   5.816  20.642  0.00  0.00    +0.000 A 
ENDBRANCH  26  28
ENDBRANCH  25  26
ENDBRANCH  24  25
ENDBRANCH   2  24
TORSDOF 6
ENDMDL
