MODEL 1
REMARK VINA RESULT:      -7.0      0.000      0.000
REMARK  Name = 
REMARK  4 active torsions:
REMARK  status: ('A' for Active; 'I' for Inactive)
REMARK    1  A    between atoms: C_1  and  N_2
REMARK    2  A    between atoms: N_2  and  C_3
REMARK    3  A    between atoms: N_2  and  C_12
REMARK    4  A    between atoms: N_17  and  C_18
REMARK                            x       y       z     vdW  Elec       q    Type
REMARK                         _______ _______ _______ _____ _____    ______ ____
ROOT
ATOM      1  C   UNL     1      -1.575  10.953  19.082  0.00  0.00    +0.000 C 
ATOM      2  C   UNL     1      -2.104  12.111  19.970  0.00  0.00    +0.000 C 
ATOM      3  N   UNL     1      -3.504  12.287  19.577  0.00  0.00    +0.000 N 
ATOM      4  C   UNL     1      -4.581  12.721  20.320  0.00  0.00    +0.000 C 
ATOM      5  O   UNL     1      -5.715  12.796  19.864  0.00  0.00    +0.000 OA
ATOM      6  N   UNL     1      -4.291  13.015  21.625  0.00  0.00    +0.000 N 
ATOM      7  C   UNL     1      -3.679  11.930  18.187  0.00  0.00    +0.000 C 
ATOM      8  C   UNL     1      -2.617  10.879  17.955  0.00  0.00    +0.000 C 
ATOM      9  C   UNL     1      -2.275  10.324  16.582  0.00  0.00    +0.000 C 
ATOM     10  C   UNL     1      -3.141   9.526  17.504  0.00  0.00    +0.000 C 
ATOM     11  H   UNL     1      -3.340  13.276  21.818  0.00  0.00    +0.000 HD
ENDROOT
BRANCH   6  12
ATOM     12  C   UNL     1      -5.307  13.455  22.583  0.00  0.00    +0.000 C 
ATOM     13  C   UNL     1      -4.916  13.020  24.002  0.00  0.00    +0.000 C 
ATOM     14  C   UNL     1      -3.717  13.799  24.546  0.00  0.00    +0.000 C 
ATOM     15  C   UNL     1      -3.943  15.307  24.476  0.00  0.00    +0.000 C 
ATOM     16  C   UNL     1      -4.341  15.763  23.074  0.00  0.00    +0.000 C 
ATOM     17  C   UNL     1      -5.534  14.973  22.533  0.00  0.00    +0.000 C 
ENDBRANCH   6  12
BRANCH   1  19
ATOM     18  C   UNL     1       0.376  12.458  18.422  0.00  0.00    +0.000 C 
ATOM     19  N   UNL     1      -0.204  11.127  18.578  0.00  0.00    +0.000 N 
BRANCH  19  20
ATOM     20  C   UNL     1       0.722  10.088  18.714  0.00  0.00    +0.000 A 
ATOM     21  N   UNL     1       1.343   9.591  17.602  0.00  0.00    +0.000 NA
ATOM     22  C   UNL     1       2.137   8.504  17.711  0.00  0.00    +0.000 A 
ATOM     23  N   UNL     1       2.426   7.793  18.809  0.00  0.00    +0.000 NA
ATOM     24  C   UNL     1       1.799   8.292  19.882  0.00  0.00    +0.000 A 
ATOM     25  N   UNL     1       1.866   7.737  21.131  0.00  0.00    +0.000 N 
ATOM     26  C   UNL     1       1.086   8.455  21.997  0.00  0.00    +0.000 A 
ATOM     27  C   UNL     1       0.507   9.479  21.279  0.00  0.00    +0.000 A 
ATOM     28  C   UNL     1       0.964   9.401  19.930  0.00  0.00    +0.000 A 
ATOM     29  H   UNL     1       2.389   6.900  21.346  0.00  0.00    +0.000 HD
ENDBRANCH  19  20
ENDBRANCH   1  19
TORSDOF 3
ENDMDL
MODEL 2
REMARK VINA RESULT:      -6.9      1.824      2.129
REMARK  Name = 
REMARK  4 active torsions:
REMARK  status: ('A' for Active; 'I' for Inactive)
REMARK    1  A    between atoms: C_1  and  N_2
REMARK    2  A    between atoms: N_2  and  C_3
REMARK    3  A    between atoms: N_2  and  C_12
REMARK    4  A    between atoms: N_17  and  C_18
REMARK                            x       y       z     vdW  Elec       q    Type
REMARK                         _______ _______ _______ _____ _____    ______ ____
ROOT
ATOM      1  C   UNL     1      -2.703  11.141  18.633  0.00  0.00    +0.000 C 
ATOM      2  C   UNL     1      -3.654  12.137  19.351  0.00  0.00    +0.000 C 
ATOM      3  N   UNL     1      -4.880  12.142  18.548  0.00  0.00    +0.000 N 
ATOM      4  C   UNL     1      -6.186  12.357  18.934  0.00  0.00    +0.000 C 
ATOM      5  O   UNL     1      -7.126  12.305  18.151  0.00  0.00    +0.000 OA
ATOM      6  N   UNL     1      -6.353  12.584  20.274  0.00  0.00    +0.000 N 
ATOM      7  C   UNL     1      -4.568  11.876  17.162  0.00  0.00    +0.000 C 
ATOM      8  C   UNL     1      -3.331  11.009  17.237  0.00  0.00    +0.000 C 
ATOM      9  C   UNL     1      -2.507  10.620  16.021  0.00  0.00    +0.000 C 
ATOM     10  C   UNL     1      -3.470   9.635  16.603  0.00  0.00    +0.000 C 
ATOM     11  H   UNL     1      -5.559  12.962  20.760  0.00  0.00    +0.000 HD
ENDROOT
BRANCH   6  12
ATOM     12  C   UNL     1      -7.668  12.796  20.883  0.00  0.00    +0.000 C 
ATOM     13  C   UNL     1      -7.830  11.895  22.114  0.00  0.00    +0.000 C 
ATOM     14  C   UNL     1      -6.947  12.333  23.284  0.00  0.00    +0.000 C 
ATOM     15  C   UNL     1      -7.172  13.799  23.644  0.00  0.00    +0.000 C 
ATOM     16  C   UNL     1      -7.024  14.716  22.432  0.00  0.00    +0.000 C 
ATOM     17  C   UNL     1      -7.902  14.266  21.263  0.00  0.00    +0.000 C 
ENDBRANCH   6  12
BRANCH   1  19
ATOM     18  C   UNL     1      -0.917  12.961  18.537  0.00  0.00    +0.000 C 
ATOM     19  N   UNL     1      -1.290  11.550  18.586  0.00  0.00    +0.000 N 
BRANCH  19  20
ATOM     20  C   UNL     1      -0.303  10.691  19.079  0.00  0.00    +0.000 A 
ATOM     21  N   UNL     1       0.490  10.004  18.204  0.00  0.00    +0.000 NA
ATOM     22  C   UNL     1       1.354   9.077  18.671  0.00  0.00    +0.000 A 
ATOM     23  N   UNL     1       1.565   8.704  19.940  0.00  0.00    +0.000 NA
ATOM     24  C   UNL     1       0.770   9.381  20.778  0.00  0.00    +0.000 A 
ATOM     25  N   UNL     1       0.729   9.171  22.129  0.00  0.00    +0.000 N 
ATOM     26  C   UNL     1      -0.209   9.990  22.696  0.00  0.00    +0.000 A 
ATOM     27  C   UNL     1      -0.781  10.727  21.681  0.00  0.00    +0.000 A 
ATOM     28  C   UNL     1      -0.156  10.365  20.451  0.00  0.00    +0.000 A 
ATOM     29  H   UNL     1       1.291   8.481  22.606  0.00  0.00    +0.000 HD
ENDBRANCH  19  20
ENDBRANCH   1  19
TORSDOF 3
ENDMDL
MODEL 3
REMARK VINA RESULT:      -6.8      3.461      8.216
REMARK  Name = 
REMARK  4 active torsions:
REMARK  status: ('A' for Active; 'I' for Inactive)
REMARK    1  A    between atoms: C_1  and  N_2
REMARK    2  A    between atoms: N_2  and  C_3
REMARK    3  A    between atoms: N_2  and  C_12
REMARK    4  A    between atoms: N_17  and  C_18
REMARK                            x       y       z     vdW  Elec       q    Type
REMARK                         _______ _______ _______ _____ _____    ______ ____
ROOT
ATOM      1  C   UNL     1       0.707  10.921  19.938  0.00  0.00    +0.000 C 
ATOM      2  C   UNL     1       0.667   9.384  19.726  0.00  0.00    +0.000 C 
ATOM      3  N   UNL     1       1.695   9.110  18.717  0.00  0.00    +0.000 N 
ATOM      4  C   UNL     1       2.475   7.988  18.536  0.00  0.00    +0.000 C 
ATOM      5  O   UNL     1       3.323   7.905  17.656  0.00  0.00    +0.000 OA
ATOM      6  N   UNL     1       2.260   6.991  19.449  0.00  0.00    +0.000 N 
ATOM      7  C   UNL     1       1.833  10.241  17.829  0.00  0.00    +0.000 C 
ATOM      8  C   UNL     1       1.461  11.422  18.697  0.00  0.00    +0.000 C 
ATOM      9  C   UNL     1       1.273  12.830  18.159  0.00  0.00    +0.000 C 
ATOM     10  C   UNL     1       2.549  12.472  18.853  0.00  0.00    +0.000 C 
ATOM     11  H   UNL     1       1.352   6.974  19.879  0.00  0.00    +0.000 HD
ENDROOT
BRANCH   6  12
ATOM     12  C   UNL     1       3.017   5.738  19.446  0.00  0.00    +0.000 C 
ATOM     13  C   UNL     1       2.583   4.858  20.626  0.00  0.00    +0.000 C 
ATOM     14  C   UNL     1       1.173   4.291  20.450  0.00  0.00    +0.000 C 
ATOM     15  C   UNL     1       1.025   3.546  19.127  0.00  0.00    +0.000 C 
ATOM     16  C   UNL     1       1.458   4.399  17.936  0.00  0.00    +0.000 C 
ATOM     17  C   UNL     1       2.865   4.970  18.124  0.00  0.00    +0.000 C 
ENDBRANCH   6  12
BRANCH   1  19
ATOM     18  C   UNL     1      -1.740  11.185  19.263  0.00  0.00    +0.000 C 
ATOM     19  N   UNL     1      -0.607  11.563  20.103  0.00  0.00    +0.000 N 
BRANCH  19  20
ATOM     20  C   UNL     1      -0.945  12.146  21.329  0.00  0.00    +0.000 A 
ATOM     21  N   UNL     1      -1.915  11.573  22.101  0.00  0.00    +0.000 NA
ATOM     22  C   UNL     1      -2.337  12.202  23.220  0.00  0.00    +0.000 A 
ATOM     23  N   UNL     1      -1.925  13.375  23.717  0.00  0.00    +0.000 NA
ATOM     24  C   UNL     1      -0.983  13.923  22.939  0.00  0.00    +0.000 A 
ATOM     25  N   UNL     1      -0.417  15.146  23.172  0.00  0.00    +0.000 N 
ATOM     26  C   UNL     1       0.477  15.438  22.179  0.00  0.00    +0.000 A 
ATOM     27  C   UNL     1       0.470  14.381  21.293  0.00  0.00    +0.000 A 
ATOM     28  C   UNL     1      -0.444  13.396  21.772  0.00  0.00    +0.000 A 
ATOM     29  H   UNL     1      -0.668  15.742  23.948  0.00  0.00    +0.000 HD
ENDBRANCH  19  20
ENDBRANCH   1  19
TORSDOF 3
ENDMDL
MODEL 4
REMARK VINA RESULT:      -6.8      3.526      9.146
REMARK  Name = 
REMARK  4 active torsions:
REMARK  status: ('A' for Active; 'I' for Inactive)
REMARK    1  A    between atoms: C_1  and  N_2
REMARK    2  A    between atoms: N_2  and  C_3
REMARK    3  A    between atoms: N_2  and  C_12
REMARK    4  A    between atoms: N_17  and  C_18
REMARK                            x       y       z     vdW  Elec       q    Type
REMARK                         _______ _______ _______ _____ _____    ______ ____
ROOT
ATOM      1  C   UNL     1       0.883   9.078  19.338  0.00  0.00    +0.000 C 
ATOM      2  C   UNL     1       2.079   8.221  18.842  0.00  0.00    +0.000 C 
ATOM      3  N   UNL     1       2.271   7.198  19.874  0.00  0.00    +0.000 N 
ATOM      4  C   UNL     1       2.750   5.911  19.761  0.00  0.00    +0.000 C 
ATOM      5  O   UNL     1       2.834   5.148  20.715  0.00  0.00    +0.000 OA
ATOM      6  N   UNL     1       3.078   5.536  18.486  0.00  0.00    +0.000 N 
ATOM      7  C   UNL     1       1.875   7.714  21.165  0.00  0.00    +0.000 C 
ATOM      8  C   UNL     1       0.795   8.718  20.829  0.00  0.00    +0.000 C 
ATOM      9  C   UNL     1       0.191   9.669  21.849  0.00  0.00    +0.000 C 
ATOM     10  C   UNL     1      -0.561   8.437  21.455  0.00  0.00    +0.000 C 
ATOM     11  H   UNL     1       3.326   6.279  17.857  0.00  0.00    +0.000 HD
ENDROOT
BRANCH   6  12
ATOM     12  C   UNL     1       3.569   4.196  18.156  0.00  0.00    +0.000 C 
ATOM     13  C   UNL     1       3.793   4.075  16.643  0.00  0.00    +0.000 C 
ATOM     14  C   UNL     1       4.989   4.897  16.158  0.00  0.00    +0.000 C 
ATOM     15  C   UNL     1       6.260   4.556  16.930  0.00  0.00    +0.000 C 
ATOM     16  C   UNL     1       6.060   4.661  18.440  0.00  0.00    +0.000 C 
ATOM     17  C   UNL     1       4.857   3.844  18.916  0.00  0.00    +0.000 C 
ENDBRANCH   6  12
BRANCH   1  19
ATOM     18  C   UNL     1       2.110  11.064  18.308  0.00  0.00    +0.000 C 
ATOM     19  N   UNL     1       1.014  10.526  19.109  0.00  0.00    +0.000 N 
BRANCH  19  20
ATOM     20  C   UNL     1      -0.115  11.347  19.199  0.00  0.00    +0.000 A 
ATOM     21  N   UNL     1      -0.096  12.426  20.037  0.00  0.00    +0.000 NA
ATOM     22  C   UNL     1      -1.223  13.144  20.227  0.00  0.00    +0.000 A 
ATOM     23  N   UNL     1      -2.434  12.947  19.688  0.00  0.00    +0.000 NA
ATOM     24  C   UNL     1      -2.431  11.880  18.880  0.00  0.00    +0.000 A 
ATOM     25  N   UNL     1      -3.541  11.408  18.234  0.00  0.00    +0.000 N 
ATOM     26  C   UNL     1      -3.219  10.286  17.521  0.00  0.00    +0.000 A 
ATOM     27  C   UNL     1      -1.879  10.036  17.728  0.00  0.00    +0.000 A 
ATOM     28  C   UNL     1      -1.355  11.053  18.579  0.00  0.00    +0.000 A 
ATOM     29  H   UNL     1      -4.458  11.824  18.319  0.00  0.00    +0.000 HD
ENDBRANCH  19  20
ENDBRANCH   1  19
TORSDOF 3
ENDMDL
MODEL 5
REMARK VINA RESULT:      -6.7      4.299      7.678
REMARK  Name = 
REMARK  4 active torsions:
REMARK  status: ('A' for Active; 'I' for Inactive)
REMARK    1  A    between atoms: C_1  and  N_2
REMARK    2  A    between atoms: N_2  and  C_3
REMARK    3  A    between atoms: N_2  and  C_12
REMARK    4  A    between atoms: N_17  and  C_18
REMARK                            x       y       z     vdW  Elec       q    Type
REMARK                         _______ _______ _______ _____ _____    ______ ____
ROOT
ATOM      1  C   UNL     1       3.270   5.460  19.763  0.00  0.00    +0.000 C 
ATOM      2  C   UNL     1       2.570   6.806  19.435  0.00  0.00    +0.000 C 
ATOM      3  N   UNL     1       1.408   6.861  20.327  0.00  0.00    +0.000 N 
ATOM      4  C   UNL     1       0.772   7.951  20.880  0.00  0.00    +0.000 C 
ATOM      5  O   UNL     1      -0.184   7.847  21.638  0.00  0.00    +0.000 OA
ATOM      6  N   UNL     1       1.326   9.160  20.554  0.00  0.00    +0.000 N 
ATOM      7  C   UNL     1       0.931   5.525  20.604  0.00  0.00    +0.000 C 
ATOM      8  C   UNL     1       2.179   4.676  20.509  0.00  0.00    +0.000 C 
ATOM      9  C   UNL     1       2.161   3.157  20.539  0.00  0.00    +0.000 C 
ATOM     10  C   UNL     1       2.534   3.913  21.774  0.00  0.00    +0.000 C 
ATOM     11  H   UNL     1       1.835   9.192  19.688  0.00  0.00    +0.000 HD
ENDROOT
BRANCH   6  12
ATOM     12  C   UNL     1       0.816  10.430  21.072  0.00  0.00    +0.000 C 
ATOM     13  C   UNL     1       1.639  11.597  20.509  0.00  0.00    +0.000 C 
ATOM     14  C   UNL     1       1.389  11.826  19.017  0.00  0.00    +0.000 C 
ATOM     15  C   UNL     1      -0.096  12.005  18.713  0.00  0.00    +0.000 C 
ATOM     16  C   UNL     1      -0.937  10.859  19.271  0.00  0.00    +0.000 C 
ATOM     17  C   UNL     1      -0.675  10.630  20.761  0.00  0.00    +0.000 C 
ENDBRANCH   6  12
BRANCH   1  19
ATOM     18  C   UNL     1       2.944   4.412  17.459  0.00  0.00    +0.000 C 
ATOM     19  N   UNL     1       3.799   4.731  18.600  0.00  0.00    +0.000 N 
BRANCH  19  20
ATOM     20  C   UNL     1       5.169   4.768  18.322  0.00  0.00    +0.000 A 
ATOM     21  N   UNL     1       6.045   5.128  19.308  0.00  0.00    +0.000 NA
ATOM     22  C   UNL     1       7.352   5.293  19.012  0.00  0.00    +0.000 A 
ATOM     23  N   UNL     1       7.959   5.150  17.826  0.00  0.00    +0.000 NA
ATOM     24  C   UNL     1       7.081   4.808  16.875  0.00  0.00    +0.000 A 
ATOM     25  N   UNL     1       7.408   4.646  15.557  0.00  0.00    +0.000 N 
ATOM     26  C   UNL     1       6.286   4.338  14.837  0.00  0.00    +0.000 A 
ATOM     27  C   UNL     1       5.225   4.313  15.717  0.00  0.00    +0.000 A 
ATOM     28  C   UNL     1       5.716   4.594  17.027  0.00  0.00    +0.000 A 
ATOM     29  H   UNL     1       8.340   4.778  15.189  0.00  0.00    +0.000 HD
ENDBRANCH  19  20
ENDBRANCH   1  19
TORSDOF 3
ENDMDL
MODEL 6
REMARK VINA RESULT:      -6.7      3.084      8.251
REMARK  Name = 
REMARK  4 active torsions:
REMARK  status: ('A' for Active; 'I' for Inactive)
REMARK    1  A    between atoms: C_1  and  N_2
REMARK    2  A    between atoms: N_2  and  C_3
REMARK    3  A    between atoms: N_2  and  C_12
REMARK    4  A    between atoms: N_17  and  C_18
REMARK                            x       y       z     vdW  Elec       q    Type
REMARK                         _______ _______ _______ _____ _____    ______ ____
ROOT
ATOM      1  C   UNL     1       0.311  10.829  19.840  0.00  0.00    +0.000 C 
ATOM      2  C   UNL     1       0.397   9.319  19.493  0.00  0.00    +0.000 C 
ATOM      3  N   UNL     1       1.595   9.185  18.659  0.00  0.00    +0.000 N 
ATOM      4  C   UNL     1       2.458   8.119  18.521  0.00  0.00    +0.000 C 
ATOM      5  O   UNL     1       3.447   8.156  17.799  0.00  0.00    +0.000 OA
ATOM      6  N   UNL     1       2.150   7.033  19.295  0.00  0.00    +0.000 N 
ATOM      7  C   UNL     1       1.816  10.400  17.908  0.00  0.00    +0.000 C 
ATOM      8  C   UNL     1       1.234  11.477  18.796  0.00  0.00    +0.000 C 
ATOM      9  C   UNL     1       1.059  12.920  18.356  0.00  0.00    +0.000 C 
ATOM     10  C   UNL     1       2.217  12.553  19.228  0.00  0.00    +0.000 C 
ATOM     11  H   UNL     1       1.185   6.937  19.556  0.00  0.00    +0.000 HD
ENDROOT
BRANCH   6  12
ATOM     12  C   UNL     1       2.968   5.818  19.316  0.00  0.00    +0.000 C 
ATOM     13  C   UNL     1       2.594   4.953  20.528  0.00  0.00    +0.000 C 
ATOM     14  C   UNL     1       1.212   4.313  20.389  0.00  0.00    +0.000 C 
ATOM     15  C   UNL     1       1.083   3.523  19.090  0.00  0.00    +0.000 C 
ATOM     16  C   UNL     1       1.458   4.360  17.869  0.00  0.00    +0.000 C 
ATOM     17  C   UNL     1       2.837   5.006  18.020  0.00  0.00    +0.000 C 
ENDBRANCH   6  12
BRANCH   1  19
ATOM     18  C   UNL     1      -1.968  11.119  18.729  0.00  0.00    +0.000 C 
ATOM     19  N   UNL     1      -1.047  11.397  19.827  0.00  0.00    +0.000 N 
BRANCH  19  20
ATOM     20  C   UNL     1      -1.654  11.771  21.031  0.00  0.00    +0.000 A 
ATOM     21  N   UNL     1      -1.146  11.307  22.212  0.00  0.00    +0.000 NA
ATOM     22  C   UNL     1      -1.803  11.557  23.365  0.00  0.00    +0.000 A 
ATOM     23  N   UNL     1      -2.949  12.229  23.539  0.00  0.00    +0.000 NA
ATOM     24  C   UNL     1      -3.432  12.664  22.368  0.00  0.00    +0.000 A 
ATOM     25  N   UNL     1      -4.617  13.335  22.234  0.00  0.00    +0.000 N 
ATOM     26  C   UNL     1      -4.848  13.604  20.912  0.00  0.00    +0.000 A 
ATOM     27  C   UNL     1      -3.792  13.084  20.195  0.00  0.00    +0.000 A 
ATOM     28  C   UNL     1      -2.869  12.495  21.109  0.00  0.00    +0.000 A 
ATOM     29  H   UNL     1      -5.229  13.553  23.007  0.00  0.00    +0.000 HD
ENDBRANCH  19  20
ENDBRANCH   1  19
TORSDOF 3
ENDMDL
MODEL 7
REMARK VINA RESULT:      -6.4     10.090     12.239
REMARK  Name = 
REMARK  4 active torsions:
REMARK  status: ('A' for Active; 'I' for Inactive)
REMARK    1  A    between atoms: C_1  and  N_2
REMARK    2  A    between atoms: N_2  and  C_3
REMARK    3  A    between atoms: N_2  and  C_12
REMARK    4  A    between atoms: N_17  and  C_18
REMARK                            x       y       z     vdW  Elec       q    Type
REMARK                         _______ _______ _______ _____ _____    ______ ____
ROOT
ATOM      1  C   UNL     1       9.701  13.518  19.852  0.00  0.00    +0.000 C 
ATOM      2  C   UNL     1       8.461  13.496  20.786  0.00  0.00    +0.000 C 
ATOM      3  N   UNL     1       8.618  12.288  21.601  0.00  0.00    +0.000 N 
ATOM      4  C   UNL     1       8.196  12.032  22.888  0.00  0.00    +0.000 C 
ATOM      5  O   UNL     1       8.421  10.974  23.462  0.00  0.00    +0.000 OA
ATOM      6  N   UNL     1       7.546  13.074  23.492  0.00  0.00    +0.000 N 
ATOM      7  C   UNL     1       9.330  11.275  20.856  0.00  0.00    +0.000 C 
ATOM      8  C   UNL     1      10.218  12.074  19.930  0.00  0.00    +0.000 C 
ATOM      9  C   UNL     1      11.031  11.452  18.807  0.00  0.00    +0.000 C 
ATOM     10  C   UNL     1      11.708  11.818  20.089  0.00  0.00    +0.000 C 
ATOM     11  H   UNL     1       7.094  13.728  22.878  0.00  0.00    +0.000 HD
ENDROOT
BRANCH   6  12
ATOM     12  C   UNL     1       7.055  13.010  24.870  0.00  0.00    +0.000 C 
ATOM     13  C   UNL     1       8.097  13.602  25.829  0.00  0.00    +0.000 C 
ATOM     14  C   UNL     1       8.228  15.120  25.689  0.00  0.00    +0.000 C 
ATOM     15  C   UNL     1       6.881  15.820  25.841  0.00  0.00    +0.000 C 
ATOM     16  C   UNL     1       5.824  15.242  24.903  0.00  0.00    +0.000 C 
ATOM     17  C   UNL     1       5.706  13.723  25.041  0.00  0.00    +0.000 C 
ENDBRANCH   6  12
BRANCH   1  19
ATOM     18  C   UNL     1       8.184  13.606  17.801  0.00  0.00    +0.000 C 
ATOM     19  N   UNL     1       9.435  13.953  18.471  0.00  0.00    +0.000 N 
BRANCH  19  20
ATOM     20  C   UNL     1      10.090  15.078  17.960  0.00  0.00    +0.000 A 
ATOM     21  N   UNL     1      11.354  14.949  17.456  0.00  0.00    +0.000 NA
ATOM     22  C   UNL     1      12.039  16.051  17.083  0.00  0.00    +0.000 A 
ATOM     23  N   UNL     1      11.646  17.331  17.136  0.00  0.00    +0.000 NA
ATOM     24  C   UNL     1      10.411  17.433  17.642  0.00  0.00    +0.000 A 
ATOM     25  N   UNL     1       9.773  18.623  17.863  0.00  0.00    +0.000 N 
ATOM     26  C   UNL     1       8.546  18.392  18.422  0.00  0.00    +0.000 A 
ATOM     27  C   UNL     1       8.409  17.028  18.568  0.00  0.00    +0.000 A 
ATOM     28  C   UNL     1       9.583  16.398  18.058  0.00  0.00    +0.000 A 
ATOM     29  H   UNL     1      10.184  19.525  17.668  0.00  0.00    +0.000 HD
ENDBRANCH  19  20
ENDBRANCH   1  19
TORSDOF 3
ENDMDL
MODEL 8
REMARK VINA RESULT:      -6.4      3.190      7.943
REMARK  Name = 
REMARK  4 active torsions:
REMARK  status: ('A' for Active; 'I' for Inactive)
REMARK    1  A    between atoms: C_1  and  N_2
REMARK    2  A    between atoms: N_2  and  C_3
REMARK    3  A    between atoms: N_2  and  C_12
REMARK    4  A    between atoms: N_17  and  C_18
REMARK                            x       y       z     vdW  Elec       q    Type
REMARK                         _______ _______ _______ _____ _____    ______ ____
ROOT
ATOM      1  C   UNL     1      -1.062  10.493  19.607  0.00  0.00    +0.000 C 
ATOM      2  C   UNL     1       0.195   9.682  19.196  0.00  0.00    +0.000 C 
ATOM      3  N   UNL     1       0.948   9.487  20.438  0.00  0.00    +0.000 N 
ATOM      4  C   UNL     1       1.781   8.453  20.812  0.00  0.00    +0.000 C 
ATOM      5  O   UNL     1       2.331   8.407  21.905  0.00  0.00    +0.000 OA
ATOM      6  N   UNL     1       1.904   7.457  19.882  0.00  0.00    +0.000 N 
ATOM      7  C   UNL     1       0.721  10.596  21.336  0.00  0.00    +0.000 C 
ATOM      8  C   UNL     1      -0.674  11.059  20.982  0.00  0.00    +0.000 C 
ATOM      9  C   UNL     1      -1.298  12.331  21.530  0.00  0.00    +0.000 C 
ATOM     10  C   UNL     1      -1.676  11.011  22.123  0.00  0.00    +0.000 C 
ATOM     11  H   UNL     1       1.740   7.722  18.926  0.00  0.00    +0.000 HD
ENDROOT
BRANCH   6  12
ATOM     12  C   UNL     1       2.713   6.258  20.108  0.00  0.00    +0.000 C 
ATOM     13  C   UNL     1       1.900   5.213  20.886  0.00  0.00    +0.000 C 
ATOM     14  C   UNL     1       0.781   4.595  20.046  0.00  0.00    +0.000 C 
ATOM     15  C   UNL     1       1.310   4.016  18.737  0.00  0.00    +0.000 C 
ATOM     16  C   UNL     1       2.129   5.035  17.948  0.00  0.00    +0.000 C 
ATOM     17  C   UNL     1       3.240   5.655  18.798  0.00  0.00    +0.000 C 
ENDBRANCH   6  12
BRANCH   1  19
ATOM     18  C   UNL     1      -0.584  12.657  18.343  0.00  0.00    +0.000 C 
ATOM     19  N   UNL     1      -1.470  11.539  18.656  0.00  0.00    +0.000 N 
BRANCH  19  20
ATOM     20  C   UNL     1      -2.433  11.255  17.683  0.00  0.00    +0.000 A 
ATOM     21  N   UNL     1      -2.036  10.829  16.447  0.00  0.00    +0.000 NA
ATOM     22  C   UNL     1      -2.951  10.679  15.466  0.00  0.00    +0.000 A 
ATOM     23  N   UNL     1      -4.272  10.900  15.521  0.00  0.00    +0.000 NA
ATOM     24  C   UNL     1      -4.636  11.327  16.737  0.00  0.00    +0.000 A 
ATOM     25  N   UNL     1      -5.914  11.682  17.070  0.00  0.00    +0.000 N 
ATOM     26  C   UNL     1      -5.951  12.111  18.369  0.00  0.00    +0.000 A 
ATOM     27  C   UNL     1      -4.668  12.034  18.865  0.00  0.00    +0.000 A 
ATOM     28  C   UNL     1      -3.816  11.519  17.843  0.00  0.00    +0.000 A 
ATOM     29  H   UNL     1      -6.690  11.658  16.423  0.00  0.00    +0.000 HD
ENDBRANCH  19  20
ENDBRANCH   1  19
TORSDOF 3
ENDMDL
MODEL 9
REMARK VINA RESULT:      -6.4      7.480     11.080
REMARK  Name = 
REMARK  4 active torsions:
REMARK  status: ('A' for Active; 'I' for Inactive)
REMARK    1  A    between atoms: C_1  and  N_2
REMARK    2  A    between atoms: N_2  and  C_3
REMARK    3  A    between atoms: N_2  and  C_12
REMARK    4  A    between atoms: N_17  and  C_18
REMARK                            x       y       z     vdW  Elec       q    Type
REMARK                         _______ _______ _______ _____ _____    ______ ____
ROOT
ATOM      1  C   UNL     1       5.231  15.141  19.250  0.00  0.00    +0.000 C 
ATOM      2  C   UNL     1       6.434  14.832  18.318  0.00  0.00    +0.000 C 
ATOM      3  N   UNL     1       7.458  15.818  18.675  0.00  0.00    +0.000 N 
ATOM      4  C   UNL     1       8.832  15.722  18.621  0.00  0.00    +0.000 C 
ATOM      5  O   UNL     1       9.574  16.627  18.980  0.00  0.00    +0.000 OA
ATOM      6  N   UNL     1       9.300  14.513  18.182  0.00  0.00    +0.000 N 
ATOM      7  C   UNL     1       6.834  17.038  19.135  0.00  0.00    +0.000 C 
ATOM      8  C   UNL     1       5.534  16.564  19.745  0.00  0.00    +0.000 C 
ATOM      9  C   UNL     1       4.432  17.504  20.204  0.00  0.00    +0.000 C 
ATOM     10  C   UNL     1       5.354  16.901  21.216  0.00  0.00    +0.000 C 
ATOM     11  H   UNL     1       8.682  13.989  17.588  0.00  0.00    +0.000 HD
ENDROOT
BRANCH   6  12
ATOM     12  C   UNL     1      10.728  14.203  18.091  0.00  0.00    +0.000 C 
ATOM     13  C   UNL     1      11.303  13.951  19.492  0.00  0.00    +0.000 C 
ATOM     14  C   UNL     1      10.808  12.638  20.102  0.00  0.00    +0.000 C 
ATOM     15  C   UNL     1      11.070  11.451  19.179  0.00  0.00    +0.000 C 
ATOM     16  C   UNL     1      10.515  11.682  17.775  0.00  0.00    +0.000 C 
ATOM     17  C   UNL     1      11.006  13.001  17.176  0.00  0.00    +0.000 C 
ENDBRANCH   6  12
BRANCH   1  19
ATOM     18  C   UNL     1       3.657  15.582  17.290  0.00  0.00    +0.000 C 
ATOM     19  N   UNL     1       3.906  15.028  18.619  0.00  0.00    +0.000 N 
BRANCH  19  20
ATOM     20  C   UNL     1       3.037  14.005  19.008  0.00  0.00    +0.000 A 
ATOM     21  N   UNL     1       2.887  12.908  18.207  0.00  0.00    +0.000 NA
ATOM     22  C   UNL     1       1.954  11.981  18.511  0.00  0.00    +0.000 A 
ATOM     23  N   UNL     1       1.099  11.971  19.543  0.00  0.00    +0.000 NA
ATOM     24  C   UNL     1       1.257  13.059  20.307  0.00  0.00    +0.000 A 
ATOM     25  N   UNL     1       0.485  13.342  21.401  0.00  0.00    +0.000 N 
ATOM     26  C   UNL     1       0.869  14.539  21.940  0.00  0.00    +0.000 A 
ATOM     27  C   UNL     1       1.900  15.028  21.166  0.00  0.00    +0.000 A 
ATOM     28  C   UNL     1       2.174  14.088  20.129  0.00  0.00    +0.000 A 
ATOM     29  H   UNL     1      -0.275  12.756  21.718  0.00  0.00    +0.000 HD
ENDBRANCH  19  20
ENDBRANCH   1  19
TORSDOF 3
ENDMDL
