MODEL 1
REMARK VINA RESULT:      -8.5      0.000      0.000
REMARK  Name = 
REMARK  4 active torsions:
REMARK  status: ('A' for Active; 'I' for Inactive)
REMARK    1  A    between atoms: C_2  and  C_3
REMARK    2  A    between atoms: C_5  and  O_6
REMARK    3  A    between atoms: O_6  and  C_7
REMARK    4  A    between atoms: C_16  and  C_17
REMARK                            x       y       z     vdW  Elec       q    Type
REMARK                         _______ _______ _______ _____ _____    ______ ____
ROOT
ATOM      1  C   UNL     1       7.348   6.827  17.649  0.00  0.00    +0.000 A 
ATOM      2  C   UNL     1       6.811   5.983  18.614  0.00  0.00    +0.000 A 
ATOM      3  C   UNL     1       6.232   4.807  18.183  0.00  0.00    +0.000 A 
ATOM      4  N   UNL     1       6.157   4.439  16.886  0.00  0.00    +0.000 NA
ATOM      5  C   UNL     1       6.710   5.251  15.951  0.00  0.00    +0.000 A 
ATOM      6  C   UNL     1       7.291   6.465  16.303  0.00  0.00    +0.000 A 
ENDROOT
BRANCH   5   7
ATOM      7  C   UNL     1       6.694   4.739  14.564  0.00  0.00    +0.000 A 
ATOM      8  C   UNL     1       7.635   5.179  13.613  0.00  0.00    +0.000 A 
ATOM      9  C   UNL     1       7.611   4.713  12.295  0.00  0.00    +0.000 A 
ATOM     10  C   UNL     1       6.641   3.800  11.891  0.00  0.00    +0.000 A 
ATOM     11  C   UNL     1       5.692   3.354  12.808  0.00  0.00    +0.000 A 
ATOM     12  C   UNL     1       5.719   3.821  14.125  0.00  0.00    +0.000 A 
ENDBRANCH   5   7
BRANCH   1  14
ATOM     13  N   UNL     1       8.489   9.056  18.320  0.00  0.00    +0.000 NA
ATOM     14  C   UNL     1       7.979   8.055  18.031  0.00  0.00    +0.000 C 
ENDBRANCH   1  14
BRANCH   3  15
ATOM     15  O   UNL     1       5.717   3.983  19.163  0.00  0.00    +0.000 OA
BRANCH  15  16
ATOM     16  C   UNL     1       4.331   3.643  18.986  0.00  0.00    +0.000 C 
ATOM     17  C   UNL     1       3.892   2.565  19.994  0.00  0.00    +0.000 C 
ATOM     18  C   UNL     1       2.368   2.468  20.110  0.00  0.00    +0.000 C 
ATOM     19  C   UNL     1       1.671   2.313  18.757  0.00  0.00    +0.000 C 
ATOM     20  C   UNL     1       1.390   3.748  18.306  0.00  0.00    +0.000 C 
ATOM     21  C   UNL     1       2.003   4.624  19.398  0.00  0.00    +0.000 C 
ATOM     22  C   UNL     1       3.495   4.922  19.180  0.00  0.00    +0.000 C 
ATOM     23  N   UNL     1       1.877   3.769  20.590  0.00  0.00    +0.000 NA
ATOM     24  H   UNL     1       0.888   3.678  20.828  0.00  0.00    +0.000 HD
ENDBRANCH  15  16
ENDBRANCH   3  15
TORSDOF 4
ENDMDL
MODEL 2
REMARK VINA RESULT:      -8.5      0.786      1.580
REMARK  Name = 
REMARK  4 active torsions:
REMARK  status: ('A' for Active; 'I' for Inactive)
REMARK    1  A    between atoms: C_2  and  C_3
REMARK    2  A    between atoms: C_5  and  O_6
REMARK    3  A    between atoms: O_6  and  C_7
REMARK    4  A    between atoms: C_16  and  C_17
REMARK                            x       y       z     vdW  Elec       q    Type
REMARK                         _______ _______ _______ _____ _____    ______ ____
ROOT
ATOM      1  C   UNL     1       7.377   6.654  17.741  0.00  0.00    +0.000 A 
ATOM      2  C   UNL     1       6.785   5.778  18.643  0.00  0.00    +0.000 A 
ATOM      3  C   UNL     1       6.175   4.650  18.132  0.00  0.00    +0.000 A 
ATOM      4  N   UNL     1       6.122   4.357  16.816  0.00  0.00    +0.000 NA
ATOM      5  C   UNL     1       6.729   5.199  15.942  0.00  0.00    +0.000 A 
ATOM      6  C   UNL     1       7.344   6.369  16.376  0.00  0.00    +0.000 A 
ENDROOT
BRANCH   5   7
ATOM      7  C   UNL     1       6.732   4.765  14.528  0.00  0.00    +0.000 A 
ATOM      8  C   UNL     1       5.823   3.796  14.060  0.00  0.00    +0.000 A 
ATOM      9  C   UNL     1       5.836   3.368  12.728  0.00  0.00    +0.000 A 
ATOM     10  C   UNL     1       6.762   3.894  11.832  0.00  0.00    +0.000 A 
ATOM     11  C   UNL     1       7.678   4.848  12.269  0.00  0.00    +0.000 A 
ATOM     12  C   UNL     1       7.663   5.274  13.600  0.00  0.00    +0.000 A 
ENDBRANCH   5   7
BRANCH   1  14
ATOM     13  N   UNL     1       8.564   8.801  18.577  0.00  0.00    +0.000 NA
ATOM     14  C   UNL     1       8.042   7.834  18.206  0.00  0.00    +0.000 C 
ENDBRANCH   1  14
BRANCH   3  15
ATOM     15  O   UNL     1       5.604   3.793  19.051  0.00  0.00    +0.000 OA
BRANCH  15  16
ATOM     16  C   UNL     1       4.170   3.724  18.989  0.00  0.00    +0.000 C 
ATOM     17  C   UNL     1       3.703   3.055  17.684  0.00  0.00    +0.000 C 
ATOM     18  C   UNL     1       2.241   2.605  17.754  0.00  0.00    +0.000 C 
ATOM     19  C   UNL     1       1.292   3.716  18.205  0.00  0.00    +0.000 C 
ATOM     20  C   UNL     1       1.245   3.583  19.729  0.00  0.00    +0.000 C 
ATOM     21  C   UNL     1       2.219   2.450  20.048  0.00  0.00    +0.000 C 
ATOM     22  C   UNL     1       3.675   2.918  20.205  0.00  0.00    +0.000 C 
ATOM     23  N   UNL     1       2.134   1.616  18.838  0.00  0.00    +0.000 NA
ATOM     24  H   UNL     1       1.209   1.185  18.798  0.00  0.00    +0.000 HD
ENDBRANCH  15  16
ENDBRANCH   3  15
TORSDOF 4
ENDMDL
MODEL 3
REMARK VINA RESULT:      -8.5      0.031      1.003
REMARK  Name = 
REMARK  4 active torsions:
REMARK  status: ('A' for Active; 'I' for Inactive)
REMARK    1  A    between atoms: C_2  and  C_3
REMARK    2  A    between atoms: C_5  and  O_6
REMARK    3  A    between atoms: O_6  and  C_7
REMARK    4  A    between atoms: C_16  and  C_17
REMARK                            x       y       z     vdW  Elec       q    Type
REMARK                         _______ _______ _______ _____ _____    ______ ____
ROOT
ATOM      1  C   UNL     1       7.361   6.846  17.657  0.00  0.00    +0.000 A 
ATOM      2  C   UNL     1       6.830   5.996  18.620  0.00  0.00    +0.000 A 
ATOM      3  C   UNL     1       6.239   4.827  18.185  0.00  0.00    +0.000 A 
ATOM      4  N   UNL     1       6.149   4.470  16.887  0.00  0.00    +0.000 NA
ATOM      5  C   UNL     1       6.696   5.287  15.953  0.00  0.00    +0.000 A 
ATOM      6  C   UNL     1       7.288   6.496  16.309  0.00  0.00    +0.000 A 
ENDROOT
BRANCH   5   7
ATOM      7  C   UNL     1       6.663   4.787  14.561  0.00  0.00    +0.000 A 
ATOM      8  C   UNL     1       5.685   3.866  14.140  0.00  0.00    +0.000 A 
ATOM      9  C   UNL     1       5.661   3.375  12.831  0.00  0.00    +0.000 A 
ATOM     10  C   UNL     1       6.622   3.787  11.911  0.00  0.00    +0.000 A 
ATOM     11  C   UNL     1       7.607   4.690  12.301  0.00  0.00    +0.000 A 
ATOM     12  C   UNL     1       7.627   5.180  13.611  0.00  0.00    +0.000 A 
ENDBRANCH   5   7
BRANCH   1  14
ATOM     13  N   UNL     1       8.510   9.057  18.370  0.00  0.00    +0.000 NA
ATOM     14  C   UNL     1       8.002   8.067  18.042  0.00  0.00    +0.000 C 
ENDBRANCH   1  14
BRANCH   3  15
ATOM     15  O   UNL     1       5.730   3.997  19.164  0.00  0.00    +0.000 OA
BRANCH  15  16
ATOM     16  C   UNL     1       4.346   3.650  18.988  0.00  0.00    +0.000 C 
ATOM     17  C   UNL     1       3.915   2.565  19.991  0.00  0.00    +0.000 C 
ATOM     18  C   UNL     1       2.392   2.457  20.108  0.00  0.00    +0.000 C 
ATOM     19  C   UNL     1       1.695   2.304  18.756  0.00  0.00    +0.000 C 
ATOM     20  C   UNL     1       1.404   3.740  18.312  0.00  0.00    +0.000 C 
ATOM     21  C   UNL     1       2.012   4.614  19.407  0.00  0.00    +0.000 C 
ATOM     22  C   UNL     1       3.502   4.923  19.189  0.00  0.00    +0.000 C 
ATOM     23  N   UNL     1       1.893   3.753  20.595  0.00  0.00    +0.000 NA
ATOM     24  H   UNL     1       0.905   3.654  20.834  0.00  0.00    +0.000 HD
ENDBRANCH  15  16
ENDBRANCH   3  15
TORSDOF 4
ENDMDL
MODEL 4
REMARK VINA RESULT:      -8.4      1.640      2.484
REMARK  Name = 
REMARK  4 active torsions:
REMARK  status: ('A' for Active; 'I' for Inactive)
REMARK    1  A    between atoms: C_2  and  C_3
REMARK    2  A    between atoms: C_5  and  O_6
REMARK    3  A    between atoms: O_6  and  C_7
REMARK    4  A    between atoms: C_16  and  C_17
REMARK                            x       y       z     vdW  Elec       q    Type
REMARK                         _______ _______ _______ _____ _____    ______ ____
ROOT
ATOM      1  C   UNL     1       6.489   4.859  17.981  0.00  0.00    +0.000 A 
ATOM      2  C   UNL     1       5.215   4.357  18.223  0.00  0.00    +0.000 A 
ATOM      3  C   UNL     1       4.458   3.984  17.132  0.00  0.00    +0.000 A 
ATOM      4  N   UNL     1       4.883   4.080  15.855  0.00  0.00    +0.000 NA
ATOM      5  C   UNL     1       6.138   4.541  15.625  0.00  0.00    +0.000 A 
ATOM      6  C   UNL     1       6.956   4.960  16.671  0.00  0.00    +0.000 A 
ENDROOT
BRANCH   5   7
ATOM      7  C   UNL     1       6.584   4.517  14.215  0.00  0.00    +0.000 A 
ATOM      8  C   UNL     1       6.068   3.577  13.303  0.00  0.00    +0.000 A 
ATOM      9  C   UNL     1       6.501   3.538  11.973  0.00  0.00    +0.000 A 
ATOM     10  C   UNL     1       7.468   4.434  11.525  0.00  0.00    +0.000 A 
ATOM     11  C   UNL     1       8.003   5.369  12.407  0.00  0.00    +0.000 A 
ATOM     12  C   UNL     1       7.567   5.406  13.736  0.00  0.00    +0.000 A 
ENDBRANCH   5   7
BRANCH   1  14
ATOM     13  N   UNL     1       8.005   5.556  19.964  0.00  0.00    +0.000 NA
ATOM     14  C   UNL     1       7.334   5.249  19.070  0.00  0.00    +0.000 C 
ENDBRANCH   1  14
BRANCH   3  15
ATOM     15  O   UNL     1       3.201   3.480  17.403  0.00  0.00    +0.000 OA
BRANCH  15  16
ATOM     16  C   UNL     1       2.838   3.502  18.793  0.00  0.00    +0.000 C 
ATOM     17  C   UNL     1       1.854   4.647  19.091  0.00  0.00    +0.000 C 
ATOM     18  C   UNL     1       1.144   4.466  20.436  0.00  0.00    +0.000 C 
ATOM     19  C   UNL     1       2.110   4.218  21.595  0.00  0.00    +0.000 C 
ATOM     20  C   UNL     1       2.263   2.696  21.647  0.00  0.00    +0.000 C 
ATOM     21  C   UNL     1       1.427   2.184  20.474  0.00  0.00    +0.000 C 
ATOM     22  C   UNL     1       2.196   2.146  19.143  0.00  0.00    +0.000 C 
ATOM     23  N   UNL     1       0.378   3.211  20.367  0.00  0.00    +0.000 NA
ATOM     24  H   UNL     1      -0.227   3.152  21.187  0.00  0.00    +0.000 HD
ENDBRANCH  15  16
ENDBRANCH   3  15
TORSDOF 4
ENDMDL
MODEL 5
REMARK VINA RESULT:      -8.3      1.614      2.119
REMARK  Name = 
REMARK  4 active torsions:
REMARK  status: ('A' for Active; 'I' for Inactive)
REMARK    1  A    between atoms: C_2  and  C_3
REMARK    2  A    between atoms: C_5  and  O_6
REMARK    3  A    between atoms: O_6  and  C_7
REMARK    4  A    between atoms: C_16  and  C_17
REMARK                            x       y       z     vdW  Elec       q    Type
REMARK                         _______ _______ _______ _____ _____    ______ ____
ROOT
ATOM      1  C   UNL     1       6.704   5.258  18.126  0.00  0.00    +0.000 A 
ATOM      2  C   UNL     1       5.348   5.333  18.423  0.00  0.00    +0.000 A 
ATOM      3  C   UNL     1       4.458   5.219  17.375  0.00  0.00    +0.000 A 
ATOM      4  N   UNL     1       4.831   5.042  16.089  0.00  0.00    +0.000 NA
ATOM      5  C   UNL     1       6.154   4.939  15.809  0.00  0.00    +0.000 A 
ATOM      6  C   UNL     1       7.115   5.067  16.807  0.00  0.00    +0.000 A 
ENDROOT
BRANCH   5   7
ATOM      7  C   UNL     1       6.492   4.635  14.401  0.00  0.00    +0.000 A 
ATOM      8  C   UNL     1       7.527   5.320  13.736  0.00  0.00    +0.000 A 
ATOM      9  C   UNL     1       7.837   5.050  12.399  0.00  0.00    +0.000 A 
ATOM     10  C   UNL     1       7.114   4.093  11.691  0.00  0.00    +0.000 A 
ATOM     11  C   UNL     1       6.079   3.407  12.321  0.00  0.00    +0.000 A 
ATOM     12  C   UNL     1       5.773   3.678  13.658  0.00  0.00    +0.000 A 
ENDBRANCH   5   7
BRANCH   1  14
ATOM     13  N   UNL     1       8.485   5.421  20.003  0.00  0.00    +0.000 NA
ATOM     14  C   UNL     1       7.681   5.352  19.170  0.00  0.00    +0.000 C 
ENDBRANCH   1  14
BRANCH   3  15
ATOM     15  O   UNL     1       3.118   5.286  17.699  0.00  0.00    +0.000 OA
BRANCH  15  16
ATOM     16  C   UNL     1       2.738   4.480  18.826  0.00  0.00    +0.000 C 
ATOM     17  C   UNL     1       1.868   5.280  19.813  0.00  0.00    +0.000 C 
ATOM     18  C   UNL     1       1.124   4.373  20.797  0.00  0.00    +0.000 C 
ATOM     19  C   UNL     1       2.042   3.380  21.511  0.00  0.00    +0.000 C 
ATOM     20  C   UNL     1       2.042   2.143  20.610  0.00  0.00    +0.000 C 
ATOM     21  C   UNL     1       1.177   2.537  19.413  0.00  0.00    +0.000 C 
ATOM     22  C   UNL     1       1.959   3.258  18.303  0.00  0.00    +0.000 C 
ATOM     23  N   UNL     1       0.238   3.500  20.010  0.00  0.00    +0.000 NA
ATOM     24  H   UNL     1      -0.383   3.002  20.651  0.00  0.00    +0.000 HD
ENDBRANCH  15  16
ENDBRANCH   3  15
TORSDOF 4
ENDMDL
MODEL 6
REMARK VINA RESULT:      -8.3      0.918      1.477
REMARK  Name = 
REMARK  4 active torsions:
REMARK  status: ('A' for Active; 'I' for Inactive)
REMARK    1  A    between atoms: C_2  and  C_3
REMARK    2  A    between atoms: C_5  and  O_6
REMARK    3  A    between atoms: O_6  and  C_7
REMARK    4  A    between atoms: C_16  and  C_17
REMARK                            x       y       z     vdW  Elec       q    Type
REMARK                         _______ _______ _______ _____ _____    ______ ____
ROOT
ATOM      1  C   UNL     1       7.282   6.726  17.584  0.00  0.00    +0.000 A 
ATOM      2  C   UNL     1       6.773   5.871  18.555  0.00  0.00    +0.000 A 
ATOM      3  C   UNL     1       6.198   4.692  18.130  0.00  0.00    +0.000 A 
ATOM      4  N   UNL     1       6.102   4.329  16.833  0.00  0.00    +0.000 NA
ATOM      5  C   UNL     1       6.627   5.152  15.891  0.00  0.00    +0.000 A 
ATOM      6  C   UNL     1       7.203   6.370  16.238  0.00  0.00    +0.000 A 
ENDROOT
BRANCH   5   7
ATOM      7  C   UNL     1       6.589   4.646  14.502  0.00  0.00    +0.000 A 
ATOM      8  C   UNL     1       7.561   5.032  13.559  0.00  0.00    +0.000 A 
ATOM      9  C   UNL     1       7.518   4.573  12.238  0.00  0.00    +0.000 A 
ATOM     10  C   UNL     1       6.497   3.721  11.825  0.00  0.00    +0.000 A 
ATOM     11  C   UNL     1       5.518   3.330  12.734  0.00  0.00    +0.000 A 
ATOM     12  C   UNL     1       5.564   3.790  14.054  0.00  0.00    +0.000 A 
ENDBRANCH   5   7
BRANCH   1  14
ATOM     13  N   UNL     1       8.418   8.949  18.281  0.00  0.00    +0.000 NA
ATOM     14  C   UNL     1       7.907   7.959  17.960  0.00  0.00    +0.000 C 
ENDBRANCH   1  14
BRANCH   3  15
ATOM     15  O   UNL     1       5.710   3.857  19.115  0.00  0.00    +0.000 OA
BRANCH  15  16
ATOM     16  C   UNL     1       4.283   3.693  19.104  0.00  0.00    +0.000 C 
ATOM     17  C   UNL     1       3.594   4.882  18.409  0.00  0.00    +0.000 C 
ATOM     18  C   UNL     1       2.146   4.568  18.023  0.00  0.00    +0.000 C 
ATOM     19  C   UNL     1       1.319   4.022  19.187  0.00  0.00    +0.000 C 
ATOM     20  C   UNL     1       1.506   2.504  19.110  0.00  0.00    +0.000 C 
ATOM     21  C   UNL     1       2.477   2.293  17.950  0.00  0.00    +0.000 C 
ATOM     22  C   UNL     1       3.955   2.384  18.362  0.00  0.00    +0.000 C 
ATOM     23  N   UNL     1       2.175   3.440  17.078  0.00  0.00    +0.000 NA
ATOM     24  H   UNL     1       1.240   3.319  16.685  0.00  0.00    +0.000 HD
ENDBRANCH  15  16
ENDBRANCH   3  15
TORSDOF 4
ENDMDL
MODEL 7
REMARK VINA RESULT:      -8.3      0.926      1.787
REMARK  Name = 
REMARK  4 active torsions:
REMARK  status: ('A' for Active; 'I' for Inactive)
REMARK    1  A    between atoms: C_2  and  C_3
REMARK    2  A    between atoms: C_5  and  O_6
REMARK    3  A    between atoms: O_6  and  C_7
REMARK    4  A    between atoms: C_16  and  C_17
REMARK                            x       y       z     vdW  Elec       q    Type
REMARK                         _______ _______ _______ _____ _____    ______ ____
ROOT
ATOM      1  C   UNL     1       7.231   6.698  17.544  0.00  0.00    +0.000 A 
ATOM      2  C   UNL     1       6.733   5.834  18.513  0.00  0.00    +0.000 A 
ATOM      3  C   UNL     1       6.154   4.658  18.084  0.00  0.00    +0.000 A 
ATOM      4  N   UNL     1       6.044   4.306  16.785  0.00  0.00    +0.000 NA
ATOM      5  C   UNL     1       6.559   5.137  15.845  0.00  0.00    +0.000 A 
ATOM      6  C   UNL     1       7.138   6.353  16.196  0.00  0.00    +0.000 A 
ENDROOT
BRANCH   5   7
ATOM      7  C   UNL     1       6.507   4.643  14.452  0.00  0.00    +0.000 A 
ATOM      8  C   UNL     1       5.469   3.797  14.016  0.00  0.00    +0.000 A 
ATOM      9  C   UNL     1       5.427   3.311  12.705  0.00  0.00    +0.000 A 
ATOM     10  C   UNL     1       6.426   3.654  11.798  0.00  0.00    +0.000 A 
ATOM     11  C   UNL     1       7.469   4.482  12.204  0.00  0.00    +0.000 A 
ATOM     12  C   UNL     1       7.508   4.967  13.515  0.00  0.00    +0.000 A 
ENDBRANCH   5   7
BRANCH   1  14
ATOM     13  N   UNL     1       8.360   8.922  18.249  0.00  0.00    +0.000 NA
ATOM     14  C   UNL     1       7.859   7.928  17.923  0.00  0.00    +0.000 C 
ENDBRANCH   1  14
BRANCH   3  15
ATOM     15  O   UNL     1       5.677   3.815  19.068  0.00  0.00    +0.000 OA
BRANCH  15  16
ATOM     16  C   UNL     1       4.247   3.675  19.090  0.00  0.00    +0.000 C 
ATOM     17  C   UNL     1       3.564   4.858  18.379  0.00  0.00    +0.000 C 
ATOM     18  C   UNL     1       2.103   4.559  18.032  0.00  0.00    +0.000 C 
ATOM     19  C   UNL     1       1.292   4.056  19.227  0.00  0.00    +0.000 C 
ATOM     20  C   UNL     1       1.452   2.534  19.184  0.00  0.00    +0.000 C 
ATOM     21  C   UNL     1       2.395   2.278  18.009  0.00  0.00    +0.000 C 
ATOM     22  C   UNL     1       3.882   2.353  18.389  0.00  0.00    +0.000 C 
ATOM     23  N   UNL     1       2.093   3.407  17.115  0.00  0.00    +0.000 NA
ATOM     24  H   UNL     1       1.149   3.292  16.745  0.00  0.00    +0.000 HD
ENDBRANCH  15  16
ENDBRANCH   3  15
TORSDOF 4
ENDMDL
MODEL 8
REMARK VINA RESULT:      -8.3      3.270      7.825
REMARK  Name = 
REMARK  4 active torsions:
REMARK  status: ('A' for Active; 'I' for Inactive)
REMARK    1  A    between atoms: C_2  and  C_3
REMARK    2  A    between atoms: C_5  and  O_6
REMARK    3  A    between atoms: O_6  and  C_7
REMARK    4  A    between atoms: C_16  and  C_17
REMARK                            x       y       z     vdW  Elec       q    Type
REMARK                         _______ _______ _______ _____ _____    ______ ____
ROOT
ATOM      1  C   UNL     1       1.986   4.632  20.553  0.00  0.00    +0.000 A 
ATOM      2  C   UNL     1       2.685   4.526  19.356  0.00  0.00    +0.000 A 
ATOM      3  C   UNL     1       2.832   5.670  18.599  0.00  0.00    +0.000 A 
ATOM      4  N   UNL     1       2.335   6.874  18.955  0.00  0.00    +0.000 NA
ATOM      5  C   UNL     1       1.681   6.979  20.138  0.00  0.00    +0.000 A 
ATOM      6  C   UNL     1       1.470   5.866  20.948  0.00  0.00    +0.000 A 
ENDROOT
BRANCH   5   7
ATOM      7  C   UNL     1       1.260   8.344  20.522  0.00  0.00    +0.000 A 
ATOM      8  C   UNL     1       0.954   8.664  21.859  0.00  0.00    +0.000 A 
ATOM      9  C   UNL     1       0.536   9.948  22.223  0.00  0.00    +0.000 A 
ATOM     10  C   UNL     1       0.406  10.943  21.259  0.00  0.00    +0.000 A 
ATOM     11  C   UNL     1       0.694  10.653  19.928  0.00  0.00    +0.000 A 
ATOM     12  C   UNL     1       1.112   9.368  19.566  0.00  0.00    +0.000 A 
ENDBRANCH   5   7
BRANCH   1  14
ATOM     13  N   UNL     1       1.666   2.570  22.090  0.00  0.00    +0.000 NA
ATOM     14  C   UNL     1       1.812   3.486  21.394  0.00  0.00    +0.000 C 
ENDBRANCH   1  14
BRANCH   3  15
ATOM     15  O   UNL     1       3.539   5.539  17.421  0.00  0.00    +0.000 OA
BRANCH  15  16
ATOM     16  C   UNL     1       4.963   5.440  17.590  0.00  0.00    +0.000 C 
ATOM     17  C   UNL     1       5.570   4.431  16.599  0.00  0.00    +0.000 C 
ATOM     18  C   UNL     1       7.088   4.587  16.470  0.00  0.00    +0.000 C 
ATOM     19  C   UNL     1       7.809   4.578  17.818  0.00  0.00    +0.000 C 
ATOM     20  C   UNL     1       7.849   6.048  18.241  0.00  0.00    +0.000 C 
ATOM     21  C   UNL     1       7.091   6.787  17.139  0.00  0.00    +0.000 C 
ATOM     22  C   UNL     1       5.572   6.836  17.365  0.00  0.00    +0.000 C 
ATOM     23  N   UNL     1       7.351   5.943  15.961  0.00  0.00    +0.000 NA
ATOM     24  H   UNL     1       8.340   6.013  15.716  0.00  0.00    +0.000 HD
ENDBRANCH  15  16
ENDBRANCH   3  15
TORSDOF 4
ENDMDL
MODEL 9
REMARK VINA RESULT:      -8.2      3.331      7.857
REMARK  Name = 
REMARK  4 active torsions:
REMARK  status: ('A' for Active; 'I' for Inactive)
REMARK    1  A    between atoms: C_2  and  C_3
REMARK    2  A    between atoms: C_5  and  O_6
REMARK    3  A    between atoms: O_6  and  C_7
REMARK    4  A    between atoms: C_16  and  C_17
REMARK                            x       y       z     vdW  Elec       q    Type
REMARK                         _______ _______ _______ _____ _____    ______ ____
ROOT
ATOM      1  C   UNL     1       1.984   4.728  20.549  0.00  0.00    +0.000 A 
ATOM      2  C   UNL     1       2.699   4.670  19.358  0.00  0.00    +0.000 A 
ATOM      3  C   UNL     1       2.822   5.836  18.630  0.00  0.00    +0.000 A 
ATOM      4  N   UNL     1       2.289   7.017  19.008  0.00  0.00    +0.000 NA
ATOM      5  C   UNL     1       1.619   7.075  20.186  0.00  0.00    +0.000 A 
ATOM      6  C   UNL     1       1.430   5.938  20.966  0.00  0.00    +0.000 A 
ENDROOT
BRANCH   5   7
ATOM      7  C   UNL     1       1.156   8.419  20.597  0.00  0.00    +0.000 A 
ATOM      8  C   UNL     1       1.017   9.460  19.660  0.00  0.00    +0.000 A 
ATOM      9  C   UNL     1       0.599  10.738  20.047  0.00  0.00    +0.000 A 
ATOM     10  C   UNL     1       0.316  11.008  21.383  0.00  0.00    +0.000 A 
ATOM     11  C   UNL     1       0.453   9.999  22.333  0.00  0.00    +0.000 A 
ATOM     12  C   UNL     1       0.870   8.723  21.943  0.00  0.00    +0.000 A 
ENDBRANCH   5   7
BRANCH   1  14
ATOM     13  N   UNL     1       1.690   2.612  22.016  0.00  0.00    +0.000 NA
ATOM     14  C   UNL     1       1.832   3.558  21.361  0.00  0.00    +0.000 C 
ENDBRANCH   1  14
BRANCH   3  15
ATOM     15  O   UNL     1       3.546   5.752  17.457  0.00  0.00    +0.000 OA
BRANCH  15  16
ATOM     16  C   UNL     1       4.962   5.591  17.643  0.00  0.00    +0.000 C 
ATOM     17  C   UNL     1       5.531   4.532  16.682  0.00  0.00    +0.000 C 
ATOM     18  C   UNL     1       7.055   4.614  16.564  0.00  0.00    +0.000 C 
ATOM     19  C   UNL     1       7.763   4.605  17.919  0.00  0.00    +0.000 C 
ATOM     20  C   UNL     1       7.868   6.082  18.307  0.00  0.00    +0.000 C 
ATOM     21  C   UNL     1       7.155   6.828  17.180  0.00  0.00    +0.000 C 
ATOM     22  C   UNL     1       5.638   6.952  17.390  0.00  0.00    +0.000 C 
ATOM     23  N   UNL     1       7.385   5.944  16.026  0.00  0.00    +0.000 NA
ATOM     24  H   UNL     1       8.378   5.963  15.788  0.00  0.00    +0.000 HD
ENDBRANCH  15  16
ENDBRANCH   3  15
TORSDOF 4
ENDMDL
