MODEL 1
REMARK VINA RESULT:      -6.3      0.000      0.000
REMARK  Name = 
REMARK  5 active torsions:
REMARK  status: ('A' for Active; 'I' for Inactive)
REMARK    1  A    between atoms: N_1  and  C_2
REMARK    2  A    between atoms: C_2  and  C_3
REMARK    3  A    between atoms: C_3  and  O_5
REMARK    4  A    between atoms: C_10  and  C_11
REMARK    5  A    between atoms: C_11  and  O_13
REMARK                            x       y       z     vdW  Elec       q    Type
REMARK                         _______ _______ _______ _____ _____    ______ ____
ROOT
ATOM      1  C   UNL     1       4.137   3.130  18.764  0.00  0.00    +0.000 C 
ATOM      2  C   UNL     1       3.140   4.154  19.374  0.00  0.00    +0.000 C 
ATOM      3  F   UNL     1       2.841   3.831  20.659  0.00  0.00    +0.000 F 
ATOM      4  C   UNL     1       3.883   5.492  19.345  0.00  0.00    +0.000 C 
ATOM      5  C   UNL     1       4.743   5.412  18.120  0.00  0.00    +0.000 C 
ATOM      6  C   UNL     1       6.140   4.839  18.145  0.00  0.00    +0.000 C 
ATOM      7  C   UNL     1       4.949   3.958  17.783  0.00  0.00    +0.000 C 
ENDROOT
BRANCH   1   8
ATOM      8  N   UNL     1       5.038   2.487  19.761  0.00  0.00    +0.000 NA
ATOM      9  H   UNL     1       6.007   2.724  19.542  0.00  0.00    +0.000 HD
ATOM     10  H   UNL     1       4.949   1.471  19.677  0.00  0.00    +0.000 HD
ENDBRANCH   1   8
BRANCH   1  11
ATOM     11  C   UNL     1       3.292   2.022  18.110  0.00  0.00    +0.000 C 
ATOM     12  O   UNL     1       2.236   2.186  17.518  0.00  0.00    +0.000 OA
BRANCH  11  13
ATOM     13  O   UNL     1       3.852   0.796  18.301  0.00  0.00    +0.000 OA
ATOM     14  H   UNL     1       4.555   0.694  17.612  0.00  0.00    +0.000 HD
ENDBRANCH  11  13
ENDBRANCH   1  11
BRANCH   6  15
ATOM     15  C   UNL     1       7.100   5.238  17.077  0.00  0.00    +0.000 C 
ATOM     16  O   UNL     1       7.964   4.486  16.657  0.00  0.00    +0.000 OA
BRANCH  15  17
ATOM     17  O   UNL     1       6.907   6.487  16.603  0.00  0.00    +0.000 OA
ATOM     18  H   UNL     1       7.175   6.614  15.676  0.00  0.00    +0.000 HD
ENDBRANCH  15  17
ENDBRANCH   6  15
TORSDOF 5
ENDMDL
MODEL 2
REMARK VINA RESULT:      -6.2      1.048      1.314
REMARK  Name = 
REMARK  5 active torsions:
REMARK  status: ('A' for Active; 'I' for Inactive)
REMARK    1  A    between atoms: N_1  and  C_2
REMARK    2  A    between atoms: C_2  and  C_3
REMARK    3  A    between atoms: C_3  and  O_5
REMARK    4  A    between atoms: C_10  and  C_11
REMARK    5  A    between atoms: C_11  and  O_13
REMARK                            x       y       z     vdW  Elec       q    Type
REMARK                         _______ _______ _______ _____ _____    ______ ____
ROOT
ATOM      1  C   UNL     1       3.771   3.612  18.259  0.00  0.00    +0.000 C 
ATOM      2  C   UNL     1       2.694   4.713  18.058  0.00  0.00    +0.000 C 
ATOM      3  F   UNL     1       1.998   4.925  19.206  0.00  0.00    +0.000 F 
ATOM      4  C   UNL     1       3.482   5.976  17.702  0.00  0.00    +0.000 C 
ATOM      5  C   UNL     1       4.670   5.469  16.941  0.00  0.00    +0.000 C 
ATOM      6  C   UNL     1       5.958   5.071  17.621  0.00  0.00    +0.000 C 
ATOM      7  C   UNL     1       4.889   4.026  17.317  0.00  0.00    +0.000 C 
ENDROOT
BRANCH   1   8
ATOM      8  N   UNL     1       4.288   3.511  19.653  0.00  0.00    +0.000 NA
ATOM      9  H   UNL     1       4.728   2.600  19.784  0.00  0.00    +0.000 HD
ATOM     10  H   UNL     1       3.497   3.560  20.300  0.00  0.00    +0.000 HD
ENDBRANCH   1   8
BRANCH   1  11
ATOM     11  C   UNL     1       3.108   2.270  17.903  0.00  0.00    +0.000 C 
ATOM     12  O   UNL     1       1.982   2.129  17.451  0.00  0.00    +0.000 OA
BRANCH  11  13
ATOM     13  O   UNL     1       3.928   1.222  18.191  0.00  0.00    +0.000 OA
ATOM     14  H   UNL     1       4.347   1.421  19.065  0.00  0.00    +0.000 HD
ENDBRANCH  11  13
ENDBRANCH   1  11
BRANCH   6  15
ATOM     15  C   UNL     1       7.220   5.071  16.826  0.00  0.00    +0.000 C 
ATOM     16  O   UNL     1       7.426   5.864  15.922  0.00  0.00    +0.000 OA
BRANCH  15  17
ATOM     17  O   UNL     1       8.115   4.139  17.216  0.00  0.00    +0.000 OA
ATOM     18  H   UNL     1       8.643   3.757  16.493  0.00  0.00    +0.000 HD
ENDBRANCH  15  17
ENDBRANCH   6  15
TORSDOF 5
ENDMDL
MODEL 3
REMARK VINA RESULT:      -6.2      0.969      1.304
REMARK  Name = 
REMARK  5 active torsions:
REMARK  status: ('A' for Active; 'I' for Inactive)
REMARK    1  A    between atoms: N_1  and  C_2
REMARK    2  A    between atoms: C_2  and  C_3
REMARK    3  A    between atoms: C_3  and  O_5
REMARK    4  A    between atoms: C_10  and  C_11
REMARK    5  A    between atoms: C_11  and  O_13
REMARK                            x       y       z     vdW  Elec       q    Type
REMARK                         _______ _______ _______ _____ _____    ______ ____
ROOT
ATOM      1  C   UNL     1       3.976   3.527  18.449  0.00  0.00    +0.000 C 
ATOM      2  C   UNL     1       2.931   4.340  19.262  0.00  0.00    +0.000 C 
ATOM      3  F   UNL     1       3.002   4.035  20.584  0.00  0.00    +0.000 F 
ATOM      4  C   UNL     1       3.325   5.805  19.057  0.00  0.00    +0.000 C 
ATOM      5  C   UNL     1       3.891   5.846  17.669  0.00  0.00    +0.000 C 
ATOM      6  C   UNL     1       5.352   5.597  17.382  0.00  0.00    +0.000 C 
ATOM      7  C   UNL     1       4.343   4.455  17.304  0.00  0.00    +0.000 C 
ENDROOT
BRANCH   1   8
ATOM      8  N   UNL     1       5.196   3.157  19.220  0.00  0.00    +0.000 NA
ATOM      9  H   UNL     1       5.183   2.155  19.412  0.00  0.00    +0.000 HD
ATOM     10  H   UNL     1       5.171   3.638  20.123  0.00  0.00    +0.000 HD
ENDBRANCH   1   8
BRANCH   1  11
ATOM     11  C   UNL     1       3.282   2.225  18.011  0.00  0.00    +0.000 C 
ATOM     12  O   UNL     1       2.201   2.147  17.448  0.00  0.00    +0.000 OA
BRANCH  11  13
ATOM     13  O   UNL     1       4.016   1.133  18.363  0.00  0.00    +0.000 OA
ATOM     14  H   UNL     1       4.806   1.117  17.767  0.00  0.00    +0.000 HD
ENDBRANCH  11  13
ENDBRANCH   1  11
BRANCH   6  15
ATOM     15  C   UNL     1       5.938   6.135  16.121  0.00  0.00    +0.000 C 
ATOM     16  O   UNL     1       5.281   6.766  15.309  0.00  0.00    +0.000 OA
BRANCH  15  17
ATOM     17  O   UNL     1       7.257   5.885  15.978  0.00  0.00    +0.000 OA
ATOM     18  H   UNL     1       7.571   5.885  15.056  0.00  0.00    +0.000 HD
ENDBRANCH  15  17
ENDBRANCH   6  15
TORSDOF 5
ENDMDL
MODEL 4
REMARK VINA RESULT:      -6.1      2.634      4.896
REMARK  Name = 
REMARK  5 active torsions:
REMARK  status: ('A' for Active; 'I' for Inactive)
REMARK    1  A    between atoms: N_1  and  C_2
REMARK    2  A    between atoms: C_2  and  C_3
REMARK    3  A    between atoms: C_3  and  O_5
REMARK    4  A    between atoms: C_10  and  C_11
REMARK    5  A    between atoms: C_11  and  O_13
REMARK                            x       y       z     vdW  Elec       q    Type
REMARK                         _______ _______ _______ _____ _____    ______ ____
ROOT
ATOM      1  C   UNL     1       6.585   5.330  18.267  0.00  0.00    +0.000 C 
ATOM      2  C   UNL     1       5.674   6.375  17.565  0.00  0.00    +0.000 C 
ATOM      3  F   UNL     1       6.121   6.642  16.310  0.00  0.00    +0.000 F 
ATOM      4  C   UNL     1       4.299   5.707  17.484  0.00  0.00    +0.000 C 
ATOM      5  C   UNL     1       4.226   4.857  18.717  0.00  0.00    +0.000 C 
ATOM      6  C   UNL     1       4.720   3.431  18.749  0.00  0.00    +0.000 C 
ATOM      7  C   UNL     1       5.633   4.576  19.179  0.00  0.00    +0.000 C 
ENDROOT
BRANCH   1   8
ATOM      8  N   UNL     1       7.259   4.384  17.335  0.00  0.00    +0.000 NA
ATOM      9  H   UNL     1       6.694   3.539  17.245  0.00  0.00    +0.000 HD
ATOM     10  H   UNL     1       8.156   4.105  17.740  0.00  0.00    +0.000 HD
ENDBRANCH   1   8
BRANCH   1  11
ATOM     11  C   UNL     1       7.678   6.120  19.008  0.00  0.00    +0.000 C 
ATOM     12  O   UNL     1       8.252   7.112  18.585  0.00  0.00    +0.000 OA
BRANCH  11  13
ATOM     13  O   UNL     1       7.969   5.551  20.211  0.00  0.00    +0.000 OA
ATOM     14  H   UNL     1       7.246   5.813  20.832  0.00  0.00    +0.000 HD
ENDBRANCH  11  13
ENDBRANCH   1  11
BRANCH   6  15
ATOM     15  C   UNL     1       4.179   2.506  19.786  0.00  0.00    +0.000 C 
ATOM     16  O   UNL     1       3.044   2.605  20.225  0.00  0.00    +0.000 OA
BRANCH  15  17
ATOM     17  O   UNL     1       5.043   1.543  20.168  0.00  0.00    +0.000 OA
ATOM     18  H   UNL     1       5.281   1.564  21.112  0.00  0.00    +0.000 HD
ENDBRANCH  15  17
ENDBRANCH   6  15
TORSDOF 5
ENDMDL
MODEL 5
REMARK VINA RESULT:      -6.1      2.836      4.877
REMARK  Name = 
REMARK  5 active torsions:
REMARK  status: ('A' for Active; 'I' for Inactive)
REMARK    1  A    between atoms: N_1  and  C_2
REMARK    2  A    between atoms: C_2  and  C_3
REMARK    3  A    between atoms: C_3  and  O_5
REMARK    4  A    between atoms: C_10  and  C_11
REMARK    5  A    between atoms: C_11  and  O_13
REMARK                            x       y       z     vdW  Elec       q    Type
REMARK                         _______ _______ _______ _____ _____    ______ ____
ROOT
ATOM      1  C   UNL     1       5.985   5.222  15.911  0.00  0.00    +0.000 C 
ATOM      2  C   UNL     1       6.987   5.390  17.086  0.00  0.00    +0.000 C 
ATOM      3  F   UNL     1       7.484   6.654  17.123  0.00  0.00    +0.000 F 
ATOM      4  C   UNL     1       6.160   5.133  18.349  0.00  0.00    +0.000 C 
ATOM      5  C   UNL     1       5.143   4.115  17.925  0.00  0.00    +0.000 C 
ATOM      6  C   UNL     1       3.806   4.500  17.340  0.00  0.00    +0.000 C 
ATOM      7  C   UNL     1       4.990   4.198  16.428  0.00  0.00    +0.000 C 
ENDROOT
BRANCH   1   8
ATOM      8  N   UNL     1       5.277   6.477  15.529  0.00  0.00    +0.000 NA
ATOM      9  H   UNL     1       4.281   6.283  15.425  0.00  0.00    +0.000 HD
ATOM     10  H   UNL     1       5.622   6.784  14.616  0.00  0.00    +0.000 HD
ENDBRANCH   1   8
BRANCH   1  11
ATOM     11  C   UNL     1       6.803   4.754  14.694  0.00  0.00    +0.000 C 
ATOM     12  O   UNL     1       7.708   5.376  14.161  0.00  0.00    +0.000 OA
BRANCH  11  13
ATOM     13  O   UNL     1       6.366   3.545  14.242  0.00  0.00    +0.000 OA
ATOM     14  H   UNL     1       6.955   2.861  14.647  0.00  0.00    +0.000 HD
ENDBRANCH  11  13
ENDBRANCH   1  11
BRANCH   6  15
ATOM     15  C   UNL     1       2.681   3.524  17.416  0.00  0.00    +0.000 C 
ATOM     16  O   UNL     1       2.856   2.336  17.636  0.00  0.00    +0.000 OA
BRANCH  15  17
ATOM     17  O   UNL     1       1.461   4.078  17.250  0.00  0.00    +0.000 OA
ATOM     18  H   UNL     1       1.219   4.253  16.323  0.00  0.00    +0.000 HD
ENDBRANCH  15  17
ENDBRANCH   6  15
TORSDOF 5
ENDMDL
MODEL 6
REMARK VINA RESULT:      -6.1      2.343      4.549
REMARK  Name = 
REMARK  5 active torsions:
REMARK  status: ('A' for Active; 'I' for Inactive)
REMARK    1  A    between atoms: N_1  and  C_2
REMARK    2  A    between atoms: C_2  and  C_3
REMARK    3  A    between atoms: C_3  and  O_5
REMARK    4  A    between atoms: C_10  and  C_11
REMARK    5  A    between atoms: C_11  and  O_13
REMARK                            x       y       z     vdW  Elec       q    Type
REMARK                         _______ _______ _______ _____ _____    ______ ____
ROOT
ATOM      1  C   UNL     1       5.714   4.962  17.133  0.00  0.00    +0.000 C 
ATOM      2  C   UNL     1       4.984   6.330  17.237  0.00  0.00    +0.000 C 
ATOM      3  F   UNL     1       4.550   6.741  16.017  0.00  0.00    +0.000 F 
ATOM      4  C   UNL     1       3.778   6.065  18.142  0.00  0.00    +0.000 C 
ATOM      5  C   UNL     1       4.257   5.014  19.099  0.00  0.00    +0.000 C 
ATOM      6  C   UNL     1       4.138   3.538  18.807  0.00  0.00    +0.000 C 
ATOM      7  C   UNL     1       5.418   4.293  18.463  0.00  0.00    +0.000 C 
ENDROOT
BRANCH   1   8
ATOM      8  N   UNL     1       5.242   4.102  16.011  0.00  0.00    +0.000 NA
ATOM      9  H   UNL     1       4.271   4.330  15.797  0.00  0.00    +0.000 HD
ATOM     10  H   UNL     1       5.263   3.125  16.315  0.00  0.00    +0.000 HD
ENDBRANCH   1   8
BRANCH   1  11
ATOM     11  C   UNL     1       7.203   5.270  16.896  0.00  0.00    +0.000 C 
ATOM     12  O   UNL     1       7.654   6.319  16.461  0.00  0.00    +0.000 OA
BRANCH  11  13
ATOM     13  O   UNL     1       7.984   4.197  17.201  0.00  0.00    +0.000 OA
ATOM     14  H   UNL     1       8.136   4.224  18.178  0.00  0.00    +0.000 HD
ENDBRANCH  11  13
ENDBRANCH   1  11
BRANCH   6  15
ATOM     15  C   UNL     1       4.146   2.577  19.947  0.00  0.00    +0.000 C 
ATOM     16  O   UNL     1       3.335   2.633  20.858  0.00  0.00    +0.000 OA
BRANCH  15  17
ATOM     17  O   UNL     1       5.106   1.632  19.864  0.00  0.00    +0.000 OA
ATOM     18  H   UNL     1       4.781   0.746  19.627  0.00  0.00    +0.000 HD
ENDBRANCH  15  17
ENDBRANCH   6  15
TORSDOF 5
ENDMDL
MODEL 7
REMARK VINA RESULT:      -6.1      1.456      1.949
REMARK  Name = 
REMARK  5 active torsions:
REMARK  status: ('A' for Active; 'I' for Inactive)
REMARK    1  A    between atoms: N_1  and  C_2
REMARK    2  A    between atoms: C_2  and  C_3
REMARK    3  A    between atoms: C_3  and  O_5
REMARK    4  A    between atoms: C_10  and  C_11
REMARK    5  A    between atoms: C_11  and  O_13
REMARK                            x       y       z     vdW  Elec       q    Type
REMARK                         _______ _______ _______ _____ _____    ______ ____
ROOT
ATOM      1  C   UNL     1       3.512   4.342  18.120  0.00  0.00    +0.000 C 
ATOM      2  C   UNL     1       2.718   5.675  18.045  0.00  0.00    +0.000 C 
ATOM      3  F   UNL     1       2.121   5.951  19.235  0.00  0.00    +0.000 F 
ATOM      4  C   UNL     1       3.771   6.745  17.744  0.00  0.00    +0.000 C 
ATOM      5  C   UNL     1       4.786   6.037  16.898  0.00  0.00    +0.000 C 
ATOM      6  C   UNL     1       5.962   5.299  17.490  0.00  0.00    +0.000 C 
ATOM      7  C   UNL     1       4.670   4.558  17.161  0.00  0.00    +0.000 C 
ENDROOT
BRANCH   1   8
ATOM      8  N   UNL     1       4.026   4.013  19.479  0.00  0.00    +0.000 NA
ATOM      9  H   UNL     1       3.872   4.809  20.099  0.00  0.00    +0.000 HD
ATOM     10  H   UNL     1       5.037   3.867  19.421  0.00  0.00    +0.000 HD
ENDBRANCH   1   8
BRANCH   1  11
ATOM     11  C   UNL     1       2.542   3.223  17.700  0.00  0.00    +0.000 C 
ATOM     12  O   UNL     1       2.776   2.025  17.740  0.00  0.00    +0.000 OA
BRANCH  11  13
ATOM     13  O   UNL     1       1.371   3.735  17.230  0.00  0.00    +0.000 OA
ATOM     14  H   UNL     1       1.413   3.681  16.243  0.00  0.00    +0.000 HD
ENDBRANCH  11  13
ENDBRANCH   1  11
BRANCH   6  15
ATOM     15  C   UNL     1       7.167   5.069  16.643  0.00  0.00    +0.000 C 
ATOM     16  O   UNL     1       7.379   5.699  15.619  0.00  0.00    +0.000 OA
BRANCH  15  17
ATOM     17  O   UNL     1       8.006   4.128  17.124  0.00  0.00    +0.000 OA
ATOM     18  H   UNL     1       8.787   4.481  17.587  0.00  0.00    +0.000 HD
ENDBRANCH  15  17
ENDBRANCH   6  15
TORSDOF 5
ENDMDL
MODEL 8
REMARK VINA RESULT:      -6.1      1.756      2.069
REMARK  Name = 
REMARK  5 active torsions:
REMARK  status: ('A' for Active; 'I' for Inactive)
REMARK    1  A    between atoms: N_1  and  C_2
REMARK    2  A    between atoms: C_2  and  C_3
REMARK    3  A    between atoms: C_3  and  O_5
REMARK    4  A    between atoms: C_10  and  C_11
REMARK    5  A    between atoms: C_11  and  O_13
REMARK                            x       y       z     vdW  Elec       q    Type
REMARK                         _______ _______ _______ _____ _____    ______ ____
ROOT
ATOM      1  C   UNL     1       3.600   3.044  17.925  0.00  0.00    +0.000 C 
ATOM      2  C   UNL     1       3.947   3.809  19.231  0.00  0.00    +0.000 C 
ATOM      3  F   UNL     1       4.119   2.947  20.267  0.00  0.00    +0.000 F 
ATOM      4  C   UNL     1       5.272   4.516  18.934  0.00  0.00    +0.000 C 
ATOM      5  C   UNL     1       5.198   4.841  17.472  0.00  0.00    +0.000 C 
ATOM      6  C   UNL     1       5.673   3.885  16.404  0.00  0.00    +0.000 C 
ATOM      7  C   UNL     1       4.208   3.904  16.831  0.00  0.00    +0.000 C 
ENDROOT
BRANCH   1   8
ATOM      8  N   UNL     1       4.157   1.663  17.860  0.00  0.00    +0.000 NA
ATOM      9  H   UNL     1       4.680   1.551  16.991  0.00  0.00    +0.000 HD
ATOM     10  H   UNL     1       3.381   0.997  17.835  0.00  0.00    +0.000 HD
ENDBRANCH   1   8
BRANCH   1  11
ATOM     11  C   UNL     1       2.066   2.936  17.867  0.00  0.00    +0.000 C 
ATOM     12  O   UNL     1       1.306   3.797  17.451  0.00  0.00    +0.000 OA
BRANCH  11  13
ATOM     13  O   UNL     1       1.635   1.751  18.380  0.00  0.00    +0.000 OA
ATOM     14  H   UNL     1       0.853   1.475  17.840  0.00  0.00    +0.000 HD
ENDBRANCH  11  13
ENDBRANCH   1  11
BRANCH   6  15
ATOM     15  C   UNL     1       6.047   4.429  15.067  0.00  0.00    +0.000 C 
ATOM     16  O   UNL     1       6.146   5.626  14.850  0.00  0.00    +0.000 OA
BRANCH  15  17
ATOM     17  O   UNL     1       6.290   3.482  14.137  0.00  0.00    +0.000 OA
ATOM     18  H   UNL     1       6.823   2.731  14.454  0.00  0.00    +0.000 HD
ENDBRANCH  15  17
ENDBRANCH   6  15
TORSDOF 5
ENDMDL
MODEL 9
REMARK VINA RESULT:      -6.0      1.520      1.728
REMARK  Name = 
REMARK  5 active torsions:
REMARK  status: ('A' for Active; 'I' for Inactive)
REMARK    1  A    between atoms: N_1  and  C_2
REMARK    2  A    between atoms: C_2  and  C_3
REMARK    3  A    between atoms: C_3  and  O_5
REMARK    4  A    between atoms: C_10  and  C_11
REMARK    5  A    between atoms: C_11  and  O_13
REMARK                            x       y       z     vdW  Elec       q    Type
REMARK                         _______ _______ _______ _____ _____    ______ ____
ROOT
ATOM      1  C   UNL     1       4.074   3.640  17.942  0.00  0.00    +0.000 C 
ATOM      2  C   UNL     1       3.462   4.984  18.425  0.00  0.00    +0.000 C 
ATOM      3  F   UNL     1       3.481   5.064  19.782  0.00  0.00    +0.000 F 
ATOM      4  C   UNL     1       4.374   6.065  17.840  0.00  0.00    +0.000 C 
ATOM      5  C   UNL     1       4.839   5.491  16.535  0.00  0.00    +0.000 C 
ATOM      6  C   UNL     1       6.077   4.635  16.421  0.00  0.00    +0.000 C 
ATOM      7  C   UNL     1       4.707   3.992  16.607  0.00  0.00    +0.000 C 
ENDROOT
BRANCH   1   8
ATOM      8  N   UNL     1       5.100   3.071  18.861  0.00  0.00    +0.000 NA
ATOM      9  H   UNL     1       6.027   3.208  18.458  0.00  0.00    +0.000 HD
ATOM     10  H   UNL     1       4.949   2.061  18.936  0.00  0.00    +0.000 HD
ENDBRANCH   1   8
BRANCH   1  11
ATOM     11  C   UNL     1       2.915   2.632  17.847  0.00  0.00    +0.000 C 
ATOM     12  O   UNL     1       1.754   2.903  17.580  0.00  0.00    +0.000 OA
BRANCH  11  13
ATOM     13  O   UNL     1       3.333   1.370  18.139  0.00  0.00    +0.000 OA
ATOM     14  H   UNL     1       3.217   1.250  19.114  0.00  0.00    +0.000 HD
ENDBRANCH  11  13
ENDBRANCH   1  11
BRANCH   6  15
ATOM     15  C   UNL     1       6.758   4.528  15.099  0.00  0.00    +0.000 C 
ATOM     16  O   UNL     1       7.598   5.330  14.726  0.00  0.00    +0.000 OA
BRANCH  15  17
ATOM     17  O   UNL     1       6.381   3.454  14.373  0.00  0.00    +0.000 OA
ATOM     18  H   UNL     1       5.959   2.745  14.889  0.00  0.00    +0.000 HD
ENDBRANCH  15  17
ENDBRANCH   6  15
TORSDOF 5
ENDMDL
