MODEL 1
REMARK VINA RESULT:      -8.6      0.000      0.000
REMARK  Name = 
REMARK  9 active torsions:
REMARK  status: ('A' for Active; 'I' for Inactive)
REMARK    1  A    between atoms: C_1  and  O_2
REMARK    2  A    between atoms: O_2  and  C_3
REMARK    3  A    between atoms: C_9  and  C_10
REMARK    4  A    between atoms: C_10  and  C_11
REMARK    5  A    between atoms: C_11  and  C_12
REMARK    6  A    between atoms: C_18  and  C_19
REMARK    7  A    between atoms: C_19  and  N_21
REMARK    8  A    between atoms: N_24  and  C_25
REMARK    9  A    between atoms: C_25  and  C_26
REMARK                            x       y       z     vdW  Elec       q    Type
REMARK                         _______ _______ _______ _____ _____    ______ ____
ROOT
ATOM      1  C   UNL     1       2.637   3.835  18.493  0.00  0.00    +0.000 A 
ATOM      2  C   UNL     1       2.287   2.588  19.056  0.00  0.00    +0.000 A 
ATOM      3  F   UNL     1       2.714   1.442  18.510  0.00  0.00    +0.000 F 
ATOM      4  C   UNL     1       1.526   2.465  20.214  0.00  0.00    +0.000 A 
ATOM      5  C   UNL     1       1.111   3.598  20.888  0.00  0.00    +0.000 A 
ATOM      6  C   UNL     1       1.512   4.849  20.420  0.00  0.00    +0.000 A 
ATOM      7  C   UNL     1       2.296   4.989  19.249  0.00  0.00    +0.000 A 
ENDROOT
BRANCH   7   8
ATOM      8  C   UNL     1       2.731   6.395  18.909  0.00  0.00    +0.000 C 
ATOM      9  O   UNL     1       3.448   6.605  17.933  0.00  0.00    +0.000 OA
BRANCH   8  10
ATOM     10  N   UNL     1       2.240   7.391  19.736  0.00  0.00    +0.000 NA
ATOM     11  C   UNL     1       1.786   8.488  19.217  0.00  0.00    +0.000 C 
ATOM     12  N   UNL     1       1.790   8.820  17.900  0.00  0.00    +0.000 N 
ATOM     13  N   UNL     1       1.260   9.455  20.028  0.00  0.00    +0.000 N 
ATOM     14  H   UNL     1       2.006   8.011  17.313  0.00  0.00    +0.000 HD
ATOM     15  H   UNL     1       0.934   9.246  17.579  0.00  0.00    +0.000 HD
ATOM     16  H   UNL     1       1.391   9.283  21.016  0.00  0.00    +0.000 HD
BRANCH  13  17
ATOM     17  C   UNL     1       0.824  10.782  19.626  0.00  0.00    +0.000 C 
BRANCH  17  18
ATOM     18  C   UNL     1      -0.688  11.020  19.823  0.00  0.00    +0.000 C 
ATOM     19  C   UNL     1      -1.580  10.217  18.862  0.00  0.00    +0.000 C 
ATOM     20  C   UNL     1      -1.476  10.714  17.421  0.00  0.00    +0.000 C 
ATOM     21  N   UNL     1      -1.787  12.141  17.311  0.00  0.00    +0.000 NA
ATOM     22  C   UNL     1      -0.934  12.957  18.173  0.00  0.00    +0.000 C 
ATOM     23  C   UNL     1      -1.016  12.518  19.639  0.00  0.00    +0.000 C 
ATOM     24  H   UNL     1      -2.763  12.290  17.570  0.00  0.00    +0.000 HD
ENDBRANCH  17  18
ENDBRANCH  13  17
ENDBRANCH   8  10
ENDBRANCH   7   8
BRANCH   1  25
ATOM     25  C   UNL     1       3.418   3.865  17.181  0.00  0.00    +0.000 C 
BRANCH  25  26
ATOM     26  C   UNL     1       4.924   3.530  17.288  0.00  0.00    +0.000 C 
BRANCH  26  33
ATOM     27  C   UNL     1       6.683   5.092  16.266  0.00  0.00    +0.000 A 
ATOM     28  C   UNL     1       7.385   5.542  15.140  0.00  0.00    +0.000 A 
ATOM     29  C   UNL     1       7.162   4.974  13.884  0.00  0.00    +0.000 A 
ATOM     30  C   UNL     1       6.247   3.937  13.749  0.00  0.00    +0.000 A 
ATOM     31 BR   UNL     1       5.935   3.174  12.049  0.00  0.00    +0.000 Br
ATOM     32  C   UNL     1       5.553   3.466  14.860  0.00  0.00    +0.000 A 
ATOM     33  C   UNL     1       5.760   4.038  16.131  0.00  0.00    +0.000 A 
BRANCH  27  35
ATOM     34  C   UNL     1       7.420   6.916  17.596  0.00  0.00    +0.000 C 
ATOM     35  O   UNL     1       6.833   5.620  17.522  0.00  0.00    +0.000 OA
ENDBRANCH  27  35
ENDBRANCH  26  33
ENDBRANCH  25  26
ENDBRANCH   1  25
TORSDOF 8
ENDMDL
MODEL 2
REMARK VINA RESULT:      -8.4      1.728      2.254
REMARK  Name = 
REMARK  9 active torsions:
REMARK  status: ('A' for Active; 'I' for Inactive)
REMARK    1  A    between atoms: C_1  and  O_2
REMARK    2  A    between atoms: O_2  and  C_3
REMARK    3  A    between atoms: C_9  and  C_10
REMARK    4  A    between atoms: C_10  and  C_11
REMARK    5  A    between atoms: C_11  and  C_12
REMARK    6  A    between atoms: C_18  and  C_19
REMARK    7  A    between atoms: C_19  and  N_21
REMARK    8  A    between atoms: N_24  and  C_25
REMARK    9  A    between atoms: C_25  and  C_26
REMARK                            x       y       z     vdW  Elec       q    Type
REMARK                         _______ _______ _______ _____ _____    ______ ____
ROOT
ATOM      1  C   UNL     1       2.286   3.874  18.624  0.00  0.00    +0.000 A 
ATOM      2  C   UNL     1       2.063   2.614  19.222  0.00  0.00    +0.000 A 
ATOM      3  F   UNL     1       2.259   1.481  18.535  0.00  0.00    +0.000 F 
ATOM      4  C   UNL     1       1.672   2.461  20.549  0.00  0.00    +0.000 A 
ATOM      5  C   UNL     1       1.525   3.575  21.354  0.00  0.00    +0.000 A 
ATOM      6  C   UNL     1       1.824   4.833  20.832  0.00  0.00    +0.000 A 
ATOM      7  C   UNL     1       2.233   5.002  19.487  0.00  0.00    +0.000 A 
ENDROOT
BRANCH   7   8
ATOM      8  C   UNL     1       2.610   6.408  19.082  0.00  0.00    +0.000 C 
ATOM      9  O   UNL     1       3.276   6.605  18.068  0.00  0.00    +0.000 OA
BRANCH   8  10
ATOM     10  N   UNL     1       2.126   7.417  19.898  0.00  0.00    +0.000 NA
ATOM     11  C   UNL     1       1.730   8.531  19.371  0.00  0.00    +0.000 C 
ATOM     12  N   UNL     1       1.792   8.870  18.057  0.00  0.00    +0.000 N 
ATOM     13  N   UNL     1       1.210   9.512  20.169  0.00  0.00    +0.000 N 
ATOM     14  H   UNL     1       1.999   8.057  17.472  0.00  0.00    +0.000 HD
ATOM     15  H   UNL     1       0.963   9.328  17.708  0.00  0.00    +0.000 HD
ATOM     16  H   UNL     1       1.299   9.331  21.159  0.00  0.00    +0.000 HD
BRANCH  13  17
ATOM     17  C   UNL     1       0.836  10.856  19.760  0.00  0.00    +0.000 C 
BRANCH  17  18
ATOM     18  C   UNL     1      -0.666  11.161  19.943  0.00  0.00    +0.000 C 
ATOM     19  C   UNL     1      -1.588  10.336  19.030  0.00  0.00    +0.000 C 
ATOM     20  C   UNL     1      -1.470  10.745  17.562  0.00  0.00    +0.000 C 
ATOM     21  N   UNL     1      -1.729  12.174  17.370  0.00  0.00    +0.000 NA
ATOM     22  C   UNL     1      -0.845  13.006  18.184  0.00  0.00    +0.000 C 
ATOM     23  C   UNL     1      -0.940  12.657  19.672  0.00  0.00    +0.000 C 
ATOM     24  H   UNL     1      -2.698  12.373  17.620  0.00  0.00    +0.000 HD
ENDBRANCH  17  18
ENDBRANCH  13  17
ENDBRANCH   8  10
ENDBRANCH   7   8
BRANCH   1  25
ATOM     25  C   UNL     1       2.645   3.940  17.142  0.00  0.00    +0.000 C 
BRANCH  25  26
ATOM     26  C   UNL     1       3.943   3.206  16.731  0.00  0.00    +0.000 C 
BRANCH  26  33
ATOM     27  C   UNL     1       5.768   4.485  15.462  0.00  0.00    +0.000 A 
ATOM     28  C   UNL     1       6.932   5.265  15.489  0.00  0.00    +0.000 A 
ATOM     29  C   UNL     1       7.517   5.636  16.701  0.00  0.00    +0.000 A 
ATOM     30  C   UNL     1       6.931   5.244  17.898  0.00  0.00    +0.000 A 
ATOM     31 BR   UNL     1       7.726   5.734  19.540  0.00  0.00    +0.000 Br
ATOM     32  C   UNL     1       5.765   4.482  17.891  0.00  0.00    +0.000 A 
ATOM     33  C   UNL     1       5.171   4.092  16.674  0.00  0.00    +0.000 A 
BRANCH  27  35
ATOM     34  C   UNL     1       6.016   3.680  13.242  0.00  0.00    +0.000 C 
ATOM     35  O   UNL     1       5.155   4.064  14.311  0.00  0.00    +0.000 OA
ENDBRANCH  27  35
ENDBRANCH  26  33
ENDBRANCH  25  26
ENDBRANCH   1  25
TORSDOF 8
ENDMDL
MODEL 3
REMARK VINA RESULT:      -8.4      0.792      1.016
REMARK  Name = 
REMARK  9 active torsions:
REMARK  status: ('A' for Active; 'I' for Inactive)
REMARK    1  A    between atoms: C_1  and  O_2
REMARK    2  A    between atoms: O_2  and  C_3
REMARK    3  A    between atoms: C_9  and  C_10
REMARK    4  A    between atoms: C_10  and  C_11
REMARK    5  A    between atoms: C_11  and  C_12
REMARK    6  A    between atoms: C_18  and  C_19
REMARK    7  A    between atoms: C_19  and  N_21
REMARK    8  A    between atoms: N_24  and  C_25
REMARK    9  A    between atoms: C_25  and  C_26
REMARK                            x       y       z     vdW  Elec       q    Type
REMARK                         _______ _______ _______ _____ _____    ______ ____
ROOT
ATOM      1  C   UNL     1       2.447   3.958  18.297  0.00  0.00    +0.000 A 
ATOM      2  C   UNL     1       1.860   2.677  18.376  0.00  0.00    +0.000 A 
ATOM      3  F   UNL     1       2.165   1.723  17.486  0.00  0.00    +0.000 F 
ATOM      4  C   UNL     1       0.974   2.307  19.384  0.00  0.00    +0.000 A 
ATOM      5  C   UNL     1       0.666   3.204  20.390  0.00  0.00    +0.000 A 
ATOM      6  C   UNL     1       1.294   4.448  20.404  0.00  0.00    +0.000 A 
ATOM      7  C   UNL     1       2.205   4.833  19.391  0.00  0.00    +0.000 A 
ENDROOT
BRANCH   7   8
ATOM      8  C   UNL     1       2.877   6.173  19.580  0.00  0.00    +0.000 C 
ATOM      9  O   UNL     1       4.039   6.343  19.216  0.00  0.00    +0.000 OA
BRANCH   8  10
ATOM     10  N   UNL     1       2.089   7.165  20.141  0.00  0.00    +0.000 NA
ATOM     11  C   UNL     1       1.813   8.227  19.453  0.00  0.00    +0.000 C 
ATOM     12  N   UNL     1       2.276   8.529  18.212  0.00  0.00    +0.000 N 
ATOM     13  N   UNL     1       1.000   9.188  19.987  0.00  0.00    +0.000 N 
ATOM     14  H   UNL     1       2.714   7.717  17.771  0.00  0.00    +0.000 HD
ATOM     15  H   UNL     1       1.577   8.908  17.591  0.00  0.00    +0.000 HD
ATOM     16  H   UNL     1       0.775   9.045  20.962  0.00  0.00    +0.000 HD
BRANCH  13  17
ATOM     17  C   UNL     1       0.691  10.484  19.406  0.00  0.00    +0.000 C 
BRANCH  17  18
ATOM     18  C   UNL     1      -0.818  10.804  19.380  0.00  0.00    +0.000 C 
ATOM     19  C   UNL     1      -1.271  11.588  18.137  0.00  0.00    +0.000 C 
ATOM     20  C   UNL     1      -0.753  13.026  18.136  0.00  0.00    +0.000 C 
ATOM     21  N   UNL     1      -1.143  13.749  19.349  0.00  0.00    +0.000 NA
ATOM     22  C   UNL     1      -0.696  13.067  20.562  0.00  0.00    +0.000 C 
ATOM     23  C   UNL     1      -1.208  11.624  20.629  0.00  0.00    +0.000 C 
ATOM     24  H   UNL     1      -2.160  13.836  19.371  0.00  0.00    +0.000 HD
ENDBRANCH  17  18
ENDBRANCH  13  17
ENDBRANCH   8  10
ENDBRANCH   7   8
BRANCH   1  25
ATOM     25  C   UNL     1       3.354   4.289  17.114  0.00  0.00    +0.000 C 
BRANCH  25  26
ATOM     26  C   UNL     1       4.789   3.719  17.187  0.00  0.00    +0.000 C 
BRANCH  26  33
ATOM     27  C   UNL     1       6.686   5.100  16.153  0.00  0.00    +0.000 A 
ATOM     28  C   UNL     1       7.439   5.458  15.027  0.00  0.00    +0.000 A 
ATOM     29  C   UNL     1       7.188   4.875  13.783  0.00  0.00    +0.000 A 
ATOM     30  C   UNL     1       6.191   3.915  13.661  0.00  0.00    +0.000 A 
ATOM     31 BR   UNL     1       5.841   3.132  11.978  0.00  0.00    +0.000 Br
ATOM     32  C   UNL     1       5.445   3.534  14.773  0.00  0.00    +0.000 A 
ATOM     33  C   UNL     1       5.681   4.123  16.031  0.00  0.00    +0.000 A 
BRANCH  27  35
ATOM     34  C   UNL     1       7.437   6.951  17.436  0.00  0.00    +0.000 C 
ATOM     35  O   UNL     1       6.862   5.649  17.397  0.00  0.00    +0.000 OA
ENDBRANCH  27  35
ENDBRANCH  26  33
ENDBRANCH  25  26
ENDBRANCH   1  25
TORSDOF 8
ENDMDL
MODEL 4
REMARK VINA RESULT:      -8.3      0.900      1.071
REMARK  Name = 
REMARK  9 active torsions:
REMARK  status: ('A' for Active; 'I' for Inactive)
REMARK    1  A    between atoms: C_1  and  O_2
REMARK    2  A    between atoms: O_2  and  C_3
REMARK    3  A    between atoms: C_9  and  C_10
REMARK    4  A    between atoms: C_10  and  C_11
REMARK    5  A    between atoms: C_11  and  C_12
REMARK    6  A    between atoms: C_18  and  C_19
REMARK    7  A    between atoms: C_19  and  N_21
REMARK    8  A    between atoms: N_24  and  C_25
REMARK    9  A    between atoms: C_25  and  C_26
REMARK                            x       y       z     vdW  Elec       q    Type
REMARK                         _______ _______ _______ _____ _____    ______ ____
ROOT
ATOM      1  C   UNL     1       2.626   3.917  18.502  0.00  0.00    +0.000 A 
ATOM      2  C   UNL     1       2.210   2.665  19.005  0.00  0.00    +0.000 A 
ATOM      3  F   UNL     1       2.571   1.525  18.400  0.00  0.00    +0.000 F 
ATOM      4  C   UNL     1       1.447   2.525  20.160  0.00  0.00    +0.000 A 
ATOM      5  C   UNL     1       1.098   3.645  20.891  0.00  0.00    +0.000 A 
ATOM      6  C   UNL     1       1.565   4.893  20.484  0.00  0.00    +0.000 A 
ATOM      7  C   UNL     1       2.351   5.048  19.316  0.00  0.00    +0.000 A 
ENDROOT
BRANCH   7   8
ATOM      8  C   UNL     1       2.862   6.444  19.044  0.00  0.00    +0.000 C 
ATOM      9  O   UNL     1       3.793   6.623  18.262  0.00  0.00    +0.000 OA
BRANCH   8  10
ATOM     10  N   UNL     1       2.192   7.466  19.696  0.00  0.00    +0.000 NA
ATOM     11  C   UNL     1       1.784   8.494  19.023  0.00  0.00    +0.000 C 
ATOM     12  N   UNL     1       1.997   8.732  17.702  0.00  0.00    +0.000 N 
ATOM     13  N   UNL     1       1.083   9.483  19.654  0.00  0.00    +0.000 N 
ATOM     14  H   UNL     1       2.347   7.898  17.226  0.00  0.00    +0.000 HD
ATOM     15  H   UNL     1       1.190   9.083  17.210  0.00  0.00    +0.000 HD
ATOM     16  H   UNL     1       1.050   9.390  20.660  0.00  0.00    +0.000 HD
BRANCH  13  17
ATOM     17  C   UNL     1       0.662  10.751  19.081  0.00  0.00    +0.000 C 
BRANCH  17  18
ATOM     18  C   UNL     1       0.690  11.922  20.085  0.00  0.00    +0.000 C 
ATOM     19  C   UNL     1      -0.585  12.047  20.937  0.00  0.00    +0.000 C 
ATOM     20  C   UNL     1      -1.789  12.505  20.116  0.00  0.00    +0.000 C 
ATOM     21  N   UNL     1      -1.530  13.768  19.421  0.00  0.00    +0.000 NA
ATOM     22  C   UNL     1      -0.351  13.689  18.561  0.00  0.00    +0.000 C 
ATOM     23  C   UNL     1       0.897  13.257  19.337  0.00  0.00    +0.000 C 
ATOM     24  H   UNL     1      -1.389  14.505  20.113  0.00  0.00    +0.000 HD
ENDBRANCH  17  18
ENDBRANCH  13  17
ENDBRANCH   8  10
ENDBRANCH   7   8
BRANCH   1  25
ATOM     25  C   UNL     1       3.403   3.970  17.189  0.00  0.00    +0.000 C 
BRANCH  25  26
ATOM     26  C   UNL     1       4.898   3.582  17.276  0.00  0.00    +0.000 C 
BRANCH  26  33
ATOM     27  C   UNL     1       6.686   5.076  16.206  0.00  0.00    +0.000 A 
ATOM     28  C   UNL     1       7.386   5.487  15.063  0.00  0.00    +0.000 A 
ATOM     29  C   UNL     1       7.131   4.905  13.820  0.00  0.00    +0.000 A 
ATOM     30  C   UNL     1       6.185   3.893  13.714  0.00  0.00    +0.000 A 
ATOM     31 BR   UNL     1       5.829   3.111  12.032  0.00  0.00    +0.000 Br
ATOM     32  C   UNL     1       5.493   3.461  14.842  0.00  0.00    +0.000 A 
ATOM     33  C   UNL     1       5.733   4.047  16.100  0.00  0.00    +0.000 A 
BRANCH  27  35
ATOM     34  C   UNL     1       7.394   6.943  17.491  0.00  0.00    +0.000 C 
ATOM     35  O   UNL     1       6.868   5.621  17.451  0.00  0.00    +0.000 OA
ENDBRANCH  27  35
ENDBRANCH  26  33
ENDBRANCH  25  26
ENDBRANCH   1  25
TORSDOF 8
ENDMDL
MODEL 5
REMARK VINA RESULT:      -8.0      1.908      2.503
REMARK  Name = 
REMARK  9 active torsions:
REMARK  status: ('A' for Active; 'I' for Inactive)
REMARK    1  A    between atoms: C_1  and  O_2
REMARK    2  A    between atoms: O_2  and  C_3
REMARK    3  A    between atoms: C_9  and  C_10
REMARK    4  A    between atoms: C_10  and  C_11
REMARK    5  A    between atoms: C_11  and  C_12
REMARK    6  A    between atoms: C_18  and  C_19
REMARK    7  A    between atoms: C_19  and  N_21
REMARK    8  A    between atoms: N_24  and  C_25
REMARK    9  A    between atoms: C_25  and  C_26
REMARK                            x       y       z     vdW  Elec       q    Type
REMARK                         _______ _______ _______ _____ _____    ______ ____
ROOT
ATOM      1  C   UNL     1       2.253   3.941  18.689  0.00  0.00    +0.000 A 
ATOM      2  C   UNL     1       1.880   2.657  19.142  0.00  0.00    +0.000 A 
ATOM      3  F   UNL     1       1.952   1.593  18.331  0.00  0.00    +0.000 F 
ATOM      4  C   UNL     1       1.461   2.402  20.444  0.00  0.00    +0.000 A 
ATOM      5  C   UNL     1       1.434   3.429  21.370  0.00  0.00    +0.000 A 
ATOM      6  C   UNL     1       1.882   4.693  20.993  0.00  0.00    +0.000 A 
ATOM      7  C   UNL     1       2.322   4.964  19.674  0.00  0.00    +0.000 A 
ENDROOT
BRANCH   7   8
ATOM      8  C   UNL     1       2.862   6.353  19.429  0.00  0.00    +0.000 C 
ATOM      9  O   UNL     1       3.923   6.511  18.829  0.00  0.00    +0.000 OA
BRANCH   8  10
ATOM     10  N   UNL     1       2.071   7.394  19.888  0.00  0.00    +0.000 NA
ATOM     11  C   UNL     1       1.831   8.404  19.113  0.00  0.00    +0.000 C 
ATOM     12  N   UNL     1       2.335   8.604  17.867  0.00  0.00    +0.000 N 
ATOM     13  N   UNL     1       1.014   9.411  19.546  0.00  0.00    +0.000 N 
ATOM     14  H   UNL     1       2.776   7.756  17.503  0.00  0.00    +0.000 HD
ATOM     15  H   UNL     1       1.660   8.942  17.198  0.00  0.00    +0.000 HD
ATOM     16  H   UNL     1       0.758   9.346  20.521  0.00  0.00    +0.000 HD
BRANCH  13  17
ATOM     17  C   UNL     1       0.741  10.662  18.858  0.00  0.00    +0.000 C 
BRANCH  17  18
ATOM     18  C   UNL     1       0.916  11.907  19.753  0.00  0.00    +0.000 C 
ATOM     19  C   UNL     1      -0.155  12.050  20.846  0.00  0.00    +0.000 C 
ATOM     20  C   UNL     1      -1.529  12.397  20.272  0.00  0.00    +0.000 C 
ATOM     21  N   UNL     1      -1.489  13.612  19.455  0.00  0.00    +0.000 NA
ATOM     22  C   UNL     1      -0.514  13.511  18.370  0.00  0.00    +0.000 C 
ATOM     23  C   UNL     1       0.890  13.188  18.889  0.00  0.00    +0.000 C 
ATOM     24  H   UNL     1      -1.245  14.405  20.049  0.00  0.00    +0.000 HD
ENDBRANCH  17  18
ENDBRANCH  13  17
ENDBRANCH   8  10
ENDBRANCH   7   8
BRANCH   1  25
ATOM     25  C   UNL     1       2.634   4.132  17.223  0.00  0.00    +0.000 C 
BRANCH  25  26
ATOM     26  C   UNL     1       3.842   3.302  16.729  0.00  0.00    +0.000 C 
BRANCH  26  33
ATOM     27  C   UNL     1       5.744   4.368  15.379  0.00  0.00    +0.000 A 
ATOM     28  C   UNL     1       6.964   5.057  15.355  0.00  0.00    +0.000 A 
ATOM     29  C   UNL     1       7.591   5.445  16.541  0.00  0.00    +0.000 A 
ATOM     30  C   UNL     1       6.991   5.162  17.761  0.00  0.00    +0.000 A 
ATOM     31 BR   UNL     1       7.841   5.675  19.369  0.00  0.00    +0.000 Br
ATOM     32  C   UNL     1       5.770   4.493  17.804  0.00  0.00    +0.000 A 
ATOM     33  C   UNL     1       5.133   4.087  16.615  0.00  0.00    +0.000 A 
BRANCH  27  35
ATOM     34  C   UNL     1       5.894   3.689  13.109  0.00  0.00    +0.000 C 
ATOM     35  O   UNL     1       5.087   3.936  14.256  0.00  0.00    +0.000 OA
ENDBRANCH  27  35
ENDBRANCH  26  33
ENDBRANCH  25  26
ENDBRANCH   1  25
TORSDOF 8
ENDMDL
MODEL 6
REMARK VINA RESULT:      -8.0      5.091      9.809
REMARK  Name = 
REMARK  9 active torsions:
REMARK  status: ('A' for Active; 'I' for Inactive)
REMARK    1  A    between atoms: C_1  and  O_2
REMARK    2  A    between atoms: O_2  and  C_3
REMARK    3  A    between atoms: C_9  and  C_10
REMARK    4  A    between atoms: C_10  and  C_11
REMARK    5  A    between atoms: C_11  and  C_12
REMARK    6  A    between atoms: C_18  and  C_19
REMARK    7  A    between atoms: C_19  and  N_21
REMARK    8  A    between atoms: N_24  and  C_25
REMARK    9  A    between atoms: C_25  and  C_26
REMARK                            x       y       z     vdW  Elec       q    Type
REMARK                         _______ _______ _______ _____ _____    ______ ____
ROOT
ATOM      1  C   UNL     1      -0.027  11.699  18.697  0.00  0.00    +0.000 A 
ATOM      2  C   UNL     1      -1.297  12.264  18.448  0.00  0.00    +0.000 A 
ATOM      3  F   UNL     1      -1.523  13.568  18.656  0.00  0.00    +0.000 F 
ATOM      4  C   UNL     1      -2.368  11.533  17.943  0.00  0.00    +0.000 A 
ATOM      5  C   UNL     1      -2.199  10.199  17.624  0.00  0.00    +0.000 A 
ATOM      6  C   UNL     1      -0.938   9.623  17.765  0.00  0.00    +0.000 A 
ATOM      7  C   UNL     1       0.164  10.358  18.268  0.00  0.00    +0.000 A 
ENDROOT
BRANCH   7   8
ATOM      8  C   UNL     1       1.490   9.634  18.283  0.00  0.00    +0.000 C 
ATOM      9  O   UNL     1       2.358   9.909  17.459  0.00  0.00    +0.000 OA
BRANCH   8  10
ATOM     10  N   UNL     1       1.650   8.698  19.292  0.00  0.00    +0.000 NA
ATOM     11  C   UNL     1       2.189   7.552  19.021  0.00  0.00    +0.000 C 
ATOM     12  N   UNL     1       2.580   7.113  17.796  0.00  0.00    +0.000 N 
ATOM     13  N   UNL     1       2.389   6.643  20.022  0.00  0.00    +0.000 N 
ATOM     14  H   UNL     1       2.597   7.875  17.115  0.00  0.00    +0.000 HD
ATOM     15  H   UNL     1       3.471   6.641  17.791  0.00  0.00    +0.000 HD
ATOM     16  H   UNL     1       1.966   6.899  20.904  0.00  0.00    +0.000 HD
BRANCH  13  17
ATOM     17  C   UNL     1       2.864   5.277  19.872  0.00  0.00    +0.000 C 
BRANCH  17  18
ATOM     18  C   UNL     1       1.729   4.233  19.823  0.00  0.00    +0.000 C 
ATOM     19  C   UNL     1       2.046   2.926  20.569  0.00  0.00    +0.000 C 
ATOM     20  C   UNL     1       3.122   2.101  19.863  0.00  0.00    +0.000 C 
ATOM     21  N   UNL     1       2.760   1.804  18.475  0.00  0.00    +0.000 NA
ATOM     22  C   UNL     1       2.491   3.018  17.707  0.00  0.00    +0.000 C 
ATOM     23  C   UNL     1       1.401   3.876  18.356  0.00  0.00    +0.000 C 
ATOM     24  H   UNL     1       1.928   1.213  18.468  0.00  0.00    +0.000 HD
ENDBRANCH  17  18
ENDBRANCH  13  17
ENDBRANCH   8  10
ENDBRANCH   7   8
BRANCH   1  25
ATOM     25  C   UNL     1       1.065  12.568  19.316  0.00  0.00    +0.000 C 
BRANCH  25  26
ATOM     26  C   UNL     1       1.353  12.318  20.815  0.00  0.00    +0.000 C 
BRANCH  26  33
ATOM     27  C   UNL     1      -0.424  11.174  22.269  0.00  0.00    +0.000 A 
ATOM     28  C   UNL     1      -1.594  11.265  23.035  0.00  0.00    +0.000 A 
ATOM     29  C   UNL     1      -2.235  12.492  23.219  0.00  0.00    +0.000 A 
ATOM     30  C   UNL     1      -1.700  13.641  22.651  0.00  0.00    +0.000 A 
ATOM     31 BR   UNL     1      -2.571  15.301  22.888  0.00  0.00    +0.000 Br
ATOM     32  C   UNL     1      -0.529  13.572  21.901  0.00  0.00    +0.000 A 
ATOM     33  C   UNL     1       0.122  12.339  21.699  0.00  0.00    +0.000 A 
BRANCH  27  35
ATOM     34  C   UNL     1      -0.475   8.801  22.296  0.00  0.00    +0.000 C 
ATOM     35  O   UNL     1       0.243  10.001  22.027  0.00  0.00    +0.000 OA
ENDBRANCH  27  35
ENDBRANCH  26  33
ENDBRANCH  25  26
ENDBRANCH   1  25
TORSDOF 8
ENDMDL
MODEL 7
REMARK VINA RESULT:      -7.9      4.644      9.444
REMARK  Name = 
REMARK  9 active torsions:
REMARK  status: ('A' for Active; 'I' for Inactive)
REMARK    1  A    between atoms: C_1  and  O_2
REMARK    2  A    between atoms: O_2  and  C_3
REMARK    3  A    between atoms: C_9  and  C_10
REMARK    4  A    between atoms: C_10  and  C_11
REMARK    5  A    between atoms: C_11  and  C_12
REMARK    6  A    between atoms: C_18  and  C_19
REMARK    7  A    between atoms: C_19  and  N_21
REMARK    8  A    between atoms: N_24  and  C_25
REMARK    9  A    between atoms: C_25  and  C_26
REMARK                            x       y       z     vdW  Elec       q    Type
REMARK                         _______ _______ _______ _____ _____    ______ ____
ROOT
ATOM      1  C   UNL     1       0.231  10.224  19.837  0.00  0.00    +0.000 A 
ATOM      2  C   UNL     1      -0.356  10.474  21.097  0.00  0.00    +0.000 A 
ATOM      3  F   UNL     1      -1.401  11.302  21.218  0.00  0.00    +0.000 F 
ATOM      4  C   UNL     1       0.075   9.862  22.271  0.00  0.00    +0.000 A 
ATOM      5  C   UNL     1       1.097   8.932  22.225  0.00  0.00    +0.000 A 
ATOM      6  C   UNL     1       1.642   8.585  20.991  0.00  0.00    +0.000 A 
ATOM      7  C   UNL     1       1.207   9.192  19.788  0.00  0.00    +0.000 A 
ENDROOT
BRANCH   7   8
ATOM      8  C   UNL     1       1.822   8.656  18.516  0.00  0.00    +0.000 C 
ATOM      9  O   UNL     1       2.593   9.351  17.858  0.00  0.00    +0.000 OA
BRANCH   8  10
ATOM     10  N   UNL     1       1.486   7.353  18.190  0.00  0.00    +0.000 NA
ATOM     11  C   UNL     1       2.415   6.455  18.102  0.00  0.00    +0.000 C 
ATOM     12  N   UNL     1       3.751   6.661  18.237  0.00  0.00    +0.000 N 
ATOM     13  N   UNL     1       2.082   5.159  17.824  0.00  0.00    +0.000 N 
ATOM     14  H   UNL     1       3.948   7.584  18.630  0.00  0.00    +0.000 HD
ATOM     15  H   UNL     1       4.224   5.958  18.784  0.00  0.00    +0.000 HD
ATOM     16  H   UNL     1       1.112   5.025  17.573  0.00  0.00    +0.000 HD
BRANCH  13  17
ATOM     17  C   UNL     1       3.002   4.062  17.572  0.00  0.00    +0.000 C 
BRANCH  17  18
ATOM     18  C   UNL     1       2.423   2.677  17.932  0.00  0.00    +0.000 C 
ATOM     19  C   UNL     1       1.055   2.732  18.631  0.00  0.00    +0.000 C 
ATOM     20  C   UNL     1       1.148   3.295  20.049  0.00  0.00    +0.000 C 
ATOM     21  N   UNL     1       2.097   2.545  20.874  0.00  0.00    +0.000 NA
ATOM     22  C   UNL     1       3.430   2.500  20.275  0.00  0.00    +0.000 C 
ATOM     23  C   UNL     1       3.401   1.919  18.857  0.00  0.00    +0.000 C 
ATOM     24  H   UNL     1       1.753   1.591  20.993  0.00  0.00    +0.000 HD
ENDBRANCH  17  18
ENDBRANCH  13  17
ENDBRANCH   8  10
ENDBRANCH   7   8
BRANCH   1  25
ATOM     25  C   UNL     1      -0.267  10.997  18.618  0.00  0.00    +0.000 C 
BRANCH  25  26
ATOM     26  C   UNL     1      -1.204  10.219  17.666  0.00  0.00    +0.000 C 
BRANCH  26  33
ATOM     27  C   UNL     1      -3.288  10.890  16.331  0.00  0.00    +0.000 A 
ATOM     28  C   UNL     1      -4.558  11.482  16.298  0.00  0.00    +0.000 A 
ATOM     29  C   UNL     1      -5.138  11.999  17.459  0.00  0.00    +0.000 A 
ATOM     30  C   UNL     1      -4.457  11.911  18.666  0.00  0.00    +0.000 A 
ATOM     31 BR   UNL     1      -5.232  12.618  20.237  0.00  0.00    +0.000 Br
ATOM     32  C   UNL     1      -3.201  11.311  18.721  0.00  0.00    +0.000 A 
ATOM     33  C   UNL     1      -2.601  10.796  17.555  0.00  0.00    +0.000 A 
BRANCH  27  35
ATOM     34  C   UNL     1      -3.480  10.039  14.122  0.00  0.00    +0.000 C 
ATOM     35  O   UNL     1      -2.650  10.386  15.227  0.00  0.00    +0.000 OA
ENDBRANCH  27  35
ENDBRANCH  26  33
ENDBRANCH  25  26
ENDBRANCH   1  25
TORSDOF 8
ENDMDL
MODEL 8
REMARK VINA RESULT:      -7.9      4.514      7.624
REMARK  Name = 
REMARK  9 active torsions:
REMARK  status: ('A' for Active; 'I' for Inactive)
REMARK    1  A    between atoms: C_1  and  O_2
REMARK    2  A    between atoms: O_2  and  C_3
REMARK    3  A    between atoms: C_9  and  C_10
REMARK    4  A    between atoms: C_10  and  C_11
REMARK    5  A    between atoms: C_11  and  C_12
REMARK    6  A    between atoms: C_18  and  C_19
REMARK    7  A    between atoms: C_19  and  N_21
REMARK    8  A    between atoms: N_24  and  C_25
REMARK    9  A    between atoms: C_25  and  C_26
REMARK                            x       y       z     vdW  Elec       q    Type
REMARK                         _______ _______ _______ _____ _____    ______ ____
ROOT
ATOM      1  C   UNL     1       5.799   4.762  17.190  0.00  0.00    +0.000 A 
ATOM      2  C   UNL     1       5.169   4.064  16.138  0.00  0.00    +0.000 A 
ATOM      3  F   UNL     1       4.059   3.345  16.356  0.00  0.00    +0.000 F 
ATOM      4  C   UNL     1       5.620   4.102  14.822  0.00  0.00    +0.000 A 
ATOM      5  C   UNL     1       6.712   4.884  14.493  0.00  0.00    +0.000 A 
ATOM      6  C   UNL     1       7.309   5.664  15.482  0.00  0.00    +0.000 A 
ATOM      7  C   UNL     1       6.853   5.642  16.823  0.00  0.00    +0.000 A 
ENDROOT
BRANCH   7   8
ATOM      8  C   UNL     1       7.535   6.603  17.769  0.00  0.00    +0.000 C 
ATOM      9  O   UNL     1       8.045   6.193  18.809  0.00  0.00    +0.000 OA
BRANCH   8  10
ATOM     10  N   UNL     1       7.569   7.925  17.359  0.00  0.00    +0.000 NA
ATOM     11  C   UNL     1       8.242   8.791  18.048  0.00  0.00    +0.000 C 
ATOM     12  N   UNL     1       8.901   8.560  19.213  0.00  0.00    +0.000 N 
ATOM     13  N   UNL     1       8.314  10.088  17.622  0.00  0.00    +0.000 N 
ATOM     14  H   UNL     1       8.990   7.559  19.399  0.00  0.00    +0.000 HD
ATOM     15  H   UNL     1       9.811   8.991  19.266  0.00  0.00    +0.000 HD
ATOM     16  H   UNL     1       7.706  10.303  16.843  0.00  0.00    +0.000 HD
BRANCH  13  17
ATOM     17  C   UNL     1       8.918  11.203  18.333  0.00  0.00    +0.000 C 
BRANCH  17  18
ATOM     18  C   UNL     1       9.077  12.472  17.469  0.00  0.00    +0.000 C 
ATOM     19  C   UNL     1      10.518  13.003  17.393  0.00  0.00    +0.000 C 
ATOM     20  C   UNL     1      10.990  13.594  18.721  0.00  0.00    +0.000 C 
ATOM     21  N   UNL     1      10.095  14.651  19.198  0.00  0.00    +0.000 NA
ATOM     22  C   UNL     1       8.716  14.185  19.331  0.00  0.00    +0.000 C 
ATOM     23  C   UNL     1       8.180  13.603  18.020  0.00  0.00    +0.000 C 
ATOM     24  H   UNL     1      10.122  15.431  18.540  0.00  0.00    +0.000 HD
ENDBRANCH  17  18
ENDBRANCH  13  17
ENDBRANCH   8  10
ENDBRANCH   7   8
BRANCH   1  25
ATOM     25  C   UNL     1       5.269   4.601  18.613  0.00  0.00    +0.000 C 
BRANCH  25  26
ATOM     26  C   UNL     1       3.747   4.359  18.739  0.00  0.00    +0.000 C 
BRANCH  26  33
ATOM     27  C   UNL     1       2.278   5.466  20.527  0.00  0.00    +0.000 A 
ATOM     28  C   UNL     1       1.543   6.576  20.963  0.00  0.00    +0.000 A 
ATOM     29  C   UNL     1       1.472   7.736  20.189  0.00  0.00    +0.000 A 
ATOM     30  C   UNL     1       2.153   7.800  18.980  0.00  0.00    +0.000 A 
ATOM     31 BR   UNL     1       2.051   9.364  17.924  0.00  0.00    +0.000 Br
ATOM     32  C   UNL     1       2.902   6.713  18.539  0.00  0.00    +0.000 A 
ATOM     33  C   UNL     1       2.973   5.533  19.305  0.00  0.00    +0.000 A 
BRANCH  27  35
ATOM     34  C   UNL     1       1.279   3.383  21.079  0.00  0.00    +0.000 C 
ATOM     35  O   UNL     1       2.370   4.288  21.223  0.00  0.00    +0.000 OA
ENDBRANCH  27  35
ENDBRANCH  26  33
ENDBRANCH  25  26
ENDBRANCH   1  25
TORSDOF 8
ENDMDL
MODEL 9
REMARK VINA RESULT:      -7.8      1.127      1.409
REMARK  Name = 
REMARK  9 active torsions:
REMARK  status: ('A' for Active; 'I' for Inactive)
REMARK    1  A    between atoms: C_1  and  O_2
REMARK    2  A    between atoms: O_2  and  C_3
REMARK    3  A    between atoms: C_9  and  C_10
REMARK    4  A    between atoms: C_10  and  C_11
REMARK    5  A    between atoms: C_11  and  C_12
REMARK    6  A    between atoms: C_18  and  C_19
REMARK    7  A    between atoms: C_19  and  N_21
REMARK    8  A    between atoms: N_24  and  C_25
REMARK    9  A    between atoms: C_25  and  C_26
REMARK                            x       y       z     vdW  Elec       q    Type
REMARK                         _______ _______ _______ _____ _____    ______ ____
ROOT
ATOM      1  C   UNL     1       2.486   3.804  18.716  0.00  0.00    +0.000 A 
ATOM      2  C   UNL     1       2.151   2.591  19.356  0.00  0.00    +0.000 A 
ATOM      3  F   UNL     1       2.413   1.412  18.777  0.00  0.00    +0.000 F 
ATOM      4  C   UNL     1       1.575   2.534  20.622  0.00  0.00    +0.000 A 
ATOM      5  C   UNL     1       1.345   3.701  21.325  0.00  0.00    +0.000 A 
ATOM      6  C   UNL     1       1.745   4.916  20.771  0.00  0.00    +0.000 A 
ATOM      7  C   UNL     1       2.341   4.988  19.488  0.00  0.00    +0.000 A 
ENDROOT
BRANCH   7   8
ATOM      8  C   UNL     1       2.806   6.358  19.051  0.00  0.00    +0.000 C 
ATOM      9  O   UNL     1       3.668   6.474  18.184  0.00  0.00    +0.000 OA
BRANCH   8  10
ATOM     10  N   UNL     1       2.172   7.428  19.661  0.00  0.00    +0.000 NA
ATOM     11  C   UNL     1       1.796   8.441  18.946  0.00  0.00    +0.000 C 
ATOM     12  N   UNL     1       2.013   8.615  17.617  0.00  0.00    +0.000 N 
ATOM     13  N   UNL     1       1.131   9.479  19.538  0.00  0.00    +0.000 N 
ATOM     14  H   UNL     1       2.332   7.751  17.174  0.00  0.00    +0.000 HD
ATOM     15  H   UNL     1       1.216   8.973  17.112  0.00  0.00    +0.000 HD
ATOM     16  H   UNL     1       1.100   9.429  20.547  0.00  0.00    +0.000 HD
BRANCH  13  17
ATOM     17  C   UNL     1       0.751  10.735  18.912  0.00  0.00    +0.000 C 
BRANCH  17  18
ATOM     18  C   UNL     1      -0.428  11.441  19.613  0.00  0.00    +0.000 C 
ATOM     19  C   UNL     1      -1.121  12.510  18.752  0.00  0.00    +0.000 C 
ATOM     20  C   UNL     1      -0.240  13.740  18.535  0.00  0.00    +0.000 C 
ATOM     21  N   UNL     1       0.198  14.330  19.802  0.00  0.00    +0.000 NA
ATOM     22  C   UNL     1       0.904  13.364  20.642  0.00  0.00    +0.000 C 
ATOM     23  C   UNL     1       0.058  12.117  20.915  0.00  0.00    +0.000 C 
ATOM     24  H   UNL     1      -0.618  14.677  20.307  0.00  0.00    +0.000 HD
ENDBRANCH  17  18
ENDBRANCH  13  17
ENDBRANCH   8  10
ENDBRANCH   7   8
BRANCH   1  25
ATOM     25  C   UNL     1       3.050   3.766  17.298  0.00  0.00    +0.000 C 
BRANCH  25  26
ATOM     26  C   UNL     1       4.348   2.945  17.113  0.00  0.00    +0.000 C 
BRANCH  26  33
ATOM     27  C   UNL     1       6.383   4.504  17.101  0.00  0.00    +0.000 A 
ATOM     28  C   UNL     1       7.360   5.204  16.379  0.00  0.00    +0.000 A 
ATOM     29  C   UNL     1       7.416   5.123  14.986  0.00  0.00    +0.000 A 
ATOM     30  C   UNL     1       6.505   4.325  14.306  0.00  0.00    +0.000 A 
ATOM     31 BR   UNL     1       6.570   4.222  12.420  0.00  0.00    +0.000 Br
ATOM     32  C   UNL     1       5.538   3.609  15.007  0.00  0.00    +0.000 A 
ATOM     33  C   UNL     1       5.465   3.691  16.412  0.00  0.00    +0.000 A 
BRANCH  27  35
ATOM     34  C   UNL     1       6.988   5.583  19.128  0.00  0.00    +0.000 C 
ATOM     35  O   UNL     1       6.255   4.557  18.465  0.00  0.00    +0.000 OA
ENDBRANCH  27  35
ENDBRANCH  26  33
ENDBRANCH  25  26
ENDBRANCH   1  25
TORSDOF 8
ENDMDL
