MODEL 1
REMARK VINA RESULT:      -7.2      0.000      0.000
REMARK  Name = 
REMARK  1 active torsions:
REMARK  status: ('A' for Active; 'I' for Inactive)
REMARK    1  A    between atoms: C_1  and  C_2
REMARK                            x       y       z     vdW  Elec       q    Type
REMARK                         _______ _______ _______ _____ _____    ______ ____
ROOT
ATOM      1  C   UNL     1      -7.870  13.618  20.923  0.00  0.00    +0.000 C 
ATOM      2  C   UNL     1      -7.049  12.416  21.380  0.00  0.00    +0.000 C 
ATOM      3  C   UNL     1      -6.177  11.925  20.197  0.00  0.00    +0.000 C 
ATOM      4  C   UNL     1      -4.796  12.468  20.258  0.00  0.00    +0.000 A 
ATOM      5  C   UNL     1      -4.333  13.173  21.359  0.00  0.00    +0.000 A 
ATOM      6  N   UNL     1      -2.960  13.211  21.241  0.00  0.00    +0.000 N 
ATOM      7  C   UNL     1      -2.544  12.506  20.129  0.00  0.00    +0.000 A 
ATOM      8  C   UNL     1      -1.257  12.108  19.734  0.00  0.00    +0.000 A 
ATOM      9  C   UNL     1      -1.157  11.369  18.551  0.00  0.00    +0.000 A 
ATOM     10  F   UNL     1       0.057  10.948  18.147  0.00  0.00    +0.000 F 
ATOM     11  C   UNL     1      -2.282  11.032  17.788  0.00  0.00    +0.000 A 
ATOM     12  F   UNL     1      -2.141  10.356  16.636  0.00  0.00    +0.000 F 
ATOM     13  C   UNL     1      -3.555  11.421  18.209  0.00  0.00    +0.000 A 
ATOM     14  C   UNL     1      -3.690  12.134  19.425  0.00  0.00    +0.000 A 
ATOM     15  C   UNL     1      -5.107  13.459  22.628  0.00  0.00    +0.000 C 
ATOM     16  N   UNL     1      -6.339  12.641  22.656  0.00  0.00    +0.000 NA
ATOM     17  C   UNL     1      -4.194  12.955  23.830  0.00  0.00    +0.000 C 
ATOM     18  O   UNL     1      -3.608  11.873  23.971  0.00  0.00    +0.000 OA
ATOM     19  N   UNL     1      -4.033  14.006  24.715  0.00  0.00    +0.000 N 
ATOM     20  C   UNL     1      -4.580  15.173  24.218  0.00  0.00    +0.000 A 
ATOM     21  C   UNL     1      -4.501  16.405  24.853  0.00  0.00    +0.000 A 
ATOM     22  C   UNL     1      -5.294  17.433  24.362  0.00  0.00    +0.000 A 
ATOM     23  C   UNL     1      -6.208  17.155  23.347  0.00  0.00    +0.000 A 
ATOM     24 CL   UNL     1      -7.392  18.341  22.947  0.00  0.00    +0.000 Cl
ATOM     25  C   UNL     1      -6.222  15.910  22.693  0.00  0.00    +0.000 A 
ATOM     26  C   UNL     1      -5.326  14.917  23.070  0.00  0.00    +0.000 A 
ATOM     27  H   UNL     1      -2.318  13.535  21.960  0.00  0.00    +0.000 HD
ATOM     28  H   UNL     1      -6.964  12.959  23.392  0.00  0.00    +0.000 HD
ATOM     29  H   UNL     1      -4.103  13.791  25.702  0.00  0.00    +0.000 HD
ENDROOT
TORSDOF 0
ENDMDL
MODEL 2
REMARK VINA RESULT:      -7.2      5.060      7.354
REMARK  Name = 
REMARK  1 active torsions:
REMARK  status: ('A' for Active; 'I' for Inactive)
REMARK    1  A    between atoms: C_1  and  C_2
REMARK                            x       y       z     vdW  Elec       q    Type
REMARK                         _______ _______ _______ _____ _____    ______ ____
ROOT
ATOM      1  C   UNL     1       0.781  10.001  18.168  0.00  0.00    +0.000 C 
ATOM      2  C   UNL     1       0.675  10.755  19.491  0.00  0.00    +0.000 C 
ATOM      3  C   UNL     1       1.626  11.978  19.448  0.00  0.00    +0.000 C 
ATOM      4  C   UNL     1       0.918  13.225  19.065  0.00  0.00    +0.000 A 
ATOM      5  C   UNL     1      -0.464  13.277  18.950  0.00  0.00    +0.000 A 
ATOM      6  N   UNL     1      -0.798  14.615  18.937  0.00  0.00    +0.000 N 
ATOM      7  C   UNL     1       0.326  15.402  19.094  0.00  0.00    +0.000 A 
ATOM      8  C   UNL     1       0.445  16.778  19.343  0.00  0.00    +0.000 A 
ATOM      9  C   UNL     1       1.739  17.289  19.481  0.00  0.00    +0.000 A 
ATOM     10  F   UNL     1       1.898  18.600  19.742  0.00  0.00    +0.000 F 
ATOM     11  C   UNL     1       2.874  16.474  19.382  0.00  0.00    +0.000 A 
ATOM     12  F   UNL     1       4.102  17.008  19.480  0.00  0.00    +0.000 F 
ATOM     13  C   UNL     1       2.733  15.103  19.154  0.00  0.00    +0.000 A 
ATOM     14  C   UNL     1       1.432  14.553  19.051  0.00  0.00    +0.000 A 
ATOM     15  C   UNL     1      -1.428  12.141  19.218  0.00  0.00    +0.000 C 
ATOM     16  N   UNL     1      -0.718  11.035  19.896  0.00  0.00    +0.000 NA
ATOM     17  C   UNL     1      -2.499  12.702  20.253  0.00  0.00    +0.000 C 
ATOM     18  O   UNL     1      -2.320  13.315  21.314  0.00  0.00    +0.000 OA
ATOM     19  N   UNL     1      -3.758  12.499  19.718  0.00  0.00    +0.000 N 
ATOM     20  C   UNL     1      -3.685  12.020  18.424  0.00  0.00    +0.000 A 
ATOM     21  C   UNL     1      -4.788  11.797  17.611  0.00  0.00    +0.000 A 
ATOM     22  C   UNL     1      -4.585  11.095  16.430  0.00  0.00    +0.000 A 
ATOM     23  C   UNL     1      -3.327  10.550  16.177  0.00  0.00    +0.000 A 
ATOM     24 CL   UNL     1      -3.151   9.435  14.875  0.00  0.00    +0.000 Cl
ATOM     25  C   UNL     1      -2.222  10.841  16.997  0.00  0.00    +0.000 A 
ATOM     26  C   UNL     1      -2.376  11.672  18.101  0.00  0.00    +0.000 A 
ATOM     27  H   UNL     1      -1.743  14.985  19.003  0.00  0.00    +0.000 HD
ATOM     28  H   UNL     1      -1.290  10.195  19.906  0.00  0.00    +0.000 HD
ATOM     29  H   UNL     1      -4.477  12.161  20.346  0.00  0.00    +0.000 HD
ENDROOT
TORSDOF 0
ENDMDL
MODEL 3
REMARK VINA RESULT:      -7.1      4.066      6.478
REMARK  Name = 
REMARK  1 active torsions:
REMARK  status: ('A' for Active; 'I' for Inactive)
REMARK    1  A    between atoms: C_1  and  C_2
REMARK                            x       y       z     vdW  Elec       q    Type
REMARK                         _______ _______ _______ _____ _____    ______ ____
ROOT
ATOM      1  C   UNL     1      -0.736  14.263  23.116  0.00  0.00    +0.000 C 
ATOM      2  C   UNL     1      -1.128  12.808  22.875  0.00  0.00    +0.000 C 
ATOM      3  C   UNL     1      -2.644  12.743  22.562  0.00  0.00    +0.000 C 
ATOM      4  C   UNL     1      -2.914  12.709  21.103  0.00  0.00    +0.000 A 
ATOM      5  C   UNL     1      -1.896  12.566  20.172  0.00  0.00    +0.000 A 
ATOM      6  N   UNL     1      -2.506  12.221  18.984  0.00  0.00    +0.000 N 
ATOM      7  C   UNL     1      -3.870  12.092  19.154  0.00  0.00    +0.000 A 
ATOM      8  C   UNL     1      -4.848  11.568  18.295  0.00  0.00    +0.000 A 
ATOM      9  C   UNL     1      -6.164  11.548  18.767  0.00  0.00    +0.000 A 
ATOM     10  F   UNL     1      -7.130  11.033  17.983  0.00  0.00    +0.000 F 
ATOM     11  C   UNL     1      -6.504  12.023  20.040  0.00  0.00    +0.000 A 
ATOM     12  F   UNL     1      -7.785  12.026  20.442  0.00  0.00    +0.000 F 
ATOM     13  C   UNL     1      -5.512  12.523  20.888  0.00  0.00    +0.000 A 
ATOM     14  C   UNL     1      -4.165  12.516  20.450  0.00  0.00    +0.000 A 
ATOM     15  C   UNL     1      -0.423  12.392  20.477  0.00  0.00    +0.000 C 
ATOM     16  N   UNL     1      -0.241  12.113  21.918  0.00  0.00    +0.000 NA
ATOM     17  C   UNL     1       0.043  11.087  19.694  0.00  0.00    +0.000 C 
ATOM     18  O   UNL     1      -0.478   9.964  19.659  0.00  0.00    +0.000 OA
ATOM     19  N   UNL     1       1.129  11.426  18.907  0.00  0.00    +0.000 N 
ATOM     20  C   UNL     1       1.369  12.786  18.935  0.00  0.00    +0.000 A 
ATOM     21  C   UNL     1       2.345  13.423  18.181  0.00  0.00    +0.000 A 
ATOM     22  C   UNL     1       2.631  14.747  18.485  0.00  0.00    +0.000 A 
ATOM     23  C   UNL     1       2.021  15.331  19.595  0.00  0.00    +0.000 A 
ATOM     24 CL   UNL     1       2.594  16.858  20.149  0.00  0.00    +0.000 Cl
ATOM     25  C   UNL     1       0.999  14.673  20.302  0.00  0.00    +0.000 A 
ATOM     26  C   UNL     1       0.592  13.402  19.913  0.00  0.00    +0.000 A 
ATOM     27  H   UNL     1      -2.024  11.910  18.145  0.00  0.00    +0.000 HD
ATOM     28  H   UNL     1       0.738  12.190  22.177  0.00  0.00    +0.000 HD
ATOM     29  H   UNL     1       1.903  10.773  18.884  0.00  0.00    +0.000 HD
ENDROOT
TORSDOF 0
ENDMDL
MODEL 4
REMARK VINA RESULT:      -7.1      4.914      6.925
REMARK  Name = 
REMARK  1 active torsions:
REMARK  status: ('A' for Active; 'I' for Inactive)
REMARK    1  A    between atoms: C_1  and  C_2
REMARK                            x       y       z     vdW  Elec       q    Type
REMARK                         _______ _______ _______ _____ _____    ______ ____
ROOT
ATOM      1  C   UNL     1      -0.253  14.133  22.156  0.00  0.00    +0.000 C 
ATOM      2  C   UNL     1      -0.122  12.704  21.638  0.00  0.00    +0.000 C 
ATOM      3  C   UNL     1      -1.484  12.259  21.046  0.00  0.00    +0.000 C 
ATOM      4  C   UNL     1      -1.537  12.432  19.572  0.00  0.00    +0.000 A 
ATOM      5  C   UNL     1      -0.415  12.778  18.834  0.00  0.00    +0.000 A 
ATOM      6  N   UNL     1      -0.723  12.509  17.517  0.00  0.00    +0.000 N 
ATOM      7  C   UNL     1      -1.984  11.955  17.413  0.00  0.00    +0.000 A 
ATOM      8  C   UNL     1      -2.621  11.345  16.322  0.00  0.00    +0.000 A 
ATOM      9  C   UNL     1      -3.911  10.848  16.536  0.00  0.00    +0.000 A 
ATOM     10  F   UNL     1      -4.550  10.236  15.521  0.00  0.00    +0.000 F 
ATOM     11  C   UNL     1      -4.547  10.945  17.780  0.00  0.00    +0.000 A 
ATOM     12  F   UNL     1      -5.801  10.494  17.936  0.00  0.00    +0.000 F 
ATOM     13  C   UNL     1      -3.887  11.538  18.859  0.00  0.00    +0.000 A 
ATOM     14  C   UNL     1      -2.565  12.012  18.680  0.00  0.00    +0.000 A 
ATOM     15  C   UNL     1       0.983  12.989  19.376  0.00  0.00    +0.000 C 
ATOM     16  N   UNL     1       1.056  12.500  20.770  0.00  0.00    +0.000 NA
ATOM     17  C   UNL     1       1.941  12.057  18.512  0.00  0.00    +0.000 C 
ATOM     18  O   UNL     1       1.817  10.860  18.219  0.00  0.00    +0.000 OA
ATOM     19  N   UNL     1       2.952  12.845  17.995  0.00  0.00    +0.000 N 
ATOM     20  C   UNL     1       2.738  14.183  18.263  0.00  0.00    +0.000 A 
ATOM     21  C   UNL     1       3.547  15.212  17.802  0.00  0.00    +0.000 A 
ATOM     22  C   UNL     1       3.351  16.476  18.343  0.00  0.00    +0.000 A 
ATOM     23  C   UNL     1       2.447  16.627  19.394  0.00  0.00    +0.000 A 
ATOM     24 CL   UNL     1       2.423  18.117  20.259  0.00  0.00    +0.000 Cl
ATOM     25  C   UNL     1       1.608  15.574  19.798  0.00  0.00    +0.000 A 
ATOM     26  C   UNL     1       1.684  14.341  19.161  0.00  0.00    +0.000 A 
ATOM     27  H   UNL     1      -0.062  12.523  16.745  0.00  0.00    +0.000 HD
ATOM     28  H   UNL     1       1.917  12.808  21.213  0.00  0.00    +0.000 HD
ATOM     29  H   UNL     1       3.891  12.466  18.020  0.00  0.00    +0.000 HD
ENDROOT
TORSDOF 0
ENDMDL
MODEL 5
REMARK VINA RESULT:      -6.8      2.187      2.843
REMARK  Name = 
REMARK  1 active torsions:
REMARK  status: ('A' for Active; 'I' for Inactive)
REMARK    1  A    between atoms: C_1  and  C_2
REMARK                            x       y       z     vdW  Elec       q    Type
REMARK                         _______ _______ _______ _____ _____    ______ ____
ROOT
ATOM      1  C   UNL     1      -7.169  12.905  17.118  0.00  0.00    +0.000 C 
ATOM      2  C   UNL     1      -6.784  11.888  18.188  0.00  0.00    +0.000 C 
ATOM      3  C   UNL     1      -5.421  11.255  17.810  0.00  0.00    +0.000 C 
ATOM      4  C   UNL     1      -4.286  11.914  18.504  0.00  0.00    +0.000 A 
ATOM      5  C   UNL     1      -4.485  12.856  19.504  0.00  0.00    +0.000 A 
ATOM      6  N   UNL     1      -3.277  12.988  20.154  0.00  0.00    +0.000 N 
ATOM      7  C   UNL     1      -2.340  12.120  19.628  0.00  0.00    +0.000 A 
ATOM      8  C   UNL     1      -1.066  11.763  20.097  0.00  0.00    +0.000 A 
ATOM      9  C   UNL     1      -0.354  10.822  19.348  0.00  0.00    +0.000 A 
ATOM     10  F   UNL     1       0.863  10.436  19.774  0.00  0.00    +0.000 F 
ATOM     11  C   UNL     1      -0.879  10.249  18.182  0.00  0.00    +0.000 A 
ATOM     12  F   UNL     1      -0.149   9.379  17.467  0.00  0.00    +0.000 F 
ATOM     13  C   UNL     1      -2.158  10.602  17.744  0.00  0.00    +0.000 A 
ATOM     14  C   UNL     1      -2.917  11.522  18.507  0.00  0.00    +0.000 A 
ATOM     15  C   UNL     1      -5.822  13.314  20.048  0.00  0.00    +0.000 C 
ATOM     16  N   UNL     1      -6.892  12.415  19.564  0.00  0.00    +0.000 NA
ATOM     17  C   UNL     1      -5.746  13.131  21.627  0.00  0.00    +0.000 C 
ATOM     18  O   UNL     1      -5.377  12.151  22.287  0.00  0.00    +0.000 OA
ATOM     19  N   UNL     1      -6.065  14.342  22.213  0.00  0.00    +0.000 N 
ATOM     20  C   UNL     1      -6.201  15.341  21.269  0.00  0.00    +0.000 A 
ATOM     21  C   UNL     1      -6.443  16.674  21.570  0.00  0.00    +0.000 A 
ATOM     22  C   UNL     1      -6.792  17.517  20.524  0.00  0.00    +0.000 A 
ATOM     23  C   UNL     1      -7.000  16.971  19.258  0.00  0.00    +0.000 A 
ATOM     24 CL   UNL     1      -7.719  17.953  18.038  0.00  0.00    +0.000 Cl
ATOM     25  C   UNL     1      -6.695  15.627  18.979  0.00  0.00    +0.000 A 
ATOM     26  C   UNL     1      -6.195  14.806  19.983  0.00  0.00    +0.000 A 
ATOM     27  H   UNL     1      -3.129  13.497  21.022  0.00  0.00    +0.000 HD
ATOM     28  H   UNL     1      -7.807  12.814  19.751  0.00  0.00    +0.000 HD
ATOM     29  H   UNL     1      -6.678  14.317  23.019  0.00  0.00    +0.000 HD
ENDROOT
TORSDOF 0
ENDMDL
MODEL 6
REMARK VINA RESULT:      -6.7      4.040      6.402
REMARK  Name = 
REMARK  1 active torsions:
REMARK  status: ('A' for Active; 'I' for Inactive)
REMARK    1  A    between atoms: C_1  and  C_2
REMARK                            x       y       z     vdW  Elec       q    Type
REMARK                         _______ _______ _______ _____ _____    ______ ____
ROOT
ATOM      1  C   UNL     1      -0.539   9.813  17.878  0.00  0.00    +0.000 C 
ATOM      2  C   UNL     1       0.331  10.193  19.072  0.00  0.00    +0.000 C 
ATOM      3  C   UNL     1       1.497  11.087  18.578  0.00  0.00    +0.000 C 
ATOM      4  C   UNL     1       1.207  12.532  18.755  0.00  0.00    +0.000 A 
ATOM      5  C   UNL     1       0.094  12.977  19.454  0.00  0.00    +0.000 A 
ATOM      6  N   UNL     1       0.319  14.310  19.726  0.00  0.00    +0.000 N 
ATOM      7  C   UNL     1       1.560  14.701  19.266  0.00  0.00    +0.000 A 
ATOM      8  C   UNL     1       2.285  15.881  19.497  0.00  0.00    +0.000 A 
ATOM      9  C   UNL     1       3.548  15.976  18.905  0.00  0.00    +0.000 A 
ATOM     10  F   UNL     1       4.286  17.082  19.119  0.00  0.00    +0.000 F 
ATOM     11  C   UNL     1       4.081  14.946  18.120  0.00  0.00    +0.000 A 
ATOM     12  F   UNL     1       5.280  15.091  17.535  0.00  0.00    +0.000 F 
ATOM     13  C   UNL     1       3.352  13.771  17.919  0.00  0.00    +0.000 A 
ATOM     14  C   UNL     1       2.087  13.632  18.541  0.00  0.00    +0.000 A 
ATOM     15  C   UNL     1      -0.934  12.107  20.146  0.00  0.00    +0.000 C 
ATOM     16  N   UNL     1      -0.441  10.714  20.219  0.00  0.00    +0.000 NA
ATOM     17  C   UNL     1      -1.031  12.638  21.643  0.00  0.00    +0.000 C 
ATOM     18  O   UNL     1      -0.124  12.881  22.451  0.00  0.00    +0.000 OA
ATOM     19  N   UNL     1      -2.357  12.924  21.910  0.00  0.00    +0.000 N 
ATOM     20  C   UNL     1      -3.138  12.801  20.778  0.00  0.00    +0.000 A 
ATOM     21  C   UNL     1      -4.493  13.099  20.727  0.00  0.00    +0.000 A 
ATOM     22  C   UNL     1      -5.197  12.705  19.597  0.00  0.00    +0.000 A 
ATOM     23  C   UNL     1      -4.549  11.932  18.635  0.00  0.00    +0.000 A 
ATOM     24 CL   UNL     1      -5.488  11.194  17.393  0.00  0.00    +0.000 Cl
ATOM     25  C   UNL     1      -3.164  11.695  18.694  0.00  0.00    +0.000 A 
ATOM     26  C   UNL     1      -2.414  12.216  19.742  0.00  0.00    +0.000 A 
ATOM     27  H   UNL     1      -0.246  14.886  20.345  0.00  0.00    +0.000 HD
ATOM     28  H   UNL     1      -1.188  10.084  20.496  0.00  0.00    +0.000 HD
ATOM     29  H   UNL     1      -2.718  12.635  22.812  0.00  0.00    +0.000 HD
ENDROOT
TORSDOF 0
ENDMDL
MODEL 7
REMARK VINA RESULT:      -6.6      3.642      5.524
REMARK  Name = 
REMARK  1 active torsions:
REMARK  status: ('A' for Active; 'I' for Inactive)
REMARK    1  A    between atoms: C_1  and  C_2
REMARK                            x       y       z     vdW  Elec       q    Type
REMARK                         _______ _______ _______ _____ _____    ______ ____
ROOT
ATOM      1  C   UNL     1      -2.453  11.670  18.011  0.00  0.00    +0.000 C 
ATOM      2  C   UNL     1      -1.189  10.975  18.506  0.00  0.00    +0.000 C 
ATOM      3  C   UNL     1       0.044  11.803  18.062  0.00  0.00    +0.000 C 
ATOM      4  C   UNL     1       0.524  12.711  19.134  0.00  0.00    +0.000 A 
ATOM      5  C   UNL     1       0.016  12.656  20.424  0.00  0.00    +0.000 A 
ATOM      6  N   UNL     1       0.901  13.356  21.217  0.00  0.00    +0.000 N 
ATOM      7  C   UNL     1       1.976  13.803  20.473  0.00  0.00    +0.000 A 
ATOM      8  C   UNL     1       3.194  14.365  20.884  0.00  0.00    +0.000 A 
ATOM      9  C   UNL     1       4.110  14.698  19.881  0.00  0.00    +0.000 A 
ATOM     10  F   UNL     1       5.300  15.221  20.233  0.00  0.00    +0.000 F 
ATOM     11  C   UNL     1       3.838  14.481  18.524  0.00  0.00    +0.000 A 
ATOM     12  F   UNL     1       4.725  14.851  17.588  0.00  0.00    +0.000 F 
ATOM     13  C   UNL     1       2.627  13.901  18.138  0.00  0.00    +0.000 A 
ATOM     14  C   UNL     1       1.699  13.516  19.136  0.00  0.00    +0.000 A 
ATOM     15  C   UNL     1      -1.031  11.687  20.933  0.00  0.00    +0.000 C 
ATOM     16  N   UNL     1      -1.241  10.613  19.938  0.00  0.00    +0.000 NA
ATOM     17  C   UNL     1      -0.409  11.000  22.227  0.00  0.00    +0.000 C 
ATOM     18  O   UNL     1       0.705  10.481  22.382  0.00  0.00    +0.000 OA
ATOM     19  N   UNL     1      -1.300  11.169  23.270  0.00  0.00    +0.000 N 
ATOM     20  C   UNL     1      -2.353  11.986  22.908  0.00  0.00    +0.000 A 
ATOM     21  C   UNL     1      -3.359  12.393  23.774  0.00  0.00    +0.000 A 
ATOM     22  C   UNL     1      -4.472  13.011  23.220  0.00  0.00    +0.000 A 
ATOM     23  C   UNL     1      -4.583  13.085  21.832  0.00  0.00    +0.000 A 
ATOM     24 CL   UNL     1      -6.085  13.574  21.144  0.00  0.00    +0.000 Cl
ATOM     25  C   UNL     1      -3.521  12.709  20.990  0.00  0.00    +0.000 A 
ATOM     26  C   UNL     1      -2.337  12.231  21.538  0.00  0.00    +0.000 A 
ATOM     27  H   UNL     1       0.886  13.382  22.233  0.00  0.00    +0.000 HD
ATOM     28  H   UNL     1      -2.070  10.071  20.166  0.00  0.00    +0.000 HD
ATOM     29  H   UNL     1      -1.459  10.371  23.874  0.00  0.00    +0.000 HD
ENDROOT
TORSDOF 0
ENDMDL
MODEL 8
REMARK VINA RESULT:      -6.5      3.605      4.622
REMARK  Name = 
REMARK  1 active torsions:
REMARK  status: ('A' for Active; 'I' for Inactive)
REMARK    1  A    between atoms: C_1  and  C_2
REMARK                            x       y       z     vdW  Elec       q    Type
REMARK                         _______ _______ _______ _____ _____    ______ ____
ROOT
ATOM      1  C   UNL     1      -0.294  15.896  20.434  0.00  0.00    +0.000 C 
ATOM      2  C   UNL     1      -1.300  14.781  20.165  0.00  0.00    +0.000 C 
ATOM      3  C   UNL     1      -0.531  13.507  19.728  0.00  0.00    +0.000 C 
ATOM      4  C   UNL     1      -0.304  12.574  20.860  0.00  0.00    +0.000 A 
ATOM      5  C   UNL     1      -0.890  12.772  22.102  0.00  0.00    +0.000 A 
ATOM      6  N   UNL     1      -0.768  11.577  22.779  0.00  0.00    +0.000 N 
ATOM      7  C   UNL     1      -0.171  10.621  21.981  0.00  0.00    +0.000 A 
ATOM      8  C   UNL     1      -0.033   9.237  22.170  0.00  0.00    +0.000 A 
ATOM      9  C   UNL     1       0.607   8.519  21.154  0.00  0.00    +0.000 A 
ATOM     10  F   UNL     1       0.741   7.185  21.285  0.00  0.00    +0.000 F 
ATOM     11  C   UNL     1       1.090   9.140  19.996  0.00  0.00    +0.000 A 
ATOM     12  F   UNL     1       1.735   8.423  19.062  0.00  0.00    +0.000 F 
ATOM     13  C   UNL     1       0.924  10.515  19.819  0.00  0.00    +0.000 A 
ATOM     14  C   UNL     1       0.242  11.260  20.812  0.00  0.00    +0.000 A 
ATOM     15  C   UNL     1      -1.837  13.893  22.476  0.00  0.00    +0.000 C 
ATOM     16  N   UNL     1      -2.280  14.600  21.256  0.00  0.00    +0.000 NA
ATOM     17  C   UNL     1      -3.126  13.197  23.099  0.00  0.00    +0.000 C 
ATOM     18  O   UNL     1      -3.799  12.255  22.660  0.00  0.00    +0.000 OA
ATOM     19  N   UNL     1      -3.350  13.751  24.346  0.00  0.00    +0.000 N 
ATOM     20  C   UNL     1      -2.328  14.605  24.711  0.00  0.00    +0.000 A 
ATOM     21  C   UNL     1      -2.244  15.244  25.941  0.00  0.00    +0.000 A 
ATOM     22  C   UNL     1      -1.298  16.250  26.080  0.00  0.00    +0.000 A 
ATOM     23  C   UNL     1      -0.569  16.650  24.962  0.00  0.00    +0.000 A 
ATOM     24 CL   UNL     1       0.380  18.085  25.058  0.00  0.00    +0.000 Cl
ATOM     25  C   UNL     1      -0.642  15.945  23.747  0.00  0.00    +0.000 A 
ATOM     26  C   UNL     1      -1.473  14.836  23.636  0.00  0.00    +0.000 A 
ATOM     27  H   UNL     1      -1.220  11.354  23.662  0.00  0.00    +0.000 HD
ATOM     28  H   UNL     1      -2.752  15.468  21.495  0.00  0.00    +0.000 HD
ATOM     29  H   UNL     1      -4.309  13.973  24.586  0.00  0.00    +0.000 HD
ENDROOT
TORSDOF 0
ENDMDL
MODEL 9
REMARK VINA RESULT:      -6.4      9.700     12.184
REMARK  Name = 
REMARK  1 active torsions:
REMARK  status: ('A' for Active; 'I' for Inactive)
REMARK    1  A    between atoms: C_1  and  C_2
REMARK                            x       y       z     vdW  Elec       q    Type
REMARK                         _______ _______ _______ _____ _____    ______ ____
ROOT
ATOM      1  C   UNL     1       5.816  14.769  23.302  0.00  0.00    +0.000 C 
ATOM      2  C   UNL     1       6.918  15.583  22.630  0.00  0.00    +0.000 C 
ATOM      3  C   UNL     1       8.128  14.654  22.352  0.00  0.00    +0.000 C 
ATOM      4  C   UNL     1       8.125  14.134  20.961  0.00  0.00    +0.000 A 
ATOM      5  C   UNL     1       7.232  14.599  20.006  0.00  0.00    +0.000 A 
ATOM      6  N   UNL     1       7.724  14.187  18.786  0.00  0.00    +0.000 N 
ATOM      7  C   UNL     1       8.926  13.524  18.942  0.00  0.00    +0.000 A 
ATOM      8  C   UNL     1       9.871  13.120  17.987  0.00  0.00    +0.000 A 
ATOM      9  C   UNL     1      11.022  12.483  18.463  0.00  0.00    +0.000 A 
ATOM     10  F   UNL     1      11.965  12.097  17.581  0.00  0.00    +0.000 F 
ATOM     11  C   UNL     1      11.235  12.256  19.828  0.00  0.00    +0.000 A 
ATOM     12  F   UNL     1      12.333  11.605  20.243  0.00  0.00    +0.000 F 
ATOM     13  C   UNL     1      10.291  12.685  20.764  0.00  0.00    +0.000 A 
ATOM     14  C   UNL     1       9.137  13.370  20.312  0.00  0.00    +0.000 A 
ATOM     15  C   UNL     1       6.192  15.682  20.205  0.00  0.00    +0.000 C 
ATOM     16  N   UNL     1       6.441  16.383  21.483  0.00  0.00    +0.000 NA
ATOM     17  C   UNL     1       6.428  16.744  19.045  0.00  0.00    +0.000 C 
ATOM     18  O   UNL     1       7.480  17.283  18.675  0.00  0.00    +0.000 OA
ATOM     19  N   UNL     1       5.231  16.918  18.374  0.00  0.00    +0.000 N 
ATOM     20  C   UNL     1       4.270  16.031  18.817  0.00  0.00    +0.000 A 
ATOM     21  C   UNL     1       2.997  15.922  18.274  0.00  0.00    +0.000 A 
ATOM     22  C   UNL     1       2.065  15.162  18.968  0.00  0.00    +0.000 A 
ATOM     23  C   UNL     1       2.408  14.650  20.218  0.00  0.00    +0.000 A 
ATOM     24 CL   UNL     1       1.169  13.970  21.205  0.00  0.00    +0.000 Cl
ATOM     25  C   UNL     1       3.722  14.736  20.712  0.00  0.00    +0.000 A 
ATOM     26  C   UNL     1       4.708  15.361  19.957  0.00  0.00    +0.000 A 
ATOM     27  H   UNL     1       7.374  14.486  17.880  0.00  0.00    +0.000 HD
ATOM     28  H   UNL     1       5.649  16.971  21.729  0.00  0.00    +0.000 HD
ATOM     29  H   UNL     1       4.973  17.867  18.130  0.00  0.00    +0.000 HD
ENDROOT
TORSDOF 0
ENDMDL
