MODEL 1
REMARK VINA RESULT:      -8.7      0.000      0.000
REMARK  Name = 
REMARK  4 active torsions:
REMARK  status: ('A' for Active; 'I' for Inactive)
REMARK    1  A    between atoms: C_1  and  C_2
REMARK    2  A    between atoms: N_6  and  C_7
REMARK    3  A    between atoms: C_20  and  N_21
REMARK    4  A    between atoms: C_22  and  C_24
REMARK                            x       y       z     vdW  Elec       q    Type
REMARK                         _______ _______ _______ _____ _____    ______ ____
ROOT
ATOM      1  C   UNL     1      -1.292  12.103  18.669  0.00  0.00    +0.000 C 
ATOM      2  C   UNL     1      -0.402  10.982  19.173  0.00  0.00    +0.000 A 
ATOM      3  C   UNL     1       0.380  10.280  18.199  0.00  0.00    +0.000 A 
ATOM      4  C   UNL     1       1.173   9.181  18.644  0.00  0.00    +0.000 A 
ATOM      5  N   UNL     1       1.972   8.364  17.967  0.00  0.00    +0.000 NA
ATOM      6  N   UNL     1       2.435   7.426  18.880  0.00  0.00    +0.000 N 
ATOM      7  N   UNL     1       2.017   7.654  20.159  0.00  0.00    +0.000 NA
ATOM      8  C   UNL     1       1.225   8.767  20.041  0.00  0.00    +0.000 A 
ATOM      9  C   UNL     1       0.492   9.527  21.006  0.00  0.00    +0.000 A 
ATOM     10  C   UNL     1      -0.334  10.614  20.558  0.00  0.00    +0.000 A 
ENDROOT
BRANCH   6  11
ATOM     11  C   UNL     1       3.289   6.341  18.354  0.00  0.00    +0.000 A 
ATOM     12  C   UNL     1       4.173   6.821  17.366  0.00  0.00    +0.000 A 
ATOM     13  C   UNL     1       5.165   6.024  16.850  0.00  0.00    +0.000 A 
ATOM     14  C   UNL     1       4.744   4.753  16.581  0.00  0.00    +0.000 A 
ATOM     15  C   UNL     1       3.939   4.136  17.522  0.00  0.00    +0.000 A 
ATOM     16  C   UNL     1       3.890   2.752  17.372  0.00  0.00    +0.000 A 
ATOM     17  C   UNL     1       3.468   1.942  18.400  0.00  0.00    +0.000 A 
ATOM     18  C   UNL     1       3.062   2.561  19.575  0.00  0.00    +0.000 A 
ATOM     19  C   UNL     1       2.937   3.985  19.664  0.00  0.00    +0.000 A 
ATOM     20  C   UNL     1       3.332   4.878  18.596  0.00  0.00    +0.000 A 
ENDBRANCH   6  11
BRANCH  10  21
ATOM     21  N   UNL     1      -1.129  11.401  21.487  0.00  0.00    +0.000 N 
ATOM     22  C   UNL     1      -0.723  12.528  22.191  0.00  0.00    +0.000 C 
ATOM     23  O   UNL     1       0.385  13.008  22.102  0.00  0.00    +0.000 OA
ATOM     24  H   UNL     1      -2.079  11.093  21.676  0.00  0.00    +0.000 HD
BRANCH  22  25
ATOM     25  C   UNL     1      -1.681  13.170  23.105  0.00  0.00    +0.000 A 
ATOM     26  C   UNL     1      -2.936  12.664  23.417  0.00  0.00    +0.000 A 
ATOM     27  C   UNL     1      -3.664  13.475  24.332  0.00  0.00    +0.000 A 
ATOM     28  C   UNL     1      -2.942  14.586  24.702  0.00  0.00    +0.000 A 
ATOM     29  S   UNL     1      -1.405  14.640  23.928  0.00  0.00    +0.000 S 
ENDBRANCH  22  25
ENDBRANCH  10  21
TORSDOF 3
ENDMDL
MODEL 2
REMARK VINA RESULT:      -8.6      1.493      1.742
REMARK  Name = 
REMARK  4 active torsions:
REMARK  status: ('A' for Active; 'I' for Inactive)
REMARK    1  A    between atoms: C_1  and  C_2
REMARK    2  A    between atoms: N_6  and  C_7
REMARK    3  A    between atoms: C_20  and  N_21
REMARK    4  A    between atoms: C_22  and  C_24
REMARK                            x       y       z     vdW  Elec       q    Type
REMARK                         _______ _______ _______ _____ _____    ______ ____
ROOT
ATOM      1  C   UNL     1      -0.540  13.365  19.407  0.00  0.00    +0.000 C 
ATOM      2  C   UNL     1       0.032  12.056  19.920  0.00  0.00    +0.000 A 
ATOM      3  C   UNL     1       0.583  11.159  18.948  0.00  0.00    +0.000 A 
ATOM      4  C   UNL     1       1.067   9.897  19.403  0.00  0.00    +0.000 A 
ATOM      5  N   UNL     1       1.609   8.887  18.731  0.00  0.00    +0.000 NA
ATOM      6  N   UNL     1       1.824   7.874  19.654  0.00  0.00    +0.000 N 
ATOM      7  N   UNL     1       1.505   8.223  20.935  0.00  0.00    +0.000 NA
ATOM      8  C   UNL     1       1.033   9.504  20.807  0.00  0.00    +0.000 A 
ATOM      9  C   UNL     1       0.545  10.444  21.767  0.00  0.00    +0.000 A 
ATOM     10  C   UNL     1       0.027  11.704  21.310  0.00  0.00    +0.000 A 
ENDROOT
BRANCH   6  11
ATOM     11  C   UNL     1       2.352   6.594  19.138  0.00  0.00    +0.000 A 
ATOM     12  C   UNL     1       3.356   6.810  18.171  0.00  0.00    +0.000 A 
ATOM     13  C   UNL     1       4.096   5.768  17.668  0.00  0.00    +0.000 A 
ATOM     14  C   UNL     1       3.342   4.666  17.381  0.00  0.00    +0.000 A 
ATOM     15  C   UNL     1       2.378   4.297  18.302  0.00  0.00    +0.000 A 
ATOM     16  C   UNL     1       1.948   2.982  18.141  0.00  0.00    +0.000 A 
ATOM     17  C   UNL     1       1.295   2.321  19.155  0.00  0.00    +0.000 A 
ATOM     18  C   UNL     1       1.053   3.026  20.327  0.00  0.00    +0.000 A 
ATOM     19  C   UNL     1       1.329   4.429  20.423  0.00  0.00    +0.000 A 
ATOM     20  C   UNL     1       1.980   5.177  19.370  0.00  0.00    +0.000 A 
ENDBRANCH   6  11
BRANCH  10  21
ATOM     21  N   UNL     1      -0.516  12.687  22.235  0.00  0.00    +0.000 N 
ATOM     22  C   UNL     1      -1.803  12.723  22.758  0.00  0.00    +0.000 C 
ATOM     23  O   UNL     1      -2.652  11.901  22.500  0.00  0.00    +0.000 OA
ATOM     24  H   UNL     1       0.087  13.454  22.518  0.00  0.00    +0.000 HD
BRANCH  22  25
ATOM     25  C   UNL     1      -2.161  13.823  23.668  0.00  0.00    +0.000 A 
ATOM     26  C   UNL     1      -1.261  14.739  24.194  0.00  0.00    +0.000 A 
ATOM     27  C   UNL     1      -1.866  15.708  25.042  0.00  0.00    +0.000 A 
ATOM     28  C   UNL     1      -3.224  15.510  25.141  0.00  0.00    +0.000 A 
ATOM     29  S   UNL     1      -3.743  14.150  24.222  0.00  0.00    +0.000 S 
ENDBRANCH  22  25
ENDBRANCH  10  21
TORSDOF 3
ENDMDL
MODEL 3
REMARK VINA RESULT:      -8.6      1.061      2.232
REMARK  Name = 
REMARK  4 active torsions:
REMARK  status: ('A' for Active; 'I' for Inactive)
REMARK    1  A    between atoms: C_1  and  C_2
REMARK    2  A    between atoms: N_6  and  C_7
REMARK    3  A    between atoms: C_20  and  N_21
REMARK    4  A    between atoms: C_22  and  C_24
REMARK                            x       y       z     vdW  Elec       q    Type
REMARK                         _______ _______ _______ _____ _____    ______ ____
ROOT
ATOM      1  C   UNL     1      -1.067  12.265  18.663  0.00  0.00    +0.000 C 
ATOM      2  C   UNL     1      -0.241  11.082  19.133  0.00  0.00    +0.000 A 
ATOM      3  C   UNL     1       0.510  10.374  18.140  0.00  0.00    +0.000 A 
ATOM      4  C   UNL     1       1.243   9.221  18.552  0.00  0.00    +0.000 A 
ATOM      5  N   UNL     1       2.002   8.386  17.852  0.00  0.00    +0.000 NA
ATOM      6  N   UNL     1       2.409   7.395  18.735  0.00  0.00    +0.000 N 
ATOM      7  N   UNL     1       1.996   7.602  20.019  0.00  0.00    +0.000 NA
ATOM      8  C   UNL     1       1.263   8.758  19.935  0.00  0.00    +0.000 A 
ATOM      9  C   UNL     1       0.564   9.523  20.920  0.00  0.00    +0.000 A 
ATOM     10  C   UNL     1      -0.201  10.666  20.505  0.00  0.00    +0.000 A 
ENDROOT
BRANCH   6  11
ATOM     11  C   UNL     1       3.210   6.285  18.178  0.00  0.00    +0.000 A 
ATOM     12  C   UNL     1       2.438   5.111  18.057  0.00  0.00    +0.000 A 
ATOM     13  C   UNL     1       2.930   3.998  17.419  0.00  0.00    +0.000 A 
ATOM     14  C   UNL     1       4.227   3.723  17.747  0.00  0.00    +0.000 A 
ATOM     15  C   UNL     1       5.107   4.788  17.811  0.00  0.00    +0.000 A 
ATOM     16  C   UNL     1       6.442   4.394  17.752  0.00  0.00    +0.000 A 
ATOM     17  C   UNL     1       7.432   5.291  17.426  0.00  0.00    +0.000 A 
ATOM     18  C   UNL     1       7.052   6.607  17.195  0.00  0.00    +0.000 A 
ATOM     19  C   UNL     1       5.711   7.049  17.436  0.00  0.00    +0.000 A 
ATOM     20  C   UNL     1       4.642   6.151  17.816  0.00  0.00    +0.000 A 
ENDBRANCH   6  11
BRANCH  10  21
ATOM     21  N   UNL     1      -0.961  11.462  21.456  0.00  0.00    +0.000 N 
ATOM     22  C   UNL     1      -0.541  12.618  22.105  0.00  0.00    +0.000 C 
ATOM     23  O   UNL     1       0.548  13.119  21.939  0.00  0.00    +0.000 OA
ATOM     24  H   UNL     1      -1.890  11.139  21.708  0.00  0.00    +0.000 HD
BRANCH  22  25
ATOM     25  C   UNL     1      -1.461  13.265  23.053  0.00  0.00    +0.000 A 
ATOM     26  C   UNL     1      -1.177  14.422  23.766  0.00  0.00    +0.000 A 
ATOM     27  C   UNL     1      -2.240  14.844  24.612  0.00  0.00    +0.000 A 
ATOM     28  C   UNL     1      -3.321  13.996  24.521  0.00  0.00    +0.000 A 
ATOM     29  S   UNL     1      -3.027  12.697  23.430  0.00  0.00    +0.000 S 
ENDBRANCH  22  25
ENDBRANCH  10  21
TORSDOF 3
ENDMDL
MODEL 4
REMARK VINA RESULT:      -8.6      1.034      1.203
REMARK  Name = 
REMARK  4 active torsions:
REMARK  status: ('A' for Active; 'I' for Inactive)
REMARK    1  A    between atoms: C_1  and  C_2
REMARK    2  A    between atoms: N_6  and  C_7
REMARK    3  A    between atoms: C_20  and  N_21
REMARK    4  A    between atoms: C_22  and  C_24
REMARK                            x       y       z     vdW  Elec       q    Type
REMARK                         _______ _______ _______ _____ _____    ______ ____
ROOT
ATOM      1  C   UNL     1      -1.363  12.851  19.163  0.00  0.00    +0.000 C 
ATOM      2  C   UNL     1      -0.566  11.650  19.638  0.00  0.00    +0.000 A 
ATOM      3  C   UNL     1       0.132  10.894  18.642  0.00  0.00    +0.000 A 
ATOM      4  C   UNL     1       0.835   9.725  19.061  0.00  0.00    +0.000 A 
ATOM      5  N   UNL     1       1.545   8.848  18.361  0.00  0.00    +0.000 NA
ATOM      6  N   UNL     1       1.941   7.863  19.254  0.00  0.00    +0.000 N 
ATOM      7  N   UNL     1       1.569   8.112  20.544  0.00  0.00    +0.000 NA
ATOM      8  C   UNL     1       0.876   9.291  20.453  0.00  0.00    +0.000 A 
ATOM      9  C   UNL     1       0.231  10.102  21.439  0.00  0.00    +0.000 A 
ATOM     10  C   UNL     1      -0.504  11.262  21.018  0.00  0.00    +0.000 A 
ENDROOT
BRANCH   6  11
ATOM     11  C   UNL     1       2.686   6.713  18.702  0.00  0.00    +0.000 A 
ATOM     12  C   UNL     1       3.753   7.142  17.886  0.00  0.00    +0.000 A 
ATOM     13  C   UNL     1       4.676   6.251  17.393  0.00  0.00    +0.000 A 
ATOM     14  C   UNL     1       4.110   5.100  16.926  0.00  0.00    +0.000 A 
ATOM     15  C   UNL     1       3.106   4.529  17.688  0.00  0.00    +0.000 A 
ATOM     16  C   UNL     1       2.873   3.193  17.366  0.00  0.00    +0.000 A 
ATOM     17  C   UNL     1       2.204   2.362  18.234  0.00  0.00    +0.000 A 
ATOM     18  C   UNL     1       1.743   2.915  19.422  0.00  0.00    +0.000 A 
ATOM     19  C   UNL     1       1.820   4.325  19.668  0.00  0.00    +0.000 A 
ATOM     20  C   UNL     1       2.480   5.246  18.768  0.00  0.00    +0.000 A 
ENDBRANCH   6  11
BRANCH  10  21
ATOM     21  N   UNL     1      -1.210  12.106  21.970  0.00  0.00    +0.000 N 
ATOM     22  C   UNL     1      -0.720  13.239  22.608  0.00  0.00    +0.000 C 
ATOM     23  O   UNL     1       0.394  13.676  22.432  0.00  0.00    +0.000 OA
ATOM     24  H   UNL     1      -2.155  11.837  22.230  0.00  0.00    +0.000 HD
BRANCH  22  25
ATOM     25  C   UNL     1      -1.595  13.942  23.561  0.00  0.00    +0.000 A 
ATOM     26  C   UNL     1      -1.180  14.955  24.415  0.00  0.00    +0.000 A 
ATOM     27  C   UNL     1      -2.224  15.473  25.231  0.00  0.00    +0.000 A 
ATOM     28  C   UNL     1      -3.421  14.843  24.974  0.00  0.00    +0.000 A 
ATOM     29  S   UNL     1      -3.260  13.627  23.767  0.00  0.00    +0.000 S 
ENDBRANCH  22  25
ENDBRANCH  10  21
TORSDOF 3
ENDMDL
MODEL 5
REMARK VINA RESULT:      -8.5      2.724      3.523
REMARK  Name = 
REMARK  4 active torsions:
REMARK  status: ('A' for Active; 'I' for Inactive)
REMARK    1  A    between atoms: C_1  and  C_2
REMARK    2  A    between atoms: N_6  and  C_7
REMARK    3  A    between atoms: C_20  and  N_21
REMARK    4  A    between atoms: C_22  and  C_24
REMARK                            x       y       z     vdW  Elec       q    Type
REMARK                         _______ _______ _______ _____ _____    ______ ____
ROOT
ATOM      1  C   UNL     1      -0.089  12.179  21.806  0.00  0.00    +0.000 C 
ATOM      2  C   UNL     1       0.479  11.341  20.675  0.00  0.00    +0.000 A 
ATOM      3  C   UNL     1       0.685   9.947  20.935  0.00  0.00    +0.000 A 
ATOM      4  C   UNL     1       1.277   9.157  19.906  0.00  0.00    +0.000 A 
ATOM      5  N   UNL     1       1.586   7.865  19.880  0.00  0.00    +0.000 NA
ATOM      6  N   UNL     1       2.213   7.637  18.663  0.00  0.00    +0.000 N 
ATOM      7  N   UNL     1       2.254   8.736  17.855  0.00  0.00    +0.000 NA
ATOM      8  C   UNL     1       1.659   9.711  18.612  0.00  0.00    +0.000 A 
ATOM      9  C   UNL     1       1.377  11.088  18.351  0.00  0.00    +0.000 A 
ATOM     10  C   UNL     1       0.810  11.897  19.395  0.00  0.00    +0.000 A 
ENDROOT
BRANCH   6  11
ATOM     11  C   UNL     1       2.733   6.276  18.419  0.00  0.00    +0.000 A 
ATOM     12  C   UNL     1       3.900   6.311  17.628  0.00  0.00    +0.000 A 
ATOM     13  C   UNL     1       4.643   5.178  17.404  0.00  0.00    +0.000 A 
ATOM     14  C   UNL     1       3.877   4.081  17.132  0.00  0.00    +0.000 A 
ATOM     15  C   UNL     1       2.747   3.886  17.905  0.00  0.00    +0.000 A 
ATOM     16  C   UNL     1       2.262   2.582  17.841  0.00  0.00    +0.000 A 
ATOM     17  C   UNL     1       1.402   2.097  18.798  0.00  0.00    +0.000 A 
ATOM     18  C   UNL     1       1.011   2.969  19.807  0.00  0.00    +0.000 A 
ATOM     19  C   UNL     1       1.361   4.358  19.769  0.00  0.00    +0.000 A 
ATOM     20  C   UNL     1       2.232   4.923  18.762  0.00  0.00    +0.000 A 
ENDBRANCH   6  11
BRANCH  10  21
ATOM     21  N   UNL     1       0.534  13.311  19.201  0.00  0.00    +0.000 N 
ATOM     22  C   UNL     1       1.460  14.348  19.168  0.00  0.00    +0.000 C 
ATOM     23  O   UNL     1       2.652  14.183  19.294  0.00  0.00    +0.000 OA
ATOM     24  H   UNL     1      -0.436  13.596  19.106  0.00  0.00    +0.000 HD
BRANCH  22  25
ATOM     25  C   UNL     1       0.969  15.723  18.981  0.00  0.00    +0.000 A 
ATOM     26  C   UNL     1      -0.323  16.055  18.595  0.00  0.00    +0.000 A 
ATOM     27  C   UNL     1      -0.542  17.458  18.493  0.00  0.00    +0.000 A 
ATOM     28  C   UNL     1       0.594  18.167  18.810  0.00  0.00    +0.000 A 
ATOM     29  S   UNL     1       1.909  17.130  19.209  0.00  0.00    +0.000 S 
ENDBRANCH  22  25
ENDBRANCH  10  21
TORSDOF 3
ENDMDL
MODEL 6
REMARK VINA RESULT:      -8.5      2.373      3.126
REMARK  Name = 
REMARK  4 active torsions:
REMARK  status: ('A' for Active; 'I' for Inactive)
REMARK    1  A    between atoms: C_1  and  C_2
REMARK    2  A    between atoms: N_6  and  C_7
REMARK    3  A    between atoms: C_20  and  N_21
REMARK    4  A    between atoms: C_22  and  C_24
REMARK                            x       y       z     vdW  Elec       q    Type
REMARK                         _______ _______ _______ _____ _____    ______ ____
ROOT
ATOM      1  C   UNL     1      -0.584  12.020  22.235  0.00  0.00    +0.000 C 
ATOM      2  C   UNL     1      -0.038  11.295  21.019  0.00  0.00    +0.000 A 
ATOM      3  C   UNL     1       0.448   9.962  21.217  0.00  0.00    +0.000 A 
ATOM      4  C   UNL     1       1.023   9.287  20.099  0.00  0.00    +0.000 A 
ATOM      5  N   UNL     1       1.552   8.073  20.002  0.00  0.00    +0.000 NA
ATOM      6  N   UNL     1       2.032   7.957  18.706  0.00  0.00    +0.000 N 
ATOM      7  N   UNL     1       1.764   9.043  17.924  0.00  0.00    +0.000 NA
ATOM      8  C   UNL     1       1.115   9.897  18.778  0.00  0.00    +0.000 A 
ATOM      9  C   UNL     1       0.558  11.201  18.588  0.00  0.00    +0.000 A 
ATOM     10  C   UNL     1       0.007  11.896  19.718  0.00  0.00    +0.000 A 
ENDROOT
BRANCH   6  11
ATOM     11  C   UNL     1       2.749   6.712  18.362  0.00  0.00    +0.000 A 
ATOM     12  C   UNL     1       3.941   6.987  17.661  0.00  0.00    +0.000 A 
ATOM     13  C   UNL     1       4.846   5.992  17.376  0.00  0.00    +0.000 A 
ATOM     14  C   UNL     1       4.254   4.840  16.942  0.00  0.00    +0.000 A 
ATOM     15  C   UNL     1       3.121   4.415  17.611  0.00  0.00    +0.000 A 
ATOM     16  C   UNL     1       2.825   3.073  17.382  0.00  0.00    +0.000 A 
ATOM     17  C   UNL     1       1.989   2.378  18.223  0.00  0.00    +0.000 A 
ATOM     18  C   UNL     1       1.427   3.074  19.285  0.00  0.00    +0.000 A 
ATOM     19  C   UNL     1       1.583   4.493  19.413  0.00  0.00    +0.000 A 
ATOM     20  C   UNL     1       2.422   5.275  18.530  0.00  0.00    +0.000 A 
ENDBRANCH   6  11
BRANCH  10  21
ATOM     21  N   UNL     1      -0.542  13.238  19.595  0.00  0.00    +0.000 N 
ATOM     22  C   UNL     1       0.168  14.422  19.440  0.00  0.00    +0.000 C 
ATOM     23  O   UNL     1       1.376  14.474  19.380  0.00  0.00    +0.000 OA
ATOM     24  H   UNL     1      -1.551  13.344  19.654  0.00  0.00    +0.000 HD
BRANCH  22  25
ATOM     25  C   UNL     1      -0.581  15.686  19.356  0.00  0.00    +0.000 A 
ATOM     26  C   UNL     1      -0.423  16.634  18.354  0.00  0.00    +0.000 A 
ATOM     27  C   UNL     1      -1.274  17.765  18.502  0.00  0.00    +0.000 A 
ATOM     28  C   UNL     1      -2.071  17.650  19.619  0.00  0.00    +0.000 A 
ATOM     29  S   UNL     1      -1.767  16.189  20.478  0.00  0.00    +0.000 S 
ENDBRANCH  22  25
ENDBRANCH  10  21
TORSDOF 3
ENDMDL
MODEL 7
REMARK VINA RESULT:      -8.3      1.115      2.210
REMARK  Name = 
REMARK  4 active torsions:
REMARK  status: ('A' for Active; 'I' for Inactive)
REMARK    1  A    between atoms: C_1  and  C_2
REMARK    2  A    between atoms: N_6  and  C_7
REMARK    3  A    between atoms: C_20  and  N_21
REMARK    4  A    between atoms: C_22  and  C_24
REMARK                            x       y       z     vdW  Elec       q    Type
REMARK                         _______ _______ _______ _____ _____    ______ ____
ROOT
ATOM      1  C   UNL     1      -0.678  12.279  18.519  0.00  0.00    +0.000 C 
ATOM      2  C   UNL     1      -0.005  11.085  19.170  0.00  0.00    +0.000 A 
ATOM      3  C   UNL     1       0.836  10.276  18.339  0.00  0.00    +0.000 A 
ATOM      4  C   UNL     1       1.426   9.112  18.917  0.00  0.00    +0.000 A 
ATOM      5  N   UNL     1       2.225   8.195  18.384  0.00  0.00    +0.000 NA
ATOM      6  N   UNL     1       2.435   7.240  19.369  0.00  0.00    +0.000 N 
ATOM      7  N   UNL     1       1.853   7.549  20.564  0.00  0.00    +0.000 NA
ATOM      8  C   UNL     1       1.216   8.736  20.310  0.00  0.00    +0.000 A 
ATOM      9  C   UNL     1       0.430   9.597  21.138  0.00  0.00    +0.000 A 
ATOM     10  C   UNL     1      -0.192  10.753  20.553  0.00  0.00    +0.000 A 
ENDROOT
BRANCH   6  11
ATOM     11  C   UNL     1       3.236   6.056  18.997  0.00  0.00    +0.000 A 
ATOM     12  C   UNL     1       2.992   4.979  19.875  0.00  0.00    +0.000 A 
ATOM     13  C   UNL     1       3.508   3.729  19.631  0.00  0.00    +0.000 A 
ATOM     14  C   UNL     1       4.808   3.760  19.213  0.00  0.00    +0.000 A 
ATOM     15  C   UNL     1       5.154   4.720  18.279  0.00  0.00    +0.000 A 
ATOM     16  C   UNL     1       6.351   4.436  17.625  0.00  0.00    +0.000 A 
ATOM     17  C   UNL     1       6.669   5.043  16.434  0.00  0.00    +0.000 A 
ATOM     18  C   UNL     1       5.769   5.974  15.930  0.00  0.00    +0.000 A 
ATOM     19  C   UNL     1       4.633   6.401  16.691  0.00  0.00    +0.000 A 
ATOM     20  C   UNL     1       4.277   5.819  17.967  0.00  0.00    +0.000 A 
ENDBRANCH   6  11
BRANCH  10  21
ATOM     21  N   UNL     1      -1.030  11.647  21.336  0.00  0.00    +0.000 N 
ATOM     22  C   UNL     1      -1.307  11.559  22.695  0.00  0.00    +0.000 C 
ATOM     23  O   UNL     1      -0.856  10.697  23.414  0.00  0.00    +0.000 OA
ATOM     24  H   UNL     1      -1.496  12.407  20.849  0.00  0.00    +0.000 HD
BRANCH  22  25
ATOM     25  C   UNL     1      -2.205  12.559  23.296  0.00  0.00    +0.000 A 
ATOM     26  C   UNL     1      -3.498  12.301  23.728  0.00  0.00    +0.000 A 
ATOM     27  C   UNL     1      -4.152  13.439  24.277  0.00  0.00    +0.000 A 
ATOM     28  C   UNL     1      -3.334  14.546  24.256  0.00  0.00    +0.000 A 
ATOM     29  S   UNL     1      -1.799  14.196  23.558  0.00  0.00    +0.000 S 
ENDBRANCH  22  25
ENDBRANCH  10  21
TORSDOF 3
ENDMDL
MODEL 8
REMARK VINA RESULT:      -8.2      2.314      3.619
REMARK  Name = 
REMARK  4 active torsions:
REMARK  status: ('A' for Active; 'I' for Inactive)
REMARK    1  A    between atoms: C_1  and  C_2
REMARK    2  A    between atoms: N_6  and  C_7
REMARK    3  A    between atoms: C_20  and  N_21
REMARK    4  A    between atoms: C_22  and  C_24
REMARK                            x       y       z     vdW  Elec       q    Type
REMARK                         _______ _______ _______ _____ _____    ______ ____
ROOT
ATOM      1  C   UNL     1      -0.360  11.517  21.999  0.00  0.00    +0.000 C 
ATOM      2  C   UNL     1       0.248  10.869  20.769  0.00  0.00    +0.000 A 
ATOM      3  C   UNL     1       0.759   9.539  20.916  0.00  0.00    +0.000 A 
ATOM      4  C   UNL     1       1.392   8.937  19.788  0.00  0.00    +0.000 A 
ATOM      5  N   UNL     1       1.953   7.741  19.649  0.00  0.00    +0.000 NA
ATOM      6  N   UNL     1       2.485   7.705  18.368  0.00  0.00    +0.000 N 
ATOM      7  N   UNL     1       2.219   8.825  17.633  0.00  0.00    +0.000 NA
ATOM      8  C   UNL     1       1.518   9.618  18.505  0.00  0.00    +0.000 A 
ATOM      9  C   UNL     1       0.937  10.917  18.361  0.00  0.00    +0.000 A 
ATOM     10  C   UNL     1       0.327  11.539  19.503  0.00  0.00    +0.000 A 
ENDROOT
BRANCH   6  11
ATOM     11  C   UNL     1       3.244   6.496  17.989  0.00  0.00    +0.000 A 
ATOM     12  C   UNL     1       2.418   5.353  17.994  0.00  0.00    +0.000 A 
ATOM     13  C   UNL     1       2.872   4.144  17.524  0.00  0.00    +0.000 A 
ATOM     14  C   UNL     1       4.143   3.855  17.931  0.00  0.00    +0.000 A 
ATOM     15  C   UNL     1       5.073   4.878  17.887  0.00  0.00    +0.000 A 
ATOM     16  C   UNL     1       6.388   4.418  17.926  0.00  0.00    +0.000 A 
ATOM     17  C   UNL     1       7.431   5.218  17.522  0.00  0.00    +0.000 A 
ATOM     18  C   UNL     1       7.124   6.508  17.108  0.00  0.00    +0.000 A 
ATOM     19  C   UNL     1       5.800   7.040  17.243  0.00  0.00    +0.000 A 
ATOM     20  C   UNL     1       4.677   6.249  17.698  0.00  0.00    +0.000 A 
ENDBRANCH   6  11
BRANCH  10  21
ATOM     21  N   UNL     1      -0.249  12.873  19.429  0.00  0.00    +0.000 N 
ATOM     22  C   UNL     1       0.429  14.083  19.502  0.00  0.00    +0.000 C 
ATOM     23  O   UNL     1       1.629  14.170  19.634  0.00  0.00    +0.000 OA
ATOM     24  H   UNL     1      -1.259  12.948  19.342  0.00  0.00    +0.000 HD
BRANCH  22  25
ATOM     25  C   UNL     1      -0.348  15.331  19.428  0.00  0.00    +0.000 A 
ATOM     26  C   UNL     1      -0.228  16.278  18.420  0.00  0.00    +0.000 A 
ATOM     27  C   UNL     1      -1.100  17.391  18.579  0.00  0.00    +0.000 A 
ATOM     28  C   UNL     1      -1.874  17.264  19.710  0.00  0.00    +0.000 A 
ATOM     29  S   UNL     1      -1.523  15.814  20.568  0.00  0.00    +0.000 S 
ENDBRANCH  22  25
ENDBRANCH  10  21
TORSDOF 3
ENDMDL
MODEL 9
REMARK VINA RESULT:      -8.2      1.691      2.965
REMARK  Name = 
REMARK  4 active torsions:
REMARK  status: ('A' for Active; 'I' for Inactive)
REMARK    1  A    between atoms: C_1  and  C_2
REMARK    2  A    between atoms: N_6  and  C_7
REMARK    3  A    between atoms: C_20  and  N_21
REMARK    4  A    between atoms: C_22  and  C_24
REMARK                            x       y       z     vdW  Elec       q    Type
REMARK                         _______ _______ _______ _____ _____    ______ ____
ROOT
ATOM      1  C   UNL     1      -0.468  10.155  23.125  0.00  0.00    +0.000 C 
ATOM      2  C   UNL     1       0.149   9.796  21.787  0.00  0.00    +0.000 A 
ATOM      3  C   UNL     1       0.704   8.481  21.654  0.00  0.00    +0.000 A 
ATOM      4  C   UNL     1       1.345   8.147  20.425  0.00  0.00    +0.000 A 
ATOM      5  N   UNL     1       1.943   7.025  20.041  0.00  0.00    +0.000 NA
ATOM      6  N   UNL     1       2.464   7.272  18.779  0.00  0.00    +0.000 N 
ATOM      7  N   UNL     1       2.157   8.509  18.292  0.00  0.00    +0.000 NA
ATOM      8  C   UNL     1       1.439   9.082  19.310  0.00  0.00    +0.000 A 
ATOM      9  C   UNL     1       0.816  10.362  19.440  0.00  0.00    +0.000 A 
ATOM     10  C   UNL     1       0.196  10.715  20.687  0.00  0.00    +0.000 A 
ENDROOT
BRANCH   6  11
ATOM     11  C   UNL     1       3.258   6.193  18.156  0.00  0.00    +0.000 A 
ATOM     12  C   UNL     1       2.489   5.022  17.993  0.00  0.00    +0.000 A 
ATOM     13  C   UNL     1       2.972   3.942  17.295  0.00  0.00    +0.000 A 
ATOM     14  C   UNL     1       4.276   3.658  17.587  0.00  0.00    +0.000 A 
ATOM     15  C   UNL     1       5.153   4.722  17.684  0.00  0.00    +0.000 A 
ATOM     16  C   UNL     1       6.488   4.337  17.583  0.00  0.00    +0.000 A 
ATOM     17  C   UNL     1       7.469   5.253  17.282  0.00  0.00    +0.000 A 
ATOM     18  C   UNL     1       7.081   6.576  17.120  0.00  0.00    +0.000 A 
ATOM     19  C   UNL     1       5.743   7.001  17.406  0.00  0.00    +0.000 A 
ATOM     20  C   UNL     1       4.684   6.081  17.763  0.00  0.00    +0.000 A 
ENDBRANCH   6  11
BRANCH  10  21
ATOM     21  N   UNL     1      -0.423  12.016  20.891  0.00  0.00    +0.000 N 
ATOM     22  C   UNL     1       0.210  13.193  21.271  0.00  0.00    +0.000 C 
ATOM     23  O   UNL     1       1.399  13.277  21.476  0.00  0.00    +0.000 OA
ATOM     24  H   UNL     1      -1.430  12.084  20.776  0.00  0.00    +0.000 HD
BRANCH  22  25
ATOM     25  C   UNL     1      -0.607  14.405  21.446  0.00  0.00    +0.000 A 
ATOM     26  C   UNL     1      -1.794  14.462  22.164  0.00  0.00    +0.000 A 
ATOM     27  C   UNL     1      -2.385  15.756  22.185  0.00  0.00    +0.000 A 
ATOM     28  C   UNL     1      -1.627  16.664  21.480  0.00  0.00    +0.000 A 
ATOM     29  S   UNL     1      -0.227  15.937  20.794  0.00  0.00    +0.000 S 
ENDBRANCH  22  25
ENDBRANCH  10  21
TORSDOF 3
ENDMDL
