MODEL 1
REMARK VINA RESULT:      -8.7      0.000      0.000
REMARK  Name = 
REMARK  4 active torsions:
REMARK  status: ('A' for Active; 'I' for Inactive)
REMARK    1  A    between atoms: C_1  and  C_2
REMARK    2  A    between atoms: C_17  and  C_18
REMARK    3  A    between atoms: C_18  and  O_20
REMARK    4  A    between atoms: C_21  and  O_22
REMARK                            x       y       z     vdW  Elec       q    Type
REMARK                         _______ _______ _______ _____ _____    ______ ____
ROOT
ATOM      1  C   UNL     1       5.247   4.705  15.623  0.00  0.00    +0.000 C 
ATOM      2  C   UNL     1       4.713   5.778  16.550  0.00  0.00    +0.000 C 
ATOM      3  O   UNL     1       5.089   6.940  16.367  0.00  0.00    +0.000 OA
ATOM      4  N   UNL     1       3.917   5.370  17.622  0.00  0.00    +0.000 N 
ATOM      5  C   UNL     1       3.990   4.039  18.092  0.00  0.00    +0.000 C 
ATOM      6  O   UNL     1       4.089   3.043  17.377  0.00  0.00    +0.000 OA
ATOM      7  C   UNL     1       3.952   3.933  19.616  0.00  0.00    +0.000 C 
ATOM      8  C   UNL     1       3.743   2.533  20.193  0.00  0.00    +0.000 C 
ATOM      9  C   UNL     1       2.737   2.694  21.341  0.00  0.00    +0.000 C 
ATOM     10  C   UNL     1       2.325   4.166  21.368  0.00  0.00    +0.000 C 
ATOM     11  N   UNL     1       2.810   4.660  20.104  0.00  0.00    +0.000 N 
ATOM     12  C   UNL     1       2.618   5.937  19.654  0.00  0.00    +0.000 A 
ATOM     13  N   UNL     1       1.822   6.725  20.402  0.00  0.00    +0.000 NA
ATOM     14  C   UNL     1       1.510   7.941  19.992  0.00  0.00    +0.000 A 
ATOM     15  N   UNL     1       0.641   8.602  20.755  0.00  0.00    +0.000 NA
ATOM     16  C   UNL     1       0.250   9.838  20.388  0.00  0.00    +0.000 A 
ATOM     17  C   UNL     1       0.751  10.504  19.292  0.00  0.00    +0.000 A 
ATOM     18  C   UNL     1       1.634   9.796  18.472  0.00  0.00    +0.000 A 
ATOM     19  C   UNL     1       2.035   8.481  18.810  0.00  0.00    +0.000 A 
ATOM     20  C   UNL     1       2.891   7.653  18.030  0.00  0.00    +0.000 A 
ATOM     21  C   UNL     1       3.186   6.342  18.433  0.00  0.00    +0.000 A 
ENDROOT
BRANCH  17  22
ATOM     22  C   UNL     1       0.329  11.877  18.974  0.00  0.00    +0.000 C 
ATOM     23  O   UNL     1       0.611  12.803  19.718  0.00  0.00    +0.000 OA
BRANCH  22  24
ATOM     24  O   UNL     1      -0.417  12.024  17.861  0.00  0.00    +0.000 OA
ATOM     25  H   UNL     1       0.001  12.447  17.087  0.00  0.00    +0.000 HD
ENDBRANCH  22  24
ENDBRANCH  17  22
BRANCH  18  26
ATOM     26  O   UNL     1       2.129  10.343  17.311  0.00  0.00    +0.000 OA
ATOM     27  H   UNL     1       2.854   9.775  16.961  0.00  0.00    +0.000 HD
ENDBRANCH  18  26
TORSDOF 3
ENDMDL
MODEL 2
REMARK VINA RESULT:      -8.1      1.877      3.640
REMARK  Name = 
REMARK  4 active torsions:
REMARK  status: ('A' for Active; 'I' for Inactive)
REMARK    1  A    between atoms: C_1  and  C_2
REMARK    2  A    between atoms: C_17  and  C_18
REMARK    3  A    between atoms: C_18  and  O_20
REMARK    4  A    between atoms: C_21  and  O_22
REMARK                            x       y       z     vdW  Elec       q    Type
REMARK                         _______ _______ _______ _____ _____    ______ ____
ROOT
ATOM      1  C   UNL     1       3.174   2.630  21.114  0.00  0.00    +0.000 C 
ATOM      2  C   UNL     1       2.526   3.898  20.595  0.00  0.00    +0.000 C 
ATOM      3  O   UNL     1       1.374   4.151  20.961  0.00  0.00    +0.000 OA
ATOM      4  N   UNL     1       3.230   4.643  19.648  0.00  0.00    +0.000 N 
ATOM      5  C   UNL     1       4.244   4.032  18.876  0.00  0.00    +0.000 C 
ATOM      6  O   UNL     1       5.059   3.215  19.302  0.00  0.00    +0.000 OA
ATOM      7  C   UNL     1       4.236   4.469  17.412  0.00  0.00    +0.000 C 
ATOM      8  C   UNL     1       5.458   4.078  16.581  0.00  0.00    +0.000 C 
ATOM      9  C   UNL     1       5.809   5.312  15.738  0.00  0.00    +0.000 C 
ATOM     10  C   UNL     1       4.835   6.418  16.142  0.00  0.00    +0.000 C 
ATOM     11  N   UNL     1       4.251   5.907  17.356  0.00  0.00    +0.000 N 
ATOM     12  C   UNL     1       3.348   6.591  18.122  0.00  0.00    +0.000 A 
ATOM     13  N   UNL     1       3.097   7.864  17.761  0.00  0.00    +0.000 NA
ATOM     14  C   UNL     1       2.308   8.624  18.499  0.00  0.00    +0.000 A 
ATOM     15  N   UNL     1       2.201   9.894  18.110  0.00  0.00    +0.000 NA
ATOM     16  C   UNL     1       1.438  10.740  18.828  0.00  0.00    +0.000 A 
ATOM     17  C   UNL     1       0.691  10.358  19.920  0.00  0.00    +0.000 A 
ATOM     18  C   UNL     1       0.833   9.035  20.350  0.00  0.00    +0.000 A 
ATOM     19  C   UNL     1       1.658   8.130  19.638  0.00  0.00    +0.000 A 
ATOM     20  C   UNL     1       1.910   6.779  20.007  0.00  0.00    +0.000 A 
ATOM     21  C   UNL     1       2.786   5.980  19.257  0.00  0.00    +0.000 A 
ENDROOT
BRANCH  17  22
ATOM     22  C   UNL     1      -0.169  11.315  20.631  0.00  0.00    +0.000 C 
ATOM     23  O   UNL     1      -1.122  11.832  20.068  0.00  0.00    +0.000 OA
BRANCH  22  24
ATOM     24  O   UNL     1       0.193  11.613  21.894  0.00  0.00    +0.000 OA
ATOM     25  H   UNL     1      -0.517  11.757  22.548  0.00  0.00    +0.000 HD
ENDBRANCH  22  24
ENDBRANCH  17  22
BRANCH  18  26
ATOM     26  O   UNL     1       0.193   8.574  21.476  0.00  0.00    +0.000 OA
ATOM     27  H   UNL     1      -0.721   8.940  21.510  0.00  0.00    +0.000 HD
ENDBRANCH  18  26
TORSDOF 3
ENDMDL
MODEL 3
REMARK VINA RESULT:      -7.3      2.276      6.358
REMARK  Name = 
REMARK  4 active torsions:
REMARK  status: ('A' for Active; 'I' for Inactive)
REMARK    1  A    between atoms: C_1  and  C_2
REMARK    2  A    between atoms: C_17  and  C_18
REMARK    3  A    between atoms: C_18  and  O_20
REMARK    4  A    between atoms: C_21  and  O_22
REMARK                            x       y       z     vdW  Elec       q    Type
REMARK                         _______ _______ _______ _____ _____    ______ ____
ROOT
ATOM      1  C   UNL     1       1.590   8.873  19.644  0.00  0.00    +0.000 C 
ATOM      2  C   UNL     1       2.168   7.960  18.581  0.00  0.00    +0.000 C 
ATOM      3  O   UNL     1       2.227   8.385  17.423  0.00  0.00    +0.000 OA
ATOM      4  N   UNL     1       2.493   6.656  18.956  0.00  0.00    +0.000 N 
ATOM      5  C   UNL     1       1.896   6.077  20.099  0.00  0.00    +0.000 C 
ATOM      6  O   UNL     1       1.685   6.665  21.159  0.00  0.00    +0.000 OA
ATOM      7  C   UNL     1       1.502   4.614  19.901  0.00  0.00    +0.000 C 
ATOM      8  C   UNL     1       1.114   3.840  21.161  0.00  0.00    +0.000 C 
ATOM      9  C   UNL     1       1.787   2.465  21.037  0.00  0.00    +0.000 C 
ATOM     10  C   UNL     1       2.609   2.487  19.749  0.00  0.00    +0.000 C 
ATOM     11  N   UNL     1       2.645   3.888  19.412  0.00  0.00    +0.000 N 
ATOM     12  C   UNL     1       3.330   4.405  18.348  0.00  0.00    +0.000 A 
ATOM     13  N   UNL     1       4.106   3.546  17.659  0.00  0.00    +0.000 NA
ATOM     14  C   UNL     1       4.871   3.981  16.674  0.00  0.00    +0.000 A 
ATOM     15  N   UNL     1       5.672   3.071  16.121  0.00  0.00    +0.000 NA
ATOM     16  C   UNL     1       6.505   3.443  15.129  0.00  0.00    +0.000 A 
ATOM     17  C   UNL     1       6.535   4.711  14.592  0.00  0.00    +0.000 A 
ATOM     18  C   UNL     1       5.722   5.673  15.197  0.00  0.00    +0.000 A 
ATOM     19  C   UNL     1       4.864   5.322  16.266  0.00  0.00    +0.000 A 
ATOM     20  C   UNL     1       4.028   6.223  16.984  0.00  0.00    +0.000 A 
ATOM     21  C   UNL     1       3.250   5.779  18.064  0.00  0.00    +0.000 A 
ENDROOT
BRANCH  17  22
ATOM     22  C   UNL     1       7.426   5.043  13.470  0.00  0.00    +0.000 C 
ATOM     23  O   UNL     1       8.360   5.815  13.625  0.00  0.00    +0.000 OA
BRANCH  22  24
ATOM     24  O   UNL     1       7.113   4.492  12.281  0.00  0.00    +0.000 OA
ATOM     25  H   UNL     1       6.466   3.761  12.275  0.00  0.00    +0.000 HD
ENDBRANCH  22  24
ENDBRANCH  17  22
BRANCH  18  26
ATOM     26  O   UNL     1       5.738   6.986  14.787  0.00  0.00    +0.000 OA
ATOM     27  H   UNL     1       4.916   7.184  14.282  0.00  0.00    +0.000 HD
ENDBRANCH  18  26
TORSDOF 3
ENDMDL
MODEL 4
REMARK VINA RESULT:      -7.1      1.739      6.694
REMARK  Name = 
REMARK  4 active torsions:
REMARK  status: ('A' for Active; 'I' for Inactive)
REMARK    1  A    between atoms: C_1  and  C_2
REMARK    2  A    between atoms: C_17  and  C_18
REMARK    3  A    between atoms: C_18  and  O_20
REMARK    4  A    between atoms: C_21  and  O_22
REMARK                            x       y       z     vdW  Elec       q    Type
REMARK                         _______ _______ _______ _____ _____    ______ ____
ROOT
ATOM      1  C   UNL     1       2.259  12.230  17.990  0.00  0.00    +0.000 C 
ATOM      2  C   UNL     1       2.077  10.733  18.134  0.00  0.00    +0.000 C 
ATOM      3  O   UNL     1       2.205  10.034  17.124  0.00  0.00    +0.000 OA
ATOM      4  N   UNL     1       1.666  10.248  19.377  0.00  0.00    +0.000 N 
ATOM      5  C   UNL     1       1.011  11.104  20.290  0.00  0.00    +0.000 C 
ATOM      6  O   UNL     1       1.311  12.280  20.496  0.00  0.00    +0.000 OA
ATOM      7  C   UNL     1      -0.156  10.436  21.017  0.00  0.00    +0.000 C 
ATOM      8  C   UNL     1      -0.734  11.193  22.212  0.00  0.00    +0.000 C 
ATOM      9  C   UNL     1      -0.968  10.142  23.307  0.00  0.00    +0.000 C 
ATOM     10  C   UNL     1      -0.458   8.809  22.759  0.00  0.00    +0.000 C 
ATOM     11  N   UNL     1       0.307   9.205  21.603  0.00  0.00    +0.000 N 
ATOM     12  C   UNL     1       1.010   8.339  20.814  0.00  0.00    +0.000 A 
ATOM     13  N   UNL     1       1.072   7.060  21.232  0.00  0.00    +0.000 NA
ATOM     14  C   UNL     1       1.807   6.178  20.577  0.00  0.00    +0.000 A 
ATOM     15  N   UNL     1       1.878   4.966  21.126  0.00  0.00    +0.000 NA
ATOM     16  C   UNL     1       2.632   4.020  20.534  0.00  0.00    +0.000 A 
ATOM     17  C   UNL     1       3.291   4.204  19.339  0.00  0.00    +0.000 A 
ATOM     18  C   UNL     1       3.246   5.486  18.784  0.00  0.00    +0.000 A 
ATOM     19  C   UNL     1       2.494   6.513  19.402  0.00  0.00    +0.000 A 
ATOM     20  C   UNL     1       2.411   7.861  18.953  0.00  0.00    +0.000 A 
ATOM     21  C   UNL     1       1.675   8.815  19.670  0.00  0.00    +0.000 A 
ENDROOT
BRANCH  17  22
ATOM     22  C   UNL     1       4.053   3.113  18.711  0.00  0.00    +0.000 C 
ATOM     23  O   UNL     1       3.856   2.808  17.545  0.00  0.00    +0.000 OA
BRANCH  22  24
ATOM     24  O   UNL     1       4.920   2.460  19.510  0.00  0.00    +0.000 OA
ATOM     25  H   UNL     1       5.816   2.833  19.609  0.00  0.00    +0.000 HD
ENDBRANCH  22  24
ENDBRANCH  17  22
BRANCH  18  26
ATOM     26  O   UNL     1       3.936   5.795  17.635  0.00  0.00    +0.000 OA
ATOM     27  H   UNL     1       4.394   6.659  17.747  0.00  0.00    +0.000 HD
ENDBRANCH  18  26
TORSDOF 3
ENDMDL
MODEL 5
REMARK VINA RESULT:      -7.0      3.191      6.655
REMARK  Name = 
REMARK  4 active torsions:
REMARK  status: ('A' for Active; 'I' for Inactive)
REMARK    1  A    between atoms: C_1  and  C_2
REMARK    2  A    between atoms: C_17  and  C_18
REMARK    3  A    between atoms: C_18  and  O_20
REMARK    4  A    between atoms: C_21  and  O_22
REMARK                            x       y       z     vdW  Elec       q    Type
REMARK                         _______ _______ _______ _____ _____    ______ ____
ROOT
ATOM      1  C   UNL     1       2.000   2.200  21.106  0.00  0.00    +0.000 C 
ATOM      2  C   UNL     1       2.981   2.901  20.188  0.00  0.00    +0.000 C 
ATOM      3  O   UNL     1       4.058   2.341  19.956  0.00  0.00    +0.000 OA
ATOM      4  N   UNL     1       2.655   4.185  19.752  0.00  0.00    +0.000 N 
ATOM      5  C   UNL     1       1.725   4.965  20.477  0.00  0.00    +0.000 C 
ATOM      6  O   UNL     1       0.692   4.536  20.991  0.00  0.00    +0.000 OA
ATOM      7  C   UNL     1       2.127   6.435  20.593  0.00  0.00    +0.000 C 
ATOM      8  C   UNL     1       1.054   7.393  21.110  0.00  0.00    +0.000 C 
ATOM      9  C   UNL     1       1.141   8.644  20.224  0.00  0.00    +0.000 C 
ATOM     10  C   UNL     1       2.209   8.366  19.166  0.00  0.00    +0.000 C 
ATOM     11  N   UNL     1       2.411   6.943  19.276  0.00  0.00    +0.000 N 
ATOM     12  C   UNL     1       3.250   6.222  18.473  0.00  0.00    +0.000 A 
ATOM     13  N   UNL     1       3.819   6.886  17.449  0.00  0.00    +0.000 NA
ATOM     14  C   UNL     1       4.570   6.244  16.572  0.00  0.00    +0.000 A 
ATOM     15  N   UNL     1       5.007   6.971  15.545  0.00  0.00    +0.000 NA
ATOM     16  C   UNL     1       5.754   6.381  14.592  0.00  0.00    +0.000 A 
ATOM     17  C   UNL     1       6.163   5.068  14.645  0.00  0.00    +0.000 A 
ATOM     18  C   UNL     1       5.674   4.297  15.703  0.00  0.00    +0.000 A 
ATOM     19  C   UNL     1       4.855   4.878  16.701  0.00  0.00    +0.000 A 
ATOM     20  C   UNL     1       4.267   4.183  17.794  0.00  0.00    +0.000 A 
ATOM     21  C   UNL     1       3.427   4.846  18.701  0.00  0.00    +0.000 A 
ENDROOT
BRANCH  17  22
ATOM     22  C   UNL     1       7.028   4.494  13.603  0.00  0.00    +0.000 C 
ATOM     23  O   UNL     1       7.949   5.143  13.132  0.00  0.00    +0.000 OA
BRANCH  22  24
ATOM     24  O   UNL     1       6.704   3.256  13.180  0.00  0.00    +0.000 OA
ATOM     25  H   UNL     1       7.336   2.535  13.360  0.00  0.00    +0.000 HD
ENDBRANCH  22  24
ENDBRANCH  17  22
BRANCH  18  26
ATOM     26  O   UNL     1       5.958   2.955  15.804  0.00  0.00    +0.000 OA
ATOM     27  H   UNL     1       6.866   2.836  16.167  0.00  0.00    +0.000 HD
ENDBRANCH  18  26
TORSDOF 3
ENDMDL
MODEL 6
REMARK VINA RESULT:      -6.7      3.054      8.400
REMARK  Name = 
REMARK  4 active torsions:
REMARK  status: ('A' for Active; 'I' for Inactive)
REMARK    1  A    between atoms: C_1  and  C_2
REMARK    2  A    between atoms: C_17  and  C_18
REMARK    3  A    between atoms: C_18  and  O_20
REMARK    4  A    between atoms: C_21  and  O_22
REMARK                            x       y       z     vdW  Elec       q    Type
REMARK                         _______ _______ _______ _____ _____    ______ ____
ROOT
ATOM      1  C   UNL     1      -2.407  11.707  23.713  0.00  0.00    +0.000 C 
ATOM      2  C   UNL     1      -1.227  11.141  22.949  0.00  0.00    +0.000 C 
ATOM      3  O   UNL     1      -0.514  10.309  23.520  0.00  0.00    +0.000 OA
ATOM      4  N   UNL     1      -0.955  11.676  21.690  0.00  0.00    +0.000 N 
ATOM      5  C   UNL     1      -1.434  12.961  21.347  0.00  0.00    +0.000 C 
ATOM      6  O   UNL     1      -2.543  13.403  21.643  0.00  0.00    +0.000 OA
ATOM      7  C   UNL     1      -0.420  13.797  20.567  0.00  0.00    +0.000 C 
ATOM      8  C   UNL     1      -0.950  15.076  19.920  0.00  0.00    +0.000 C 
ATOM      9  C   UNL     1      -0.327  15.131  18.518  0.00  0.00    +0.000 C 
ATOM     10  C   UNL     1       0.494  13.854  18.346  0.00  0.00    +0.000 C 
ATOM     11  N   UNL     1       0.045  13.031  19.441  0.00  0.00    +0.000 N 
ATOM     12  C   UNL     1       0.468  11.750  19.662  0.00  0.00    +0.000 A 
ATOM     13  N   UNL     1       1.261  11.207  18.719  0.00  0.00    +0.000 NA
ATOM     14  C   UNL     1       1.639   9.944  18.810  0.00  0.00    +0.000 A 
ATOM     15  N   UNL     1       2.341   9.477  17.779  0.00  0.00    +0.000 NA
ATOM     16  C   UNL     1       2.738   8.190  17.783  0.00  0.00    +0.000 A 
ATOM     17  C   UNL     1       2.523   7.326  18.833  0.00  0.00    +0.000 A 
ATOM     18  C   UNL     1       1.754   7.806  19.898  0.00  0.00    +0.000 A 
ATOM     19  C   UNL     1       1.290   9.144  19.906  0.00  0.00    +0.000 A 
ATOM     20  C   UNL     1       0.466   9.725  20.911  0.00  0.00    +0.000 A 
ATOM     21  C   UNL     1       0.019  11.050  20.796  0.00  0.00    +0.000 A 
ENDROOT
BRANCH  17  22
ATOM     22  C   UNL     1       3.031   5.946  18.805  0.00  0.00    +0.000 C 
ATOM     23  O   UNL     1       2.798   5.217  17.853  0.00  0.00    +0.000 OA
BRANCH  22  24
ATOM     24  O   UNL     1       3.707   5.542  19.898  0.00  0.00    +0.000 OA
ATOM     25  H   UNL     1       3.239   5.560  20.755  0.00  0.00    +0.000 HD
ENDBRANCH  22  24
ENDBRANCH  17  22
BRANCH  18  26
ATOM     26  O   UNL     1       1.415   7.000  20.959  0.00  0.00    +0.000 OA
ATOM     27  H   UNL     1       1.518   7.500  21.801  0.00  0.00    +0.000 HD
ENDBRANCH  18  26
TORSDOF 3
ENDMDL
MODEL 7
REMARK VINA RESULT:      -6.6      5.231      8.046
REMARK  Name = 
REMARK  4 active torsions:
REMARK  status: ('A' for Active; 'I' for Inactive)
REMARK    1  A    between atoms: C_1  and  C_2
REMARK    2  A    between atoms: C_17  and  C_18
REMARK    3  A    between atoms: C_18  and  O_20
REMARK    4  A    between atoms: C_21  and  O_22
REMARK                            x       y       z     vdW  Elec       q    Type
REMARK                         _______ _______ _______ _____ _____    ______ ____
ROOT
ATOM      1  C   UNL     1       1.403   9.262  22.072  0.00  0.00    +0.000 C 
ATOM      2  C   UNL     1       0.691   9.842  20.866  0.00  0.00    +0.000 C 
ATOM      3  O   UNL     1       1.231   9.721  19.762  0.00  0.00    +0.000 OA
ATOM      4  N   UNL     1      -0.475  10.574  21.093  0.00  0.00    +0.000 N 
ATOM      5  C   UNL     1      -0.720  11.139  22.365  0.00  0.00    +0.000 C 
ATOM      6  O   UNL     1      -0.480  10.591  23.440  0.00  0.00    +0.000 OA
ATOM      7  C   UNL     1      -1.314  12.546  22.298  0.00  0.00    +0.000 C 
ATOM      8  C   UNL     1      -1.866  13.112  23.606  0.00  0.00    +0.000 C 
ATOM      9  C   UNL     1      -3.194  13.794  23.246  0.00  0.00    +0.000 C 
ATOM     10  C   UNL     1      -3.427  13.553  21.754  0.00  0.00    +0.000 C 
ATOM     11  N   UNL     1      -2.470  12.521  21.440  0.00  0.00    +0.000 N 
ATOM     12  C   UNL     1      -2.349  11.934  20.212  0.00  0.00    +0.000 A 
ATOM     13  N   UNL     1      -3.270  12.274  19.290  0.00  0.00    +0.000 NA
ATOM     14  C   UNL     1      -3.281  11.685  18.108  0.00  0.00    +0.000 A 
ATOM     15  N   UNL     1      -4.289  12.021  17.305  0.00  0.00    +0.000 NA
ATOM     16  C   UNL     1      -4.387  11.441  16.093  0.00  0.00    +0.000 A 
ATOM     17  C   UNL     1      -3.457  10.558  15.591  0.00  0.00    +0.000 A 
ATOM     18  C   UNL     1      -2.420  10.178  16.447  0.00  0.00    +0.000 A 
ATOM     19  C   UNL     1      -2.312  10.741  17.742  0.00  0.00    +0.000 A 
ATOM     20  C   UNL     1      -1.328  10.397  18.711  0.00  0.00    +0.000 A 
ATOM     21  C   UNL     1      -1.340  10.981  19.987  0.00  0.00    +0.000 A 
ENDROOT
BRANCH  17  22
ATOM     22  C   UNL     1      -3.587  10.001  14.236  0.00  0.00    +0.000 C 
ATOM     23  O   UNL     1      -2.609   9.895  13.511  0.00  0.00    +0.000 OA
BRANCH  22  24
ATOM     24  O   UNL     1      -4.835   9.677  13.845  0.00  0.00    +0.000 OA
ATOM     25  H   UNL     1      -5.550  10.313  14.035  0.00  0.00    +0.000 HD
ENDBRANCH  22  24
ENDBRANCH  17  22
BRANCH  18  26
ATOM     26  O   UNL     1      -1.485   9.242  16.071  0.00  0.00    +0.000 OA
ATOM     27  H   UNL     1      -0.591   9.653  16.063  0.00  0.00    +0.000 HD
ENDBRANCH  18  26
TORSDOF 3
ENDMDL
MODEL 8
REMARK VINA RESULT:      -6.4      7.278     10.870
REMARK  Name = 
REMARK  4 active torsions:
REMARK  status: ('A' for Active; 'I' for Inactive)
REMARK    1  A    between atoms: C_1  and  C_2
REMARK    2  A    between atoms: C_17  and  C_18
REMARK    3  A    between atoms: C_18  and  O_20
REMARK    4  A    between atoms: C_21  and  O_22
REMARK                            x       y       z     vdW  Elec       q    Type
REMARK                         _______ _______ _______ _____ _____    ______ ____
ROOT
ATOM      1  C   UNL     1      -7.860  14.268  23.189  0.00  0.00    +0.000 C 
ATOM      2  C   UNL     1      -6.826  13.472  22.419  0.00  0.00    +0.000 C 
ATOM      3  O   UNL     1      -7.209  12.479  21.792  0.00  0.00    +0.000 OA
ATOM      4  N   UNL     1      -5.488  13.843  22.558  0.00  0.00    +0.000 N 
ATOM      5  C   UNL     1      -5.073  14.588  23.685  0.00  0.00    +0.000 C 
ATOM      6  O   UNL     1      -5.709  15.509  24.197  0.00  0.00    +0.000 OA
ATOM      7  C   UNL     1      -3.728  14.131  24.250  0.00  0.00    +0.000 C 
ATOM      8  C   UNL     1      -3.078  15.053  25.282  0.00  0.00    +0.000 C 
ATOM      9  C   UNL     1      -1.588  15.111  24.919  0.00  0.00    +0.000 C 
ATOM     10  C   UNL     1      -1.408  14.284  23.645  0.00  0.00    +0.000 C 
ATOM     11  N   UNL     1      -2.762  14.103  23.184  0.00  0.00    +0.000 N 
ATOM     12  C   UNL     1      -3.099  13.461  22.025  0.00  0.00    +0.000 A 
ATOM     13  N   UNL     1      -2.080  13.090  21.226  0.00  0.00    +0.000 NA
ATOM     14  C   UNL     1      -2.321  12.547  20.046  0.00  0.00    +0.000 A 
ATOM     15  N   UNL     1      -1.249  12.305  19.293  0.00  0.00    +0.000 NA
ATOM     16  C   UNL     1      -1.414  11.779  18.063  0.00  0.00    +0.000 A 
ATOM     17  C   UNL     1      -2.635  11.403  17.550  0.00  0.00    +0.000 A 
ATOM     18  C   UNL     1      -3.762  11.691  18.325  0.00  0.00    +0.000 A 
ATOM     19  C   UNL     1      -3.624  12.279  19.606  0.00  0.00    +0.000 A 
ATOM     20  C   UNL     1      -4.699  12.655  20.461  0.00  0.00    +0.000 A 
ATOM     21  C   UNL     1      -4.453  13.279  21.693  0.00  0.00    +0.000 A 
ENDROOT
BRANCH  17  22
ATOM     22  C   UNL     1      -2.746  10.780  16.222  0.00  0.00    +0.000 C 
ATOM     23  O   UNL     1      -2.306   9.659  16.023  0.00  0.00    +0.000 OA
BRANCH  22  24
ATOM     24  O   UNL     1      -3.306  11.537  15.258  0.00  0.00    +0.000 OA
ATOM     25  H   UNL     1      -2.724  11.877  14.552  0.00  0.00    +0.000 HD
ENDBRANCH  22  24
ENDBRANCH  17  22
BRANCH  18  26
ATOM     26  O   UNL     1      -5.033  11.429  17.869  0.00  0.00    +0.000 OA
ATOM     27  H   UNL     1      -5.026  11.372  16.886  0.00  0.00    +0.000 HD
ENDBRANCH  18  26
TORSDOF 3
ENDMDL
MODEL 9
REMARK VINA RESULT:      -6.4      5.003      9.801
REMARK  Name = 
REMARK  4 active torsions:
REMARK  status: ('A' for Active; 'I' for Inactive)
REMARK    1  A    between atoms: C_1  and  C_2
REMARK    2  A    between atoms: C_17  and  C_18
REMARK    3  A    between atoms: C_18  and  O_20
REMARK    4  A    between atoms: C_21  and  O_22
REMARK                            x       y       z     vdW  Elec       q    Type
REMARK                         _______ _______ _______ _____ _____    ______ ____
ROOT
ATOM      1  C   UNL     1      -6.993  13.039  17.173  0.00  0.00    +0.000 C 
ATOM      2  C   UNL     1      -5.809  12.306  17.770  0.00  0.00    +0.000 C 
ATOM      3  O   UNL     1      -5.498  11.215  17.282  0.00  0.00    +0.000 OA
ATOM      4  N   UNL     1      -5.212  12.857  18.904  0.00  0.00    +0.000 N 
ATOM      5  C   UNL     1      -5.934  13.758  19.719  0.00  0.00    +0.000 C 
ATOM      6  O   UNL     1      -6.687  14.638  19.302  0.00  0.00    +0.000 OA
ATOM      7  C   UNL     1      -5.712  13.535  21.214  0.00  0.00    +0.000 C 
ATOM      8  C   UNL     1      -6.226  14.631  22.147  0.00  0.00    +0.000 C 
ATOM      9  C   UNL     1      -5.128  14.840  23.200  0.00  0.00    +0.000 C 
ATOM     10  C   UNL     1      -3.969  13.918  22.822  0.00  0.00    +0.000 C 
ATOM     11  N   UNL     1      -4.296  13.521  21.476  0.00  0.00    +0.000 N 
ATOM     12  C   UNL     1      -3.504  12.728  20.695  0.00  0.00    +0.000 A 
ATOM     13  N   UNL     1      -2.294  12.409  21.194  0.00  0.00    +0.000 NA
ATOM     14  C   UNL     1      -1.431  11.723  20.467  0.00  0.00    +0.000 A 
ATOM     15  N   UNL     1      -0.229  11.544  21.014  0.00  0.00    +0.000 NA
ATOM     16  C   UNL     1       0.716  10.879  20.322  0.00  0.00    +0.000 A 
ATOM     17  C   UNL     1       0.499  10.302  19.091  0.00  0.00    +0.000 A 
ATOM     18  C   UNL     1      -0.749  10.523  18.502  0.00  0.00    +0.000 A 
ATOM     19  C   UNL     1      -1.752  11.250  19.188  0.00  0.00    +0.000 A 
ATOM     20  C   UNL     1      -3.038  11.572  18.669  0.00  0.00    +0.000 A 
ATOM     21  C   UNL     1      -3.941  12.343  19.415  0.00  0.00    +0.000 A 
ENDROOT
BRANCH  17  22
ATOM     22  C   UNL     1       1.555   9.539  18.409  0.00  0.00    +0.000 C 
ATOM     23  O   UNL     1       1.943   8.473  18.861  0.00  0.00    +0.000 OA
BRANCH  22  24
ATOM     24  O   UNL     1       2.084  10.111  17.310  0.00  0.00    +0.000 OA
ATOM     25  H   UNL     1       2.946   9.780  16.995  0.00  0.00    +0.000 HD
ENDBRANCH  22  24
ENDBRANCH  17  22
BRANCH  18  26
ATOM     26  O   UNL     1      -1.039  10.057  17.241  0.00  0.00    +0.000 OA
ATOM     27  H   UNL     1      -0.674   9.149  17.132  0.00  0.00    +0.000 HD
ENDBRANCH  18  26
TORSDOF 3
ENDMDL
