MODEL 1
REMARK VINA RESULT:      -5.6      0.000      0.000
REMARK  Name = 
REMARK  2 active torsions:
REMARK  status: ('A' for Active; 'I' for Inactive)
REMARK    1  A    between atoms: C_2  and  C_3
REMARK    2  A    between atoms: C_9  and  C_11
REMARK                            x       y       z     vdW  Elec       q    Type
REMARK                         _______ _______ _______ _____ _____    ______ ____
ROOT
ATOM      1  O   UNL     1       1.129  13.336  21.656  0.00  0.00    +0.000 OA
ATOM      2  C   UNL     1       0.525  12.578  20.895  0.00  0.00    +0.000 C 
ATOM      3  N   UNL     1       0.036  13.014  19.652  0.00  0.00    +0.000 N 
ATOM      4  C   UNL     1       0.480  14.206  19.038  0.00  0.00    +0.000 C 
ATOM      5  O   UNL     1      -0.312  14.939  18.432  0.00  0.00    +0.000 OA
ATOM      6  C   UNL     1      -1.284  12.633  19.287  0.00  0.00    +0.000 A 
ATOM      7  C   UNL     1      -2.327  12.761  20.211  0.00  0.00    +0.000 A 
ATOM      8  C   UNL     1      -3.599  12.304  19.871  0.00  0.00    +0.000 A 
ATOM      9  C   UNL     1      -3.792  11.725  18.625  0.00  0.00    +0.000 A 
ATOM     10 BR   UNL     1      -5.480  11.044  18.137  0.00  0.00    +0.000 Br
ATOM     11  C   UNL     1      -2.715  11.654  17.755  0.00  0.00    +0.000 A 
ATOM     12  N   UNL     1      -1.472  12.103  18.054  0.00  0.00    +0.000 NA
ENDROOT
BRANCH   2  13
ATOM     13  C   UNL     1       0.227  11.205  21.341  0.00  0.00    +0.000 A 
ATOM     14  C   UNL     1      -0.362  10.857  22.548  0.00  0.00    +0.000 A 
ATOM     15  C   UNL     1      -0.610   9.461  22.659  0.00  0.00    +0.000 A 
ATOM     16  C   UNL     1      -0.145   8.769  21.563  0.00  0.00    +0.000 A 
ATOM     17  S   UNL     1       0.655   9.797  20.458  0.00  0.00    +0.000 S 
ENDBRANCH   2  13
BRANCH   4  18
ATOM     18  C   UNL     1       1.880  14.604  19.217  0.00  0.00    +0.000 A 
ATOM     19  C   UNL     1       3.061  13.980  18.852  0.00  0.00    +0.000 A 
ATOM     20  C   UNL     1       4.217  14.684  19.311  0.00  0.00    +0.000 A 
ATOM     21  C   UNL     1       3.888  15.851  19.961  0.00  0.00    +0.000 A 
ATOM     22  S   UNL     1       2.202  16.101  20.007  0.00  0.00    +0.000 S 
ENDBRANCH   4  18
TORSDOF 2
ENDMDL
MODEL 2
REMARK VINA RESULT:      -5.5      9.219     11.353
REMARK  Name = 
REMARK  2 active torsions:
REMARK  status: ('A' for Active; 'I' for Inactive)
REMARK    1  A    between atoms: C_2  and  C_3
REMARK    2  A    between atoms: C_9  and  C_11
REMARK                            x       y       z     vdW  Elec       q    Type
REMARK                         _______ _______ _______ _____ _____    ______ ____
ROOT
ATOM      1  O   UNL     1       5.920   4.379  19.868  0.00  0.00    +0.000 OA
ATOM      2  C   UNL     1       5.763   4.904  18.764  0.00  0.00    +0.000 C 
ATOM      3  N   UNL     1       4.943   4.325  17.781  0.00  0.00    +0.000 N 
ATOM      4  C   UNL     1       3.992   3.325  18.079  0.00  0.00    +0.000 C 
ATOM      5  O   UNL     1       3.808   2.375  17.307  0.00  0.00    +0.000 OA
ATOM      6  C   UNL     1       5.438   4.272  16.450  0.00  0.00    +0.000 A 
ATOM      7  C   UNL     1       6.747   3.836  16.209  0.00  0.00    +0.000 A 
ATOM      8  C   UNL     1       7.249   3.871  14.910  0.00  0.00    +0.000 A 
ATOM      9  C   UNL     1       6.437   4.348  13.891  0.00  0.00    +0.000 A 
ATOM     10 BR   UNL     1       7.087   4.465  12.126  0.00  0.00    +0.000 Br
ATOM     11  C   UNL     1       5.146   4.742  14.203  0.00  0.00    +0.000 A 
ATOM     12  N   UNL     1       4.627   4.705  15.455  0.00  0.00    +0.000 NA
ENDROOT
BRANCH   2  13
ATOM     13  C   UNL     1       6.527   6.121  18.435  0.00  0.00    +0.000 A 
ATOM     14  C   UNL     1       7.795   6.431  18.905  0.00  0.00    +0.000 A 
ATOM     15  C   UNL     1       8.317   7.628  18.340  0.00  0.00    +0.000 A 
ATOM     16  C   UNL     1       7.408   8.237  17.504  0.00  0.00    +0.000 A 
ATOM     17  S   UNL     1       5.916   7.405  17.475  0.00  0.00    +0.000 S 
ENDBRANCH   2  13
BRANCH   4  18
ATOM     18  C   UNL     1       3.298   3.384  19.370  0.00  0.00    +0.000 A 
ATOM     19  C   UNL     1       3.344   2.547  20.472  0.00  0.00    +0.000 A 
ATOM     20  C   UNL     1       2.423   2.934  21.493  0.00  0.00    +0.000 A 
ATOM     21  C   UNL     1       1.742   4.084  21.167  0.00  0.00    +0.000 A 
ATOM     22  S   UNL     1       2.218   4.698  19.650  0.00  0.00    +0.000 S 
ENDBRANCH   4  18
TORSDOF 2
ENDMDL
MODEL 3
REMARK VINA RESULT:      -5.5      0.989      1.250
REMARK  Name = 
REMARK  2 active torsions:
REMARK  status: ('A' for Active; 'I' for Inactive)
REMARK    1  A    between atoms: C_2  and  C_3
REMARK    2  A    between atoms: C_9  and  C_11
REMARK                            x       y       z     vdW  Elec       q    Type
REMARK                         _______ _______ _______ _____ _____    ______ ____
ROOT
ATOM      1  O   UNL     1       1.027  13.435  21.700  0.00  0.00    +0.000 OA
ATOM      2  C   UNL     1       0.449  12.663  20.932  0.00  0.00    +0.000 C 
ATOM      3  N   UNL     1      -0.021  13.083  19.677  0.00  0.00    +0.000 N 
ATOM      4  C   UNL     1       0.417  14.277  19.064  0.00  0.00    +0.000 C 
ATOM      5  O   UNL     1      -0.373  14.995  18.437  0.00  0.00    +0.000 OA
ATOM      6  C   UNL     1      -1.328  12.681  19.288  0.00  0.00    +0.000 A 
ATOM      7  C   UNL     1      -2.391  12.800  20.191  0.00  0.00    +0.000 A 
ATOM      8  C   UNL     1      -3.649  12.322  19.829  0.00  0.00    +0.000 A 
ATOM      9  C   UNL     1      -3.809  11.732  18.583  0.00  0.00    +0.000 A 
ATOM     10 BR   UNL     1      -5.477  11.024  18.067  0.00  0.00    +0.000 Br
ATOM     11  C   UNL     1      -2.714  11.671  17.736  0.00  0.00    +0.000 A 
ATOM     12  N   UNL     1      -1.484  12.140  18.056  0.00  0.00    +0.000 NA
ENDROOT
BRANCH   2  13
ATOM     13  C   UNL     1       0.163  11.288  21.382  0.00  0.00    +0.000 A 
ATOM     14  C   UNL     1       0.547  10.127  20.727  0.00  0.00    +0.000 A 
ATOM     15  C   UNL     1       0.210   8.948  21.449  0.00  0.00    +0.000 A 
ATOM     16  C   UNL     1      -0.482   9.236  22.604  0.00  0.00    +0.000 A 
ATOM     17  S   UNL     1      -0.786  10.910  22.760  0.00  0.00    +0.000 S 
ENDBRANCH   2  13
BRANCH   4  18
ATOM     18  C   UNL     1       1.808  14.697  19.268  0.00  0.00    +0.000 A 
ATOM     19  C   UNL     1       2.347  15.766  19.963  0.00  0.00    +0.000 A 
ATOM     20  C   UNL     1       3.767  15.851  19.823  0.00  0.00    +0.000 A 
ATOM     21  C   UNL     1       4.275  14.816  19.073  0.00  0.00    +0.000 A 
ATOM     22  S   UNL     1       3.055  13.744  18.554  0.00  0.00    +0.000 S 
ENDBRANCH   4  18
TORSDOF 2
ENDMDL
MODEL 4
REMARK VINA RESULT:      -5.3      6.919      8.410
REMARK  Name = 
REMARK  2 active torsions:
REMARK  status: ('A' for Active; 'I' for Inactive)
REMARK    1  A    between atoms: C_2  and  C_3
REMARK    2  A    between atoms: C_9  and  C_11
REMARK                            x       y       z     vdW  Elec       q    Type
REMARK                         _______ _______ _______ _____ _____    ______ ____
ROOT
ATOM      1  O   UNL     1       4.751   4.286  18.686  0.00  0.00    +0.000 OA
ATOM      2  C   UNL     1       3.671   4.853  18.514  0.00  0.00    +0.000 C 
ATOM      3  N   UNL     1       3.591   6.130  17.933  0.00  0.00    +0.000 N 
ATOM      4  C   UNL     1       4.658   6.700  17.205  0.00  0.00    +0.000 C 
ATOM      5  O   UNL     1       4.920   7.906  17.306  0.00  0.00    +0.000 OA
ATOM      6  C   UNL     1       2.733   7.085  18.543  0.00  0.00    +0.000 A 
ATOM      7  C   UNL     1       2.762   7.261  19.932  0.00  0.00    +0.000 A 
ATOM      8  C   UNL     1       1.856   8.137  20.526  0.00  0.00    +0.000 A 
ATOM      9  C   UNL     1       0.942   8.804  19.723  0.00  0.00    +0.000 A 
ATOM     10 BR   UNL     1      -0.338   9.959  20.484  0.00  0.00    +0.000 Br
ATOM     11  C   UNL     1       0.989   8.594  18.354  0.00  0.00    +0.000 A 
ATOM     12  N   UNL     1       1.869   7.759  17.747  0.00  0.00    +0.000 NA
ENDROOT
BRANCH   2  13
ATOM     13  C   UNL     1       2.440   4.215  19.015  0.00  0.00    +0.000 A 
ATOM     14  C   UNL     1       1.384   3.771  18.233  0.00  0.00    +0.000 A 
ATOM     15  C   UNL     1       0.375   3.112  18.989  0.00  0.00    +0.000 A 
ATOM     16  C   UNL     1       0.654   3.127  20.338  0.00  0.00    +0.000 A 
ATOM     17  S   UNL     1       2.080   4.003  20.679  0.00  0.00    +0.000 S 
ENDBRANCH   2  13
BRANCH   4  18
ATOM     18  C   UNL     1       5.509   5.814  16.404  0.00  0.00    +0.000 A 
ATOM     19  C   UNL     1       5.237   5.064  15.273  0.00  0.00    +0.000 A 
ATOM     20  C   UNL     1       6.348   4.261  14.867  0.00  0.00    +0.000 A 
ATOM     21  C   UNL     1       7.450   4.463  15.665  0.00  0.00    +0.000 A 
ATOM     22  S   UNL     1       7.153   5.619  16.882  0.00  0.00    +0.000 S 
ENDBRANCH   4  18
TORSDOF 2
ENDMDL
MODEL 5
REMARK VINA RESULT:      -5.1      2.415      3.479
REMARK  Name = 
REMARK  2 active torsions:
REMARK  status: ('A' for Active; 'I' for Inactive)
REMARK    1  A    between atoms: C_2  and  C_3
REMARK    2  A    between atoms: C_9  and  C_11
REMARK                            x       y       z     vdW  Elec       q    Type
REMARK                         _______ _______ _______ _____ _____    ______ ____
ROOT
ATOM      1  O   UNL     1       1.962  12.161  19.481  0.00  0.00    +0.000 OA
ATOM      2  C   UNL     1       0.816  12.535  19.737  0.00  0.00    +0.000 C 
ATOM      3  N   UNL     1       0.559  13.523  20.702  0.00  0.00    +0.000 N 
ATOM      4  C   UNL     1       1.565  14.386  21.190  0.00  0.00    +0.000 C 
ATOM      5  O   UNL     1       1.601  14.705  22.385  0.00  0.00    +0.000 OA
ATOM      6  C   UNL     1      -0.500  13.294  21.621  0.00  0.00    +0.000 A 
ATOM      7  C   UNL     1      -0.616  12.052  22.257  0.00  0.00    +0.000 A 
ATOM      8  C   UNL     1      -1.708  11.811  23.089  0.00  0.00    +0.000 A 
ATOM      9  C   UNL     1      -2.656  12.810  23.256  0.00  0.00    +0.000 A 
ATOM     10 BR   UNL     1      -4.178  12.515  24.328  0.00  0.00    +0.000 Br
ATOM     11  C   UNL     1      -2.462  14.021  22.610  0.00  0.00    +0.000 A 
ATOM     12  N   UNL     1      -1.403  14.287  21.807  0.00  0.00    +0.000 NA
ENDROOT
BRANCH   2  13
ATOM     13  C   UNL     1      -0.319  11.863  19.079  0.00  0.00    +0.000 A 
ATOM     14  C   UNL     1      -1.296  12.487  18.317  0.00  0.00    +0.000 A 
ATOM     15  C   UNL     1      -2.211  11.568  17.731  0.00  0.00    +0.000 A 
ATOM     16  C   UNL     1      -1.950  10.271  18.115  0.00  0.00    +0.000 A 
ATOM     17  S   UNL     1      -0.663  10.189  19.235  0.00  0.00    +0.000 S 
ENDBRANCH   2  13
BRANCH   4  18
ATOM     18  C   UNL     1       2.621  14.819  20.268  0.00  0.00    +0.000 A 
ATOM     19  C   UNL     1       3.989  14.604  20.281  0.00  0.00    +0.000 A 
ATOM     20  C   UNL     1       4.662  15.294  19.226  0.00  0.00    +0.000 A 
ATOM     21  C   UNL     1       3.785  15.967  18.406  0.00  0.00    +0.000 A 
ATOM     22  S   UNL     1       2.165  15.759  18.898  0.00  0.00    +0.000 S 
ENDBRANCH   4  18
TORSDOF 2
ENDMDL
MODEL 6
REMARK VINA RESULT:      -5.1      9.045     11.199
REMARK  Name = 
REMARK  2 active torsions:
REMARK  status: ('A' for Active; 'I' for Inactive)
REMARK    1  A    between atoms: C_2  and  C_3
REMARK    2  A    between atoms: C_9  and  C_11
REMARK                            x       y       z     vdW  Elec       q    Type
REMARK                         _______ _______ _______ _____ _____    ______ ____
ROOT
ATOM      1  O   UNL     1       5.404   4.432  19.729  0.00  0.00    +0.000 OA
ATOM      2  C   UNL     1       5.428   4.979  18.625  0.00  0.00    +0.000 C 
ATOM      3  N   UNL     1       4.604   4.550  17.570  0.00  0.00    +0.000 N 
ATOM      4  C   UNL     1       3.478   3.724  17.776  0.00  0.00    +0.000 C 
ATOM      5  O   UNL     1       3.200   2.821  16.976  0.00  0.00    +0.000 OA
ATOM      6  C   UNL     1       5.191   4.417  16.282  0.00  0.00    +0.000 A 
ATOM      7  C   UNL     1       6.422   3.765  16.140  0.00  0.00    +0.000 A 
ATOM      8  C   UNL     1       7.027   3.718  14.886  0.00  0.00    +0.000 A 
ATOM      9  C   UNL     1       6.393   4.328  13.812  0.00  0.00    +0.000 A 
ATOM     10 BR   UNL     1       7.195   4.337  12.107  0.00  0.00    +0.000 Br
ATOM     11  C   UNL     1       5.166   4.934  14.027  0.00  0.00    +0.000 A 
ATOM     12  N   UNL     1       4.548   4.983  15.233  0.00  0.00    +0.000 NA
ENDROOT
BRANCH   2  13
ATOM     13  C   UNL     1       6.410   6.050  18.377  0.00  0.00    +0.000 A 
ATOM     14  C   UNL     1       6.227   7.135  17.533  0.00  0.00    +0.000 A 
ATOM     15  C   UNL     1       7.314   8.053  17.569  0.00  0.00    +0.000 A 
ATOM     16  C   UNL     1       8.328   7.613  18.390  0.00  0.00    +0.000 A 
ATOM     17  S   UNL     1       7.994   6.068  19.038  0.00  0.00    +0.000 S 
ENDBRANCH   2  13
BRANCH   4  18
ATOM     18  C   UNL     1       2.701   3.897  19.008  0.00  0.00    +0.000 A 
ATOM     19  C   UNL     1       1.954   4.965  19.475  0.00  0.00    +0.000 A 
ATOM     20  C   UNL     1       1.431   4.737  20.785  0.00  0.00    +0.000 A 
ATOM     21  C   UNL     1       1.745   3.483  21.256  0.00  0.00    +0.000 A 
ATOM     22  S   UNL     1       2.651   2.585  20.125  0.00  0.00    +0.000 S 
ENDBRANCH   4  18
TORSDOF 2
ENDMDL
MODEL 7
REMARK VINA RESULT:      -5.1      3.556      5.648
REMARK  Name = 
REMARK  2 active torsions:
REMARK  status: ('A' for Active; 'I' for Inactive)
REMARK    1  A    between atoms: C_2  and  C_3
REMARK    2  A    between atoms: C_9  and  C_11
REMARK                            x       y       z     vdW  Elec       q    Type
REMARK                         _______ _______ _______ _____ _____    ______ ____
ROOT
ATOM      1  O   UNL     1      -2.186  11.925  20.068  0.00  0.00    +0.000 OA
ATOM      2  C   UNL     1      -0.966  11.929  20.244  0.00  0.00    +0.000 C 
ATOM      3  N   UNL     1      -0.318  12.987  20.904  0.00  0.00    +0.000 N 
ATOM      4  C   UNL     1      -1.014  13.925  21.697  0.00  0.00    +0.000 C 
ATOM      5  O   UNL     1      -0.701  15.123  21.683  0.00  0.00    +0.000 OA
ATOM      6  C   UNL     1       0.880  13.492  20.330  0.00  0.00    +0.000 A 
ATOM      7  C   UNL     1       0.938  13.761  18.958  0.00  0.00    +0.000 A 
ATOM      8  C   UNL     1       2.144  14.173  18.394  0.00  0.00    +0.000 A 
ATOM      9  C   UNL     1       3.258  14.296  19.211  0.00  0.00    +0.000 A 
ATOM     10 BR   UNL     1       4.924  14.799  18.488  0.00  0.00    +0.000 Br
ATOM     11  C   UNL     1       3.118  14.034  20.564  0.00  0.00    +0.000 A 
ATOM     12  N   UNL     1       1.954  13.645  21.142  0.00  0.00    +0.000 NA
ENDROOT
BRANCH   2  13
ATOM     13  C   UNL     1      -0.156  10.841  19.666  0.00  0.00    +0.000 A 
ATOM     14  C   UNL     1      -0.120  10.485  18.326  0.00  0.00    +0.000 A 
ATOM     15  C   UNL     1       0.827   9.458  18.053  0.00  0.00    +0.000 A 
ATOM     16  C   UNL     1       1.441   9.010  19.200  0.00  0.00    +0.000 A 
ATOM     17  S   UNL     1       0.813   9.772  20.594  0.00  0.00    +0.000 S 
ENDBRANCH   2  13
BRANCH   4  18
ATOM     18  C   UNL     1      -2.176  13.464  22.465  0.00  0.00    +0.000 A 
ATOM     19  C   UNL     1      -2.300  12.484  23.435  0.00  0.00    +0.000 A 
ATOM     20  C   UNL     1      -3.652  12.300  23.858  0.00  0.00    +0.000 A 
ATOM     21  C   UNL     1      -4.511  13.182  23.244  0.00  0.00    +0.000 A 
ATOM     22  S   UNL     1      -3.693  14.229  22.176  0.00  0.00    +0.000 S 
ENDBRANCH   4  18
TORSDOF 2
ENDMDL
MODEL 8
REMARK VINA RESULT:      -5.0      4.379      5.732
REMARK  Name = 
REMARK  2 active torsions:
REMARK  status: ('A' for Active; 'I' for Inactive)
REMARK    1  A    between atoms: C_2  and  C_3
REMARK    2  A    between atoms: C_9  and  C_11
REMARK                            x       y       z     vdW  Elec       q    Type
REMARK                         _______ _______ _______ _____ _____    ______ ____
ROOT
ATOM      1  O   UNL     1      -1.672  11.122  22.980  0.00  0.00    +0.000 OA
ATOM      2  C   UNL     1      -2.126  12.257  22.819  0.00  0.00    +0.000 C 
ATOM      3  N   UNL     1      -1.315  13.323  22.396  0.00  0.00    +0.000 N 
ATOM      4  C   UNL     1      -0.048  13.125  21.805  0.00  0.00    +0.000 C 
ATOM      5  O   UNL     1       0.899  13.879  22.068  0.00  0.00    +0.000 OA
ATOM      6  C   UNL     1      -1.449  14.568  23.070  0.00  0.00    +0.000 A 
ATOM      7  C   UNL     1      -1.485  14.603  24.469  0.00  0.00    +0.000 A 
ATOM      8  C   UNL     1      -1.704  15.818  25.115  0.00  0.00    +0.000 A 
ATOM      9  C   UNL     1      -1.889  16.960  24.349  0.00  0.00    +0.000 A 
ATOM     10 BR   UNL     1      -2.241  18.618  25.173  0.00  0.00    +0.000 Br
ATOM     11  C   UNL     1      -1.819  16.850  22.970  0.00  0.00    +0.000 A 
ATOM     12  N   UNL     1      -1.593  15.684  22.316  0.00  0.00    +0.000 NA
ENDROOT
BRANCH   2  13
ATOM     13  C   UNL     1      -3.534  12.521  23.168  0.00  0.00    +0.000 A 
ATOM     14  C   UNL     1      -4.110  12.312  24.412  0.00  0.00    +0.000 A 
ATOM     15  C   UNL     1      -5.464  12.748  24.474  0.00  0.00    +0.000 A 
ATOM     16  C   UNL     1      -5.906  13.217  23.257  0.00  0.00    +0.000 A 
ATOM     17  S   UNL     1      -4.716  13.050  22.043  0.00  0.00    +0.000 S 
ENDBRANCH   2  13
BRANCH   4  18
ATOM     18  C   UNL     1       0.147  11.949  20.950  0.00  0.00    +0.000 A 
ATOM     19  C   UNL     1       0.874  10.787  21.146  0.00  0.00    +0.000 A 
ATOM     20  C   UNL     1       0.865   9.935  19.999  0.00  0.00    +0.000 A 
ATOM     21  C   UNL     1       0.087  10.442  18.984  0.00  0.00    +0.000 A 
ATOM     22  S   UNL     1      -0.635  11.926  19.414  0.00  0.00    +0.000 S 
ENDBRANCH   4  18
TORSDOF 2
ENDMDL
MODEL 9
REMARK VINA RESULT:      -5.0      2.585      3.480
REMARK  Name = 
REMARK  2 active torsions:
REMARK  status: ('A' for Active; 'I' for Inactive)
REMARK    1  A    between atoms: C_2  and  C_3
REMARK    2  A    between atoms: C_9  and  C_11
REMARK                            x       y       z     vdW  Elec       q    Type
REMARK                         _______ _______ _______ _____ _____    ______ ____
ROOT
ATOM      1  O   UNL     1       2.081  12.182  19.596  0.00  0.00    +0.000 OA
ATOM      2  C   UNL     1       0.916  12.522  19.813  0.00  0.00    +0.000 C 
ATOM      3  N   UNL     1       0.600  13.523  20.747  0.00  0.00    +0.000 N 
ATOM      4  C   UNL     1       1.561  14.433  21.238  0.00  0.00    +0.000 C 
ATOM      5  O   UNL     1       1.555  14.781  22.426  0.00  0.00    +0.000 OA
ATOM      6  C   UNL     1      -0.475  13.278  21.645  0.00  0.00    +0.000 A 
ATOM      7  C   UNL     1      -0.564  12.049  22.308  0.00  0.00    +0.000 A 
ATOM      8  C   UNL     1      -1.668  11.790  23.117  0.00  0.00    +0.000 A 
ATOM      9  C   UNL     1      -2.655  12.758  23.235  0.00  0.00    +0.000 A 
ATOM     10 BR   UNL     1      -4.193  12.435  24.276  0.00  0.00    +0.000 Br
ATOM     11  C   UNL     1      -2.486  13.959  22.565  0.00  0.00    +0.000 A 
ATOM     12  N   UNL     1      -1.416  14.243  21.783  0.00  0.00    +0.000 NA
ENDROOT
BRANCH   2  13
ATOM     13  C   UNL     1      -0.178  11.794  19.144  0.00  0.00    +0.000 A 
ATOM     14  C   UNL     1      -0.335  10.416  19.120  0.00  0.00    +0.000 A 
ATOM     15  C   UNL     1      -1.538  10.008  18.477  0.00  0.00    +0.000 A 
ATOM     16  C   UNL     1      -2.235  11.081  17.968  0.00  0.00    +0.000 A 
ATOM     17  S   UNL     1      -1.395  12.550  18.200  0.00  0.00    +0.000 S 
ENDBRANCH   2  13
BRANCH   4  18
ATOM     18  C   UNL     1       2.625  14.880  20.333  0.00  0.00    +0.000 A 
ATOM     19  C   UNL     1       2.573  15.473  19.083  0.00  0.00    +0.000 A 
ATOM     20  C   UNL     1       3.868  15.660  18.510  0.00  0.00    +0.000 A 
ATOM     21  C   UNL     1       4.873  15.258  19.360  0.00  0.00    +0.000 A 
ATOM     22  S   UNL     1       4.260  14.672  20.839  0.00  0.00    +0.000 S 
ENDBRANCH   4  18
TORSDOF 2
ENDMDL
