MODEL 1
REMARK VINA RESULT:      -7.0      0.000      0.000
REMARK  Name = 
REMARK  5 active torsions:
REMARK  status: ('A' for Active; 'I' for Inactive)
REMARK    1  A    between atoms: C_1  and  C_2
REMARK    2  A    between atoms: C_4  and  C_5
REMARK    3  A    between atoms: C_5  and  N_7
REMARK    4  A    between atoms: C_13  and  C_14
REMARK    5  A    between atoms: N_15  and  C_16
REMARK                            x       y       z     vdW  Elec       q    Type
REMARK                         _______ _______ _______ _____ _____    ______ ____
ROOT
ATOM      1  C   UNL     1       1.399  10.267  18.497  0.00  0.00    +0.000 C 
ATOM      2  C   UNL     1       1.882   8.877  18.723  0.00  0.00    +0.000 A 
ATOM      3  C   UNL     1       2.689   8.156  17.870  0.00  0.00    +0.000 A 
ATOM      4  C   UNL     1       2.959   6.870  18.424  0.00  0.00    +0.000 A 
ATOM      5  C   UNL     1       2.233   6.831  19.621  0.00  0.00    +0.000 A 
ATOM      6  C   UNL     1       2.059   5.713  20.601  0.00  0.00    +0.000 C 
ATOM      7  N   UNL     1       1.614   8.074  19.815  0.00  0.00    +0.000 N 
ENDROOT
BRANCH   7   8
ATOM      8  C   UNL     1       0.841   8.414  20.998  0.00  0.00    +0.000 C 
ATOM      9  C   UNL     1       1.611   9.028  22.167  0.00  0.00    +0.000 C 
ATOM     10  C   UNL     1       0.503   9.474  23.115  0.00  0.00    +0.000 C 
ATOM     11  C   UNL     1      -0.700   9.810  22.229  0.00  0.00    +0.000 C 
ATOM     12  C   UNL     1      -0.341   9.366  20.808  0.00  0.00    +0.000 C 
ENDBRANCH   7   8
BRANCH   4  13
ATOM     13  C   UNL     1       3.788   5.814  17.809  0.00  0.00    +0.000 C 
ATOM     14  S   UNL     1       4.966   6.377  16.739  0.00  0.00    +0.000 S 
BRANCH  13  15
ATOM     15  N   UNL     1       3.586   4.457  18.125  0.00  0.00    +0.000 N 
ATOM     16  C   UNL     1       2.652   3.621  17.344  0.00  0.00    +0.000 C 
ATOM     17  C   UNL     1       2.144   2.423  18.149  0.00  0.00    +0.000 C 
ATOM     18  O   UNL     1       3.232   1.653  18.678  0.00  0.00    +0.000 OA
ATOM     19  C   UNL     1       4.048   2.465  19.531  0.00  0.00    +0.000 C 
ATOM     20  C   UNL     1       4.639   3.657  18.770  0.00  0.00    +0.000 C 
ENDBRANCH  13  15
ENDBRANCH   4  13
TORSDOF 3
ENDMDL
MODEL 2
REMARK VINA RESULT:      -7.0      2.269      2.762
REMARK  Name = 
REMARK  5 active torsions:
REMARK  status: ('A' for Active; 'I' for Inactive)
REMARK    1  A    between atoms: C_1  and  C_2
REMARK    2  A    between atoms: C_4  and  C_5
REMARK    3  A    between atoms: C_5  and  N_7
REMARK    4  A    between atoms: C_13  and  C_14
REMARK    5  A    between atoms: N_15  and  C_16
REMARK                            x       y       z     vdW  Elec       q    Type
REMARK                         _______ _______ _______ _____ _____    ______ ____
ROOT
ATOM      1  C   UNL     1       1.396   9.843  18.604  0.00  0.00    +0.000 C 
ATOM      2  C   UNL     1       1.891   8.451  18.782  0.00  0.00    +0.000 A 
ATOM      3  C   UNL     1       2.567   7.710  17.837  0.00  0.00    +0.000 A 
ATOM      4  C   UNL     1       2.897   6.428  18.367  0.00  0.00    +0.000 A 
ATOM      5  C   UNL     1       2.341   6.412  19.652  0.00  0.00    +0.000 A 
ATOM      6  C   UNL     1       2.290   5.309  20.662  0.00  0.00    +0.000 C 
ATOM      7  N   UNL     1       1.767   7.665  19.911  0.00  0.00    +0.000 N 
ENDROOT
BRANCH   7   8
ATOM      8  C   UNL     1       1.165   8.029  21.183  0.00  0.00    +0.000 C 
ATOM      9  C   UNL     1       1.750   9.250  21.894  0.00  0.00    +0.000 C 
ATOM     10  C   UNL     1       0.767   9.491  23.033  0.00  0.00    +0.000 C 
ATOM     11  C   UNL     1      -0.592   8.997  22.530  0.00  0.00    +0.000 C 
ATOM     12  C   UNL     1      -0.341   8.297  21.191  0.00  0.00    +0.000 C 
ENDBRANCH   7   8
BRANCH   4  13
ATOM     13  C   UNL     1       3.623   5.354  17.660  0.00  0.00    +0.000 C 
ATOM     14  S   UNL     1       2.767   3.907  17.507  0.00  0.00    +0.000 S 
BRANCH  13  15
ATOM     15  N   UNL     1       4.922   5.564  17.158  0.00  0.00    +0.000 N 
ATOM     16  C   UNL     1       5.319   5.057  15.828  0.00  0.00    +0.000 C 
ATOM     17  C   UNL     1       6.832   4.866  15.715  0.00  0.00    +0.000 C 
ATOM     18  O   UNL     1       7.536   6.067  16.058  0.00  0.00    +0.000 OA
ATOM     19  C   UNL     1       7.223   6.462  17.400  0.00  0.00    +0.000 C 
ATOM     20  C   UNL     1       5.722   6.727  17.568  0.00  0.00    +0.000 C 
ENDBRANCH  13  15
ENDBRANCH   4  13
TORSDOF 3
ENDMDL
MODEL 3
REMARK VINA RESULT:      -6.9      2.041      2.578
REMARK  Name = 
REMARK  5 active torsions:
REMARK  status: ('A' for Active; 'I' for Inactive)
REMARK    1  A    between atoms: C_1  and  C_2
REMARK    2  A    between atoms: C_4  and  C_5
REMARK    3  A    between atoms: C_5  and  N_7
REMARK    4  A    between atoms: C_13  and  C_14
REMARK    5  A    between atoms: N_15  and  C_16
REMARK                            x       y       z     vdW  Elec       q    Type
REMARK                         _______ _______ _______ _____ _____    ______ ____
ROOT
ATOM      1  C   UNL     1       1.875   9.840  18.283  0.00  0.00    +0.000 C 
ATOM      2  C   UNL     1       2.149   8.416  18.621  0.00  0.00    +0.000 A 
ATOM      3  C   UNL     1       2.876   7.532  17.855  0.00  0.00    +0.000 A 
ATOM      4  C   UNL     1       2.941   6.263  18.504  0.00  0.00    +0.000 A 
ATOM      5  C   UNL     1       2.174   6.410  19.667  0.00  0.00    +0.000 A 
ATOM      6  C   UNL     1       1.808   5.400  20.709  0.00  0.00    +0.000 C 
ATOM      7  N   UNL     1       1.731   7.738  19.750  0.00  0.00    +0.000 N 
ENDROOT
BRANCH   7   8
ATOM      8  C   UNL     1       0.971   8.265  20.871  0.00  0.00    +0.000 C 
ATOM      9  C   UNL     1       1.775   8.909  22.001  0.00  0.00    +0.000 C 
ATOM     10  C   UNL     1       0.699   9.552  22.869  0.00  0.00    +0.000 C 
ATOM     11  C   UNL     1      -0.444   9.920  21.919  0.00  0.00    +0.000 C 
ATOM     12  C   UNL     1      -0.103   9.308  20.557  0.00  0.00    +0.000 C 
ENDBRANCH   7   8
BRANCH   4  13
ATOM     13  C   UNL     1       3.633   5.062  17.998  0.00  0.00    +0.000 C 
ATOM     14  S   UNL     1       2.609   3.804  17.529  0.00  0.00    +0.000 S 
BRANCH  13  15
ATOM     15  N   UNL     1       5.038   5.012  17.918  0.00  0.00    +0.000 N 
ATOM     16  C   UNL     1       5.879   5.191  19.119  0.00  0.00    +0.000 C 
ATOM     17  C   UNL     1       7.287   5.674  18.767  0.00  0.00    +0.000 C 
ATOM     18  O   UNL     1       7.909   4.811  17.806  0.00  0.00    +0.000 OA
ATOM     19  C   UNL     1       7.129   4.759  16.605  0.00  0.00    +0.000 C 
ATOM     20  C   UNL     1       5.718   4.226  16.878  0.00  0.00    +0.000 C 
ENDBRANCH  13  15
ENDBRANCH   4  13
TORSDOF 3
ENDMDL
MODEL 4
REMARK VINA RESULT:      -6.6      3.531      5.239
REMARK  Name = 
REMARK  5 active torsions:
REMARK  status: ('A' for Active; 'I' for Inactive)
REMARK    1  A    between atoms: C_1  and  C_2
REMARK    2  A    between atoms: C_4  and  C_5
REMARK    3  A    between atoms: C_5  and  N_7
REMARK    4  A    between atoms: C_13  and  C_14
REMARK    5  A    between atoms: N_15  and  C_16
REMARK                            x       y       z     vdW  Elec       q    Type
REMARK                         _______ _______ _______ _____ _____    ______ ____
ROOT
ATOM      1  C   UNL     1       2.586   7.654  18.025  0.00  0.00    +0.000 C 
ATOM      2  C   UNL     1       3.448   6.474  17.742  0.00  0.00    +0.000 A 
ATOM      3  C   UNL     1       4.662   6.502  17.091  0.00  0.00    +0.000 A 
ATOM      4  C   UNL     1       5.206   5.186  17.016  0.00  0.00    +0.000 A 
ATOM      5  C   UNL     1       4.238   4.359  17.602  0.00  0.00    +0.000 A 
ATOM      6  C   UNL     1       4.207   2.870  17.743  0.00  0.00    +0.000 C 
ATOM      7  N   UNL     1       3.190   5.160  18.079  0.00  0.00    +0.000 N 
ENDROOT
BRANCH   7   8
ATOM      8  C   UNL     1       2.050   4.639  18.815  0.00  0.00    +0.000 C 
ATOM      9  C   UNL     1       1.398   3.372  18.260  0.00  0.00    +0.000 C 
ATOM     10  C   UNL     1       0.425   2.972  19.364  0.00  0.00    +0.000 C 
ATOM     11  C   UNL     1       1.047   3.465  20.673  0.00  0.00    +0.000 C 
ATOM     12  C   UNL     1       2.265   4.314  20.294  0.00  0.00    +0.000 C 
ENDBRANCH   7   8
BRANCH   4  13
ATOM     13  C   UNL     1       6.492   4.809  16.396  0.00  0.00    +0.000 C 
ATOM     14  S   UNL     1       7.761   4.588  17.487  0.00  0.00    +0.000 S 
BRANCH  13  15
ATOM     15  N   UNL     1       6.606   4.647  15.002  0.00  0.00    +0.000 N 
ATOM     16  C   UNL     1       5.527   4.017  14.214  0.00  0.00    +0.000 C 
ATOM     17  C   UNL     1       6.045   3.420  12.905  0.00  0.00    +0.000 C 
ATOM     18  O   UNL     1       6.764   4.395  12.137  0.00  0.00    +0.000 OA
ATOM     19  C   UNL     1       7.879   4.895  12.886  0.00  0.00    +0.000 C 
ATOM     20  C   UNL     1       7.423   5.560  14.190  0.00  0.00    +0.000 C 
ENDBRANCH  13  15
ENDBRANCH   4  13
TORSDOF 3
ENDMDL
MODEL 5
REMARK VINA RESULT:      -6.5      1.894      2.541
REMARK  Name = 
REMARK  5 active torsions:
REMARK  status: ('A' for Active; 'I' for Inactive)
REMARK    1  A    between atoms: C_1  and  C_2
REMARK    2  A    between atoms: C_4  and  C_5
REMARK    3  A    between atoms: C_5  and  N_7
REMARK    4  A    between atoms: C_13  and  C_14
REMARK    5  A    between atoms: N_15  and  C_16
REMARK                            x       y       z     vdW  Elec       q    Type
REMARK                         _______ _______ _______ _____ _____    ______ ____
ROOT
ATOM      1  C   UNL     1       1.987  10.344  17.868  0.00  0.00    +0.000 C 
ATOM      2  C   UNL     1       2.137   8.953  18.378  0.00  0.00    +0.000 A 
ATOM      3  C   UNL     1       2.701   7.901  17.690  0.00  0.00    +0.000 A 
ATOM      4  C   UNL     1       2.688   6.727  18.499  0.00  0.00    +0.000 A 
ATOM      5  C   UNL     1       2.040   7.108  19.682  0.00  0.00    +0.000 A 
ATOM      6  C   UNL     1       1.660   6.287  20.874  0.00  0.00    +0.000 C 
ATOM      7  N   UNL     1       1.747   8.478  19.614  0.00  0.00    +0.000 N 
ENDROOT
BRANCH   7   8
ATOM      8  C   UNL     1       1.144   9.227  20.704  0.00  0.00    +0.000 C 
ATOM      9  C   UNL     1      -0.384   9.301  20.720  0.00  0.00    +0.000 C 
ATOM     10  C   UNL     1      -0.685   9.926  22.077  0.00  0.00    +0.000 C 
ATOM     11  C   UNL     1       0.453   9.492  23.004  0.00  0.00    +0.000 C 
ATOM     12  C   UNL     1       1.496   8.792  22.127  0.00  0.00    +0.000 C 
ENDBRANCH   7   8
BRANCH   4  13
ATOM     13  C   UNL     1       3.205   5.399  18.114  0.00  0.00    +0.000 C 
ATOM     14  S   UNL     1       2.017   4.273  17.699  0.00  0.00    +0.000 S 
BRANCH  13  15
ATOM     15  N   UNL     1       4.588   5.135  18.098  0.00  0.00    +0.000 N 
ATOM     16  C   UNL     1       5.399   5.226  19.329  0.00  0.00    +0.000 C 
ATOM     17  C   UNL     1       6.877   5.480  19.026  0.00  0.00    +0.000 C 
ATOM     18  O   UNL     1       7.397   4.500  18.119  0.00  0.00    +0.000 OA
ATOM     19  C   UNL     1       6.666   4.524  16.886  0.00  0.00    +0.000 C 
ATOM     20  C   UNL     1       5.181   4.219  17.112  0.00  0.00    +0.000 C 
ENDBRANCH  13  15
ENDBRANCH   4  13
TORSDOF 3
ENDMDL
MODEL 6
REMARK VINA RESULT:      -6.4      0.336      1.122
REMARK  Name = 
REMARK  5 active torsions:
REMARK  status: ('A' for Active; 'I' for Inactive)
REMARK    1  A    between atoms: C_1  and  C_2
REMARK    2  A    between atoms: C_4  and  C_5
REMARK    3  A    between atoms: C_5  and  N_7
REMARK    4  A    between atoms: C_13  and  C_14
REMARK    5  A    between atoms: N_15  and  C_16
REMARK                            x       y       z     vdW  Elec       q    Type
REMARK                         _______ _______ _______ _____ _____    ______ ____
ROOT
ATOM      1  C   UNL     1       1.376  10.249  18.398  0.00  0.00    +0.000 C 
ATOM      2  C   UNL     1       1.858   8.874  18.703  0.00  0.00    +0.000 A 
ATOM      3  C   UNL     1       2.691   8.118  17.907  0.00  0.00    +0.000 A 
ATOM      4  C   UNL     1       2.950   6.861  18.528  0.00  0.00    +0.000 A 
ATOM      5  C   UNL     1       2.190   6.873  19.705  0.00  0.00    +0.000 A 
ATOM      6  C   UNL     1       1.992   5.802  20.730  0.00  0.00    +0.000 C 
ATOM      7  N   UNL     1       1.562   8.122  19.822  0.00  0.00    +0.000 N 
ENDROOT
BRANCH   7   8
ATOM      8  C   UNL     1       0.754   8.512  20.966  0.00  0.00    +0.000 C 
ATOM      9  C   UNL     1       1.508   9.010  22.199  0.00  0.00    +0.000 C 
ATOM     10  C   UNL     1       0.394   9.549  23.091  0.00  0.00    +0.000 C 
ATOM     11  C   UNL     1      -0.707  10.034  22.145  0.00  0.00    +0.000 C 
ATOM     12  C   UNL     1      -0.306   9.590  20.734  0.00  0.00    +0.000 C 
ENDBRANCH   7   8
BRANCH   4  13
ATOM     13  C   UNL     1       3.799   5.781  17.987  0.00  0.00    +0.000 C 
ATOM     14  S   UNL     1       5.118   6.312  17.077  0.00  0.00    +0.000 S 
BRANCH  13  15
ATOM     15  N   UNL     1       3.504   4.428  18.241  0.00  0.00    +0.000 N 
ATOM     16  C   UNL     1       4.080   3.726  19.407  0.00  0.00    +0.000 C 
ATOM     17  C   UNL     1       4.129   2.211  19.198  0.00  0.00    +0.000 C 
ATOM     18  O   UNL     1       2.839   1.692  18.848  0.00  0.00    +0.000 OA
ATOM     19  C   UNL     1       2.365   2.306  17.643  0.00  0.00    +0.000 C 
ATOM     20  C   UNL     1       2.237   3.825  17.802  0.00  0.00    +0.000 C 
ENDBRANCH  13  15
ENDBRANCH   4  13
TORSDOF 3
ENDMDL
MODEL 7
REMARK VINA RESULT:      -6.4      3.131      4.777
REMARK  Name = 
REMARK  5 active torsions:
REMARK  status: ('A' for Active; 'I' for Inactive)
REMARK    1  A    between atoms: C_1  and  C_2
REMARK    2  A    between atoms: C_4  and  C_5
REMARK    3  A    between atoms: C_5  and  N_7
REMARK    4  A    between atoms: C_13  and  C_14
REMARK    5  A    between atoms: N_15  and  C_16
REMARK                            x       y       z     vdW  Elec       q    Type
REMARK                         _______ _______ _______ _____ _____    ______ ____
ROOT
ATOM      1  C   UNL     1       1.841   7.980  18.442  0.00  0.00    +0.000 C 
ATOM      2  C   UNL     1       2.935   7.010  18.164  0.00  0.00    +0.000 A 
ATOM      3  C   UNL     1       4.062   7.261  17.413  0.00  0.00    +0.000 A 
ATOM      4  C   UNL     1       4.893   6.103  17.377  0.00  0.00    +0.000 A 
ATOM      5  C   UNL     1       4.188   5.128  18.094  0.00  0.00    +0.000 A 
ATOM      6  C   UNL     1       4.516   3.687  18.333  0.00  0.00    +0.000 C 
ATOM      7  N   UNL     1       3.016   5.704  18.605  0.00  0.00    +0.000 N 
ENDROOT
BRANCH   7   8
ATOM      8  C   UNL     1       2.081   4.999  19.466  0.00  0.00    +0.000 C 
ATOM      9  C   UNL     1       1.370   3.788  18.860  0.00  0.00    +0.000 C 
ATOM     10  C   UNL     1       0.675   3.157  20.061  0.00  0.00    +0.000 C 
ATOM     11  C   UNL     1       1.547   3.487  21.275  0.00  0.00    +0.000 C 
ATOM     12  C   UNL     1       2.622   4.467  20.795  0.00  0.00    +0.000 C 
ENDBRANCH   7   8
BRANCH   4  13
ATOM     13  C   UNL     1       6.187   5.981  16.677  0.00  0.00    +0.000 C 
ATOM     14  S   UNL     1       7.488   6.708  17.470  0.00  0.00    +0.000 S 
BRANCH  13  15
ATOM     15  N   UNL     1       6.288   5.295  15.451  0.00  0.00    +0.000 N 
ATOM     16  C   UNL     1       7.595   5.096  14.792  0.00  0.00    +0.000 C 
ATOM     17  C   UNL     1       7.449   4.878  13.284  0.00  0.00    +0.000 C 
ATOM     18  O   UNL     1       6.541   3.805  12.999  0.00  0.00    +0.000 OA
ATOM     19  C   UNL     1       5.248   4.089  13.548  0.00  0.00    +0.000 C 
ATOM     20  C   UNL     1       5.312   4.263  15.069  0.00  0.00    +0.000 C 
ENDBRANCH  13  15
ENDBRANCH   4  13
TORSDOF 3
ENDMDL
MODEL 8
REMARK VINA RESULT:      -6.3      2.319      3.618
REMARK  Name = 
REMARK  5 active torsions:
REMARK  status: ('A' for Active; 'I' for Inactive)
REMARK    1  A    between atoms: C_1  and  C_2
REMARK    2  A    between atoms: C_4  and  C_5
REMARK    3  A    between atoms: C_5  and  N_7
REMARK    4  A    between atoms: C_13  and  C_14
REMARK    5  A    between atoms: N_15  and  C_16
REMARK                            x       y       z     vdW  Elec       q    Type
REMARK                         _______ _______ _______ _____ _____    ______ ____
ROOT
ATOM      1  C   UNL     1       0.585   8.943  22.246  0.00  0.00    +0.000 C 
ATOM      2  C   UNL     1       1.194   8.435  20.986  0.00  0.00    +0.000 A 
ATOM      3  C   UNL     1       1.783   7.201  20.816  0.00  0.00    +0.000 A 
ATOM      4  C   UNL     1       2.240   7.058  19.473  0.00  0.00    +0.000 A 
ATOM      5  C   UNL     1       1.948   8.283  18.858  0.00  0.00    +0.000 A 
ATOM      6  C   UNL     1       2.262   8.761  17.475  0.00  0.00    +0.000 C 
ATOM      7  N   UNL     1       1.272   9.099  19.777  0.00  0.00    +0.000 N 
ENDROOT
BRANCH   7   8
ATOM      8  C   UNL     1       0.749  10.415  19.452  0.00  0.00    +0.000 C 
ATOM      9  C   UNL     1      -0.773  10.550  19.384  0.00  0.00    +0.000 C 
ATOM     10  C   UNL     1      -0.983  12.055  19.268  0.00  0.00    +0.000 C 
ATOM     11  C   UNL     1       0.195  12.703  20.002  0.00  0.00    +0.000 C 
ATOM     12  C   UNL     1       1.170  11.575  20.356  0.00  0.00    +0.000 C 
ENDBRANCH   7   8
BRANCH   4  13
ATOM     13  C   UNL     1       2.920   5.877  18.906  0.00  0.00    +0.000 C 
ATOM     14  S   UNL     1       1.926   4.530  18.686  0.00  0.00    +0.000 S 
BRANCH  13  15
ATOM     15  N   UNL     1       4.288   5.915  18.576  0.00  0.00    +0.000 N 
ATOM     16  C   UNL     1       5.257   5.012  19.231  0.00  0.00    +0.000 C 
ATOM     17  C   UNL     1       6.680   5.571  19.191  0.00  0.00    +0.000 C 
ATOM     18  O   UNL     1       7.075   5.894  17.851  0.00  0.00    +0.000 OA
ATOM     19  C   UNL     1       6.185   6.867  17.290  0.00  0.00    +0.000 C 
ATOM     20  C   UNL     1       4.744   6.346  17.247  0.00  0.00    +0.000 C 
ENDBRANCH  13  15
ENDBRANCH   4  13
TORSDOF 3
ENDMDL
MODEL 9
REMARK VINA RESULT:      -6.3      1.667      2.957
REMARK  Name = 
REMARK  5 active torsions:
REMARK  status: ('A' for Active; 'I' for Inactive)
REMARK    1  A    between atoms: C_1  and  C_2
REMARK    2  A    between atoms: C_4  and  C_5
REMARK    3  A    between atoms: C_5  and  N_7
REMARK    4  A    between atoms: C_13  and  C_14
REMARK    5  A    between atoms: N_15  and  C_16
REMARK                            x       y       z     vdW  Elec       q    Type
REMARK                         _______ _______ _______ _____ _____    ______ ____
ROOT
ATOM      1  C   UNL     1       0.305   9.082  22.029  0.00  0.00    +0.000 C 
ATOM      2  C   UNL     1       1.052   8.445  20.910  0.00  0.00    +0.000 A 
ATOM      3  C   UNL     1       1.669   7.214  20.951  0.00  0.00    +0.000 A 
ATOM      4  C   UNL     1       2.271   6.927  19.691  0.00  0.00    +0.000 A 
ATOM      5  C   UNL     1       2.035   8.065  18.909  0.00  0.00    +0.000 A 
ATOM      6  C   UNL     1       2.493   8.386  17.520  0.00  0.00    +0.000 C 
ATOM      7  N   UNL     1       1.255   8.966  19.647  0.00  0.00    +0.000 N 
ENDROOT
BRANCH   7   8
ATOM      8  C   UNL     1       0.757  10.224  19.115  0.00  0.00    +0.000 C 
ATOM      9  C   UNL     1      -0.750  10.317  18.875  0.00  0.00    +0.000 C 
ATOM     10  C   UNL     1      -0.959  11.794  18.559  0.00  0.00    +0.000 C 
ATOM     11  C   UNL     1       0.129  12.548  19.327  0.00  0.00    +0.000 C 
ATOM     12  C   UNL     1       1.072  11.491  19.912  0.00  0.00    +0.000 C 
ENDBRANCH   7   8
BRANCH   4  13
ATOM     13  C   UNL     1       3.020   5.703  19.343  0.00  0.00    +0.000 C 
ATOM     14  S   UNL     1       4.694   5.906  19.250  0.00  0.00    +0.000 S 
BRANCH  13  15
ATOM     15  N   UNL     1       2.356   4.481  19.124  0.00  0.00    +0.000 N 
ATOM     16  C   UNL     1       1.165   4.107  19.915  0.00  0.00    +0.000 C 
ATOM     17  C   UNL     1       0.955   2.592  19.953  0.00  0.00    +0.000 C 
ATOM     18  O   UNL     1       0.912   2.039  18.631  0.00  0.00    +0.000 OA
ATOM     19  C   UNL     1       2.134   2.315  17.935  0.00  0.00    +0.000 C 
ATOM     20  C   UNL     1       2.377   3.823  17.810  0.00  0.00    +0.000 C 
ENDBRANCH  13  15
ENDBRANCH   4  13
TORSDOF 3
ENDMDL
