MODEL 1
REMARK VINA RESULT:      -8.3      0.000      0.000
REMARK  Name = 
REMARK  10 active torsions:
REMARK  status: ('A' for Active; 'I' for Inactive)
REMARK    1  A    between atoms: C_1  and  C_2
REMARK    2  A    between atoms: C_2  and  C_3
REMARK    3  A    between atoms: C_2  and  C_4
REMARK    4  A    between atoms: C_4  and  C_5
REMARK    5  A    between atoms: C_5  and  N_6
REMARK    6  A    between atoms: C_5  and  C_26
REMARK    7  A    between atoms: C_7  and  C_9
REMARK    8  A    between atoms: C_12  and  C_13
REMARK    9  A    between atoms: C_16  and  O_17
REMARK   10  A    between atoms: O_17  and  C_18
REMARK                            x       y       z     vdW  Elec       q    Type
REMARK                         _______ _______ _______ _____ _____    ______ ____
ROOT
ATOM      1  C   UNL     1       5.479   5.343  16.132  0.00  0.00    +0.000 A 
ATOM      2  C   UNL     1       5.247   6.653  16.499  0.00  0.00    +0.000 A 
ATOM      3  C   UNL     1       4.151   6.917  17.323  0.00  0.00    +0.000 A 
ATOM      4  C   UNL     1       3.271   5.895  17.732  0.00  0.00    +0.000 A 
ATOM      5  C   UNL     1       3.528   4.635  17.169  0.00  0.00    +0.000 A 
ATOM      6  N   UNL     1       4.646   4.328  16.451  0.00  0.00    +0.000 NA
ENDROOT
BRANCH   1   8
ATOM      7  N   UNL     1       6.470   4.968  13.948  0.00  0.00    +0.000 N 
ATOM      8  C   UNL     1       6.681   4.971  15.311  0.00  0.00    +0.000 C 
ATOM      9  O   UNL     1       7.743   4.694  15.840  0.00  0.00    +0.000 OA
ATOM     10  H   UNL     1       5.503   5.066  13.648  0.00  0.00    +0.000 HD
BRANCH   7  11
ATOM     11  C   UNL     1       7.516   4.581  12.988  0.00  0.00    +0.000 C 
BRANCH  11  12
ATOM     12  C   UNL     1       8.388   5.791  12.582  0.00  0.00    +0.000 C 
ATOM     13  N   UNL     1       9.421   6.128  13.411  0.00  0.00    +0.000 N 
ATOM     14  O   UNL     1       8.108   6.539  11.645  0.00  0.00    +0.000 OA
ATOM     15  H   UNL     1       9.923   5.402  13.902  0.00  0.00    +0.000 HD
ATOM     16  H   UNL     1       9.984   6.907  13.087  0.00  0.00    +0.000 HD
ENDBRANCH  11  12
BRANCH  11  17
ATOM     17  C   UNL     1       6.873   3.916  11.751  0.00  0.00    +0.000 C 
BRANCH  17  19
ATOM     18  C   UNL     1       4.371   3.331  11.553  0.00  0.00    +0.000 C 
ATOM     19  C   UNL     1       5.753   2.889  12.038  0.00  0.00    +0.000 C 
ATOM     20  C   UNL     1       6.096   1.537  11.403  0.00  0.00    +0.000 C 
ENDBRANCH  17  19
ENDBRANCH  11  17
ENDBRANCH   7  11
ENDBRANCH   1   8
BRANCH   4  21
ATOM     21  C   UNL     1       2.267   6.190  18.830  0.00  0.00    +0.000 C 
ATOM     22  C   UNL     1       2.724   6.270  20.273  0.00  0.00    +0.000 C 
ATOM     23  C   UNL     1       2.164   7.481  19.592  0.00  0.00    +0.000 C 
ENDBRANCH   4  21
BRANCH   5  24
ATOM     24  O   UNL     1       2.568   3.629  17.287  0.00  0.00    +0.000 OA
BRANCH  24  25
ATOM     25  C   UNL     1       2.297   3.212  18.585  0.00  0.00    +0.000 A 
ATOM     26  C   UNL     1       0.963   3.202  18.998  0.00  0.00    +0.000 A 
ATOM     27  C   UNL     1       0.649   2.888  20.326  0.00  0.00    +0.000 A 
ATOM     28  C   UNL     1       1.667   2.581  21.225  0.00  0.00    +0.000 A 
ATOM     29  F   UNL     1       1.368   2.346  22.510  0.00  0.00    +0.000 F 
ATOM     30  C   UNL     1       2.990   2.532  20.812  0.00  0.00    +0.000 A 
ATOM     31  C   UNL     1       3.301   2.814  19.482  0.00  0.00    +0.000 A 
ENDBRANCH  24  25
ENDBRANCH   5  24
TORSDOF 8
ENDMDL
MODEL 2
REMARK VINA RESULT:      -7.9      0.622      1.104
REMARK  Name = 
REMARK  10 active torsions:
REMARK  status: ('A' for Active; 'I' for Inactive)
REMARK    1  A    between atoms: C_1  and  C_2
REMARK    2  A    between atoms: C_2  and  C_3
REMARK    3  A    between atoms: C_2  and  C_4
REMARK    4  A    between atoms: C_4  and  C_5
REMARK    5  A    between atoms: C_5  and  N_6
REMARK    6  A    between atoms: C_5  and  C_26
REMARK    7  A    between atoms: C_7  and  C_9
REMARK    8  A    between atoms: C_12  and  C_13
REMARK    9  A    between atoms: C_16  and  O_17
REMARK   10  A    between atoms: O_17  and  C_18
REMARK                            x       y       z     vdW  Elec       q    Type
REMARK                         _______ _______ _______ _____ _____    ______ ____
ROOT
ATOM      1  C   UNL     1       5.423   5.385  16.174  0.00  0.00    +0.000 A 
ATOM      2  C   UNL     1       5.176   6.712  16.467  0.00  0.00    +0.000 A 
ATOM      3  C   UNL     1       4.075   7.009  17.271  0.00  0.00    +0.000 A 
ATOM      4  C   UNL     1       3.204   6.003  17.735  0.00  0.00    +0.000 A 
ATOM      5  C   UNL     1       3.477   4.716  17.244  0.00  0.00    +0.000 A 
ATOM      6  N   UNL     1       4.600   4.381  16.548  0.00  0.00    +0.000 NA
ENDROOT
BRANCH   1   8
ATOM      7  N   UNL     1       6.467   5.035  14.011  0.00  0.00    +0.000 N 
ATOM      8  C   UNL     1       6.632   4.981  15.379  0.00  0.00    +0.000 C 
ATOM      9  O   UNL     1       7.661   4.632  15.930  0.00  0.00    +0.000 OA
ATOM     10  H   UNL     1       5.517   5.193  13.684  0.00  0.00    +0.000 HD
BRANCH   7  11
ATOM     11  C   UNL     1       7.523   4.629  13.071  0.00  0.00    +0.000 C 
BRANCH  11  12
ATOM     12  C   UNL     1       8.426   5.822  12.683  0.00  0.00    +0.000 C 
ATOM     13  N   UNL     1       8.108   6.507  11.542  0.00  0.00    +0.000 N 
ATOM     14  O   UNL     1       9.481   6.084  13.259  0.00  0.00    +0.000 OA
ATOM     15  H   UNL     1       7.139   6.620  11.283  0.00  0.00    +0.000 HD
ATOM     16  H   UNL     1       8.709   7.300  11.347  0.00  0.00    +0.000 HD
ENDBRANCH  11  12
BRANCH  11  17
ATOM     17  C   UNL     1       6.892   3.977  11.821  0.00  0.00    +0.000 C 
BRANCH  17  19
ATOM     18  C   UNL     1       4.391   3.395  11.593  0.00  0.00    +0.000 C 
ATOM     19  C   UNL     1       5.769   2.948  12.087  0.00  0.00    +0.000 C 
ATOM     20  C   UNL     1       6.118   1.601  11.442  0.00  0.00    +0.000 C 
ENDBRANCH  17  19
ENDBRANCH  11  17
ENDBRANCH   7  11
ENDBRANCH   1   8
BRANCH   4  21
ATOM     21  C   UNL     1       2.194   6.348  18.812  0.00  0.00    +0.000 C 
ATOM     22  C   UNL     1       2.640   6.482  20.254  0.00  0.00    +0.000 C 
ATOM     23  C   UNL     1       2.094   7.669  19.521  0.00  0.00    +0.000 C 
ENDBRANCH   4  21
BRANCH   5  24
ATOM     24  O   UNL     1       2.527   3.708  17.416  0.00  0.00    +0.000 OA
BRANCH  24  25
ATOM     25  C   UNL     1       2.247   3.370  18.734  0.00  0.00    +0.000 A 
ATOM     26  C   UNL     1       3.314   2.972  19.543  0.00  0.00    +0.000 A 
ATOM     27  C   UNL     1       3.069   2.525  20.847  0.00  0.00    +0.000 A 
ATOM     28  C   UNL     1       1.764   2.485  21.332  0.00  0.00    +0.000 A 
ATOM     29  F   UNL     1       1.527   1.993  22.556  0.00  0.00    +0.000 F 
ATOM     30  C   UNL     1       0.703   2.931  20.559  0.00  0.00    +0.000 A 
ATOM     31  C   UNL     1       0.950   3.407  19.271  0.00  0.00    +0.000 A 
ENDBRANCH  24  25
ENDBRANCH   5  24
TORSDOF 8
ENDMDL
MODEL 3
REMARK VINA RESULT:      -7.8      3.406      7.437
REMARK  Name = 
REMARK  10 active torsions:
REMARK  status: ('A' for Active; 'I' for Inactive)
REMARK    1  A    between atoms: C_1  and  C_2
REMARK    2  A    between atoms: C_2  and  C_3
REMARK    3  A    between atoms: C_2  and  C_4
REMARK    4  A    between atoms: C_4  and  C_5
REMARK    5  A    between atoms: C_5  and  N_6
REMARK    6  A    between atoms: C_5  and  C_26
REMARK    7  A    between atoms: C_7  and  C_9
REMARK    8  A    between atoms: C_12  and  C_13
REMARK    9  A    between atoms: C_16  and  O_17
REMARK   10  A    between atoms: O_17  and  C_18
REMARK                            x       y       z     vdW  Elec       q    Type
REMARK                         _______ _______ _______ _____ _____    ______ ____
ROOT
ATOM      1  C   UNL     1       3.284   7.313  17.797  0.00  0.00    +0.000 A 
ATOM      2  C   UNL     1       4.641   7.502  17.632  0.00  0.00    +0.000 A 
ATOM      3  C   UNL     1       5.399   6.423  17.170  0.00  0.00    +0.000 A 
ATOM      4  C   UNL     1       4.819   5.163  16.926  0.00  0.00    +0.000 A 
ATOM      5  C   UNL     1       3.463   5.060  17.276  0.00  0.00    +0.000 A 
ATOM      6  N   UNL     1       2.678   6.117  17.626  0.00  0.00    +0.000 NA
ENDROOT
BRANCH   1   8
ATOM      7  N   UNL     1       1.914   8.358  19.506  0.00  0.00    +0.000 N 
ATOM      8  C   UNL     1       2.391   8.447  18.215  0.00  0.00    +0.000 C 
ATOM      9  O   UNL     1       2.125   9.356  17.449  0.00  0.00    +0.000 OA
ATOM     10  H   UNL     1       2.085   7.477  19.984  0.00  0.00    +0.000 HD
BRANCH   7  11
ATOM     11  C   UNL     1       0.987   9.349  20.076  0.00  0.00    +0.000 C 
BRANCH  11  12
ATOM     12  C   UNL     1       0.805   9.146  21.597  0.00  0.00    +0.000 C 
ATOM     13  N   UNL     1      -0.399   8.661  22.028  0.00  0.00    +0.000 N 
ATOM     14  O   UNL     1       1.623   9.533  22.431  0.00  0.00    +0.000 OA
ATOM     15  H   UNL     1      -0.900   7.994  21.458  0.00  0.00    +0.000 HD
ATOM     16  H   UNL     1      -0.460   8.515  23.029  0.00  0.00    +0.000 HD
ENDBRANCH  11  12
BRANCH  11  17
ATOM     17  C   UNL     1      -0.368   9.285  19.338  0.00  0.00    +0.000 C 
BRANCH  17  19
ATOM     18  C   UNL     1      -1.826  10.383  17.518  0.00  0.00    +0.000 C 
ATOM     19  C   UNL     1      -0.838  10.597  18.667  0.00  0.00    +0.000 C 
ATOM     20  C   UNL     1      -1.475  11.527  19.706  0.00  0.00    +0.000 C 
ENDBRANCH  17  19
ENDBRANCH  11  17
ENDBRANCH   7  11
ENDBRANCH   1   8
BRANCH   4  21
ATOM     21  C   UNL     1       5.626   4.118  16.180  0.00  0.00    +0.000 C 
ATOM     22  C   UNL     1       5.655   4.123  14.664  0.00  0.00    +0.000 C 
ATOM     23  C   UNL     1       6.910   4.372  15.443  0.00  0.00    +0.000 C 
ENDBRANCH   4  21
BRANCH   5  24
ATOM     24  O   UNL     1       2.871   3.798  17.334  0.00  0.00    +0.000 OA
BRANCH  24  25
ATOM     25  C   UNL     1       2.459   3.389  18.596  0.00  0.00    +0.000 A 
ATOM     26  C   UNL     1       1.089   3.206  18.804  0.00  0.00    +0.000 A 
ATOM     27  C   UNL     1       0.616   2.893  20.085  0.00  0.00    +0.000 A 
ATOM     28  C   UNL     1       1.514   2.760  21.142  0.00  0.00    +0.000 A 
ATOM     29  F   UNL     1       1.052   2.527  22.378  0.00  0.00    +0.000 F 
ATOM     30  C   UNL     1       2.880   2.883  20.935  0.00  0.00    +0.000 A 
ATOM     31  C   UNL     1       3.354   3.163  19.653  0.00  0.00    +0.000 A 
ENDBRANCH  24  25
ENDBRANCH   5  24
TORSDOF 8
ENDMDL
MODEL 4
REMARK VINA RESULT:      -7.8      3.368      7.437
REMARK  Name = 
REMARK  10 active torsions:
REMARK  status: ('A' for Active; 'I' for Inactive)
REMARK    1  A    between atoms: C_1  and  C_2
REMARK    2  A    between atoms: C_2  and  C_3
REMARK    3  A    between atoms: C_2  and  C_4
REMARK    4  A    between atoms: C_4  and  C_5
REMARK    5  A    between atoms: C_5  and  N_6
REMARK    6  A    between atoms: C_5  and  C_26
REMARK    7  A    between atoms: C_7  and  C_9
REMARK    8  A    between atoms: C_12  and  C_13
REMARK    9  A    between atoms: C_16  and  O_17
REMARK   10  A    between atoms: O_17  and  C_18
REMARK                            x       y       z     vdW  Elec       q    Type
REMARK                         _______ _______ _______ _____ _____    ______ ____
ROOT
ATOM      1  C   UNL     1       3.292   7.343  17.752  0.00  0.00    +0.000 A 
ATOM      2  C   UNL     1       4.622   7.580  17.467  0.00  0.00    +0.000 A 
ATOM      3  C   UNL     1       5.390   6.511  17.002  0.00  0.00    +0.000 A 
ATOM      4  C   UNL     1       4.853   5.215  16.871  0.00  0.00    +0.000 A 
ATOM      5  C   UNL     1       3.535   5.074  17.336  0.00  0.00    +0.000 A 
ATOM      6  N   UNL     1       2.731   6.115  17.693  0.00  0.00    +0.000 NA
ENDROOT
BRANCH   1   8
ATOM      7  N   UNL     1       1.911   8.353  19.474  0.00  0.00    +0.000 N 
ATOM      8  C   UNL     1       2.383   8.460  18.182  0.00  0.00    +0.000 C 
ATOM      9  O   UNL     1       2.100   9.370  17.424  0.00  0.00    +0.000 OA
ATOM     10  H   UNL     1       2.098   7.471  19.944  0.00  0.00    +0.000 HD
BRANCH   7  11
ATOM     11  C   UNL     1       0.971   9.324  20.054  0.00  0.00    +0.000 C 
BRANCH  11  12
ATOM     12  C   UNL     1       0.810   9.117  21.578  0.00  0.00    +0.000 C 
ATOM     13  N   UNL     1      -0.405   8.680  22.028  0.00  0.00    +0.000 N 
ATOM     14  O   UNL     1       1.659   9.462  22.398  0.00  0.00    +0.000 OA
ATOM     15  H   UNL     1      -0.945   8.039  21.463  0.00  0.00    +0.000 HD
ATOM     16  H   UNL     1      -0.453   8.527  23.029  0.00  0.00    +0.000 HD
ENDBRANCH  11  12
BRANCH  11  17
ATOM     17  C   UNL     1      -0.390   9.234  19.331  0.00  0.00    +0.000 C 
BRANCH  17  19
ATOM     18  C   UNL     1      -0.032  11.735  18.823  0.00  0.00    +0.000 C 
ATOM     19  C   UNL     1      -1.031  10.580  18.922  0.00  0.00    +0.000 C 
ATOM     20  C   UNL     1      -1.761  10.436  17.581  0.00  0.00    +0.000 C 
ENDBRANCH  17  19
ENDBRANCH  11  17
ENDBRANCH   7  11
ENDBRANCH   1   8
BRANCH   4  21
ATOM     21  C   UNL     1       5.646   4.165  16.117  0.00  0.00    +0.000 C 
ATOM     22  C   UNL     1       5.622   4.142  14.602  0.00  0.00    +0.000 C 
ATOM     23  C   UNL     1       6.901   4.421  15.331  0.00  0.00    +0.000 C 
ENDBRANCH   4  21
BRANCH   5  24
ATOM     24  O   UNL     1       3.008   3.793  17.507  0.00  0.00    +0.000 OA
BRANCH  24  25
ATOM     25  C   UNL     1       2.497   3.522  18.770  0.00  0.00    +0.000 A 
ATOM     26  C   UNL     1       3.401   3.165  19.773  0.00  0.00    +0.000 A 
ATOM     27  C   UNL     1       2.926   2.783  21.034  0.00  0.00    +0.000 A 
ATOM     28  C   UNL     1       1.555   2.767  21.282  0.00  0.00    +0.000 A 
ATOM     29  F   UNL     1       1.102   2.337  22.467  0.00  0.00    +0.000 F 
ATOM     30  C   UNL     1       0.652   3.174  20.312  0.00  0.00    +0.000 A 
ATOM     31  C   UNL     1       1.126   3.584  19.066  0.00  0.00    +0.000 A 
ENDBRANCH  24  25
ENDBRANCH   5  24
TORSDOF 8
ENDMDL
MODEL 5
REMARK VINA RESULT:      -7.7      2.157      3.509
REMARK  Name = 
REMARK  10 active torsions:
REMARK  status: ('A' for Active; 'I' for Inactive)
REMARK    1  A    between atoms: C_1  and  C_2
REMARK    2  A    between atoms: C_2  and  C_3
REMARK    3  A    between atoms: C_2  and  C_4
REMARK    4  A    between atoms: C_4  and  C_5
REMARK    5  A    between atoms: C_5  and  N_6
REMARK    6  A    between atoms: C_5  and  C_26
REMARK    7  A    between atoms: C_7  and  C_9
REMARK    8  A    between atoms: C_12  and  C_13
REMARK    9  A    between atoms: C_16  and  O_17
REMARK   10  A    between atoms: O_17  and  C_18
REMARK                            x       y       z     vdW  Elec       q    Type
REMARK                         _______ _______ _______ _____ _____    ______ ____
ROOT
ATOM      1  C   UNL     1       3.405   7.197  17.851  0.00  0.00    +0.000 A 
ATOM      2  C   UNL     1       2.745   8.379  17.582  0.00  0.00    +0.000 A 
ATOM      3  C   UNL     1       1.905   8.897  18.569  0.00  0.00    +0.000 A 
ATOM      4  C   UNL     1       1.687   8.219  19.785  0.00  0.00    +0.000 A 
ATOM      5  C   UNL     1       2.296   6.957  19.874  0.00  0.00    +0.000 A 
ATOM      6  N   UNL     1       3.202   6.476  18.976  0.00  0.00    +0.000 NA
ENDROOT
BRANCH   1   8
ATOM      7  N   UNL     1       4.791   5.331  17.152  0.00  0.00    +0.000 N 
ATOM      8  C   UNL     1       4.385   6.619  16.870  0.00  0.00    +0.000 C 
ATOM      9  O   UNL     1       4.775   7.264  15.913  0.00  0.00    +0.000 OA
ATOM     10  H   UNL     1       4.511   4.965  18.059  0.00  0.00    +0.000 HD
BRANCH   7  11
ATOM     11  C   UNL     1       5.783   4.618  16.333  0.00  0.00    +0.000 C 
BRANCH  11  12
ATOM     12  C   UNL     1       7.227   5.009  16.723  0.00  0.00    +0.000 C 
ATOM     13  N   UNL     1       7.613   6.300  16.492  0.00  0.00    +0.000 N 
ATOM     14  O   UNL     1       8.072   4.191  17.086  0.00  0.00    +0.000 OA
ATOM     15  H   UNL     1       6.941   7.047  16.591  0.00  0.00    +0.000 HD
ATOM     16  H   UNL     1       8.556   6.518  16.793  0.00  0.00    +0.000 HD
ENDBRANCH  11  12
BRANCH  11  17
ATOM     17  C   UNL     1       5.518   4.885  14.835  0.00  0.00    +0.000 C 
BRANCH  17  19
ATOM     18  C   UNL     1       5.562   3.411  12.721  0.00  0.00    +0.000 C 
ATOM     19  C   UNL     1       6.374   4.070  13.839  0.00  0.00    +0.000 C 
ATOM     20  C   UNL     1       7.453   4.961  13.211  0.00  0.00    +0.000 C 
ENDBRANCH  17  19
ENDBRANCH  11  17
ENDBRANCH   7  11
ENDBRANCH   1   8
BRANCH   4  21
ATOM     21  C   UNL     1       0.986   8.948  20.915  0.00  0.00    +0.000 C 
ATOM     22  C   UNL     1      -0.281   9.733  20.639  0.00  0.00    +0.000 C 
ATOM     23  C   UNL     1      -0.317   8.537  21.541  0.00  0.00    +0.000 C 
ENDBRANCH   4  21
BRANCH   5  24
ATOM     24  O   UNL     1       1.925   6.095  20.906  0.00  0.00    +0.000 OA
BRANCH  24  25
ATOM     25  C   UNL     1       1.849   4.750  20.563  0.00  0.00    +0.000 A 
ATOM     26  C   UNL     1       2.961   3.948  20.831  0.00  0.00    +0.000 A 
ATOM     27  C   UNL     1       2.971   2.612  20.411  0.00  0.00    +0.000 A 
ATOM     28  C   UNL     1       1.872   2.089  19.735  0.00  0.00    +0.000 A 
ATOM     29  F   UNL     1       1.913   0.830  19.278  0.00  0.00    +0.000 F 
ATOM     30  C   UNL     1       0.740   2.859  19.514  0.00  0.00    +0.000 A 
ATOM     31  C   UNL     1       0.716   4.181  19.960  0.00  0.00    +0.000 A 
ENDBRANCH  24  25
ENDBRANCH   5  24
TORSDOF 8
ENDMDL
MODEL 6
REMARK VINA RESULT:      -7.7      3.438      7.233
REMARK  Name = 
REMARK  10 active torsions:
REMARK  status: ('A' for Active; 'I' for Inactive)
REMARK    1  A    between atoms: C_1  and  C_2
REMARK    2  A    between atoms: C_2  and  C_3
REMARK    3  A    between atoms: C_2  and  C_4
REMARK    4  A    between atoms: C_4  and  C_5
REMARK    5  A    between atoms: C_5  and  N_6
REMARK    6  A    between atoms: C_5  and  C_26
REMARK    7  A    between atoms: C_7  and  C_9
REMARK    8  A    between atoms: C_12  and  C_13
REMARK    9  A    between atoms: C_16  and  O_17
REMARK   10  A    between atoms: O_17  and  C_18
REMARK                            x       y       z     vdW  Elec       q    Type
REMARK                         _______ _______ _______ _____ _____    ______ ____
ROOT
ATOM      1  C   UNL     1       3.389   6.857  17.966  0.00  0.00    +0.000 A 
ATOM      2  C   UNL     1       4.571   7.252  17.372  0.00  0.00    +0.000 A 
ATOM      3  C   UNL     1       5.283   6.301  16.639  0.00  0.00    +0.000 A 
ATOM      4  C   UNL     1       4.849   4.963  16.544  0.00  0.00    +0.000 A 
ATOM      5  C   UNL     1       3.718   4.654  17.316  0.00  0.00    +0.000 A 
ATOM      6  N   UNL     1       2.946   5.580  17.952  0.00  0.00    +0.000 NA
ENDROOT
BRANCH   1   8
ATOM      7  N   UNL     1       2.356   9.051  18.065  0.00  0.00    +0.000 N 
ATOM      8  C   UNL     1       2.529   7.842  18.706  0.00  0.00    +0.000 C 
ATOM      9  O   UNL     1       2.041   7.565  19.787  0.00  0.00    +0.000 OA
ATOM     10  H   UNL     1       2.940   9.208  17.247  0.00  0.00    +0.000 HD
BRANCH   7  11
ATOM     11  C   UNL     1       1.587  10.156  18.657  0.00  0.00    +0.000 C 
BRANCH  11  12
ATOM     12  C   UNL     1       0.065   9.915  18.539  0.00  0.00    +0.000 C 
ATOM     13  N   UNL     1      -0.464   9.834  17.280  0.00  0.00    +0.000 N 
ATOM     14  O   UNL     1      -0.698   9.941  19.504  0.00  0.00    +0.000 OA
ATOM     15  H   UNL     1       0.080   9.419  16.538  0.00  0.00    +0.000 HD
ATOM     16  H   UNL     1      -1.459   9.643  17.253  0.00  0.00    +0.000 HD
ENDBRANCH  11  12
BRANCH  11  17
ATOM     17  C   UNL     1       1.993  11.492  17.997  0.00  0.00    +0.000 C 
BRANCH  17  19
ATOM     18  C   UNL     1       2.991  13.741  18.765  0.00  0.00    +0.000 C 
ATOM     19  C   UNL     1       1.822  12.758  18.868  0.00  0.00    +0.000 C 
ATOM     20  C   UNL     1       0.524  13.487  18.499  0.00  0.00    +0.000 C 
ENDBRANCH  17  19
ENDBRANCH  11  17
ENDBRANCH   7  11
ENDBRANCH   1   8
BRANCH   4  21
ATOM     21  C   UNL     1       5.508   4.051  15.527  0.00  0.00    +0.000 C 
ATOM     22  C   UNL     1       5.370   4.341  14.046  0.00  0.00    +0.000 C 
ATOM     23  C   UNL     1       6.716   4.395  14.703  0.00  0.00    +0.000 C 
ENDBRANCH   4  21
BRANCH   5  24
ATOM     24  O   UNL     1       3.373   3.317  17.509  0.00  0.00    +0.000 OA
BRANCH  24  25
ATOM     25  C   UNL     1       2.783   3.023  18.732  0.00  0.00    +0.000 A 
ATOM     26  C   UNL     1       1.392   2.906  18.771  0.00  0.00    +0.000 A 
ATOM     27  C   UNL     1       0.744   2.712  19.998  0.00  0.00    +0.000 A 
ATOM     28  C   UNL     1       1.491   2.631  21.170  0.00  0.00    +0.000 A 
ATOM     29  F   UNL     1       0.863   2.512  22.348  0.00  0.00    +0.000 F 
ATOM     30  C   UNL     1       2.876   2.688  21.138  0.00  0.00    +0.000 A 
ATOM     31  C   UNL     1       3.524   2.849  19.913  0.00  0.00    +0.000 A 
ENDBRANCH  24  25
ENDBRANCH   5  24
TORSDOF 8
ENDMDL
MODEL 7
REMARK VINA RESULT:      -7.7      4.661      7.416
REMARK  Name = 
REMARK  10 active torsions:
REMARK  status: ('A' for Active; 'I' for Inactive)
REMARK    1  A    between atoms: C_1  and  C_2
REMARK    2  A    between atoms: C_2  and  C_3
REMARK    3  A    between atoms: C_2  and  C_4
REMARK    4  A    between atoms: C_4  and  C_5
REMARK    5  A    between atoms: C_5  and  N_6
REMARK    6  A    between atoms: C_5  and  C_26
REMARK    7  A    between atoms: C_7  and  C_9
REMARK    8  A    between atoms: C_12  and  C_13
REMARK    9  A    between atoms: C_16  and  O_17
REMARK   10  A    between atoms: O_17  and  C_18
REMARK                            x       y       z     vdW  Elec       q    Type
REMARK                         _______ _______ _______ _____ _____    ______ ____
ROOT
ATOM      1  C   UNL     1       2.142   7.846  19.328  0.00  0.00    +0.000 A 
ATOM      2  C   UNL     1       2.006   7.514  20.661  0.00  0.00    +0.000 A 
ATOM      3  C   UNL     1       1.116   8.263  21.433  0.00  0.00    +0.000 A 
ATOM      4  C   UNL     1       0.409   9.357  20.895  0.00  0.00    +0.000 A 
ATOM      5  C   UNL     1       0.748   9.685  19.573  0.00  0.00    +0.000 A 
ATOM      6  N   UNL     1       1.530   8.913  18.766  0.00  0.00    +0.000 NA
ENDROOT
BRANCH   1   8
ATOM      7  N   UNL     1       3.421   5.823  18.929  0.00  0.00    +0.000 N 
ATOM      8  C   UNL     1       3.022   7.039  18.416  0.00  0.00    +0.000 C 
ATOM      9  O   UNL     1       3.343   7.458  17.318  0.00  0.00    +0.000 OA
ATOM     10  H   UNL     1       3.211   5.663  19.911  0.00  0.00    +0.000 HD
BRANCH   7  11
ATOM     11  C   UNL     1       4.325   4.917  18.202  0.00  0.00    +0.000 C 
BRANCH  11  12
ATOM     12  C   UNL     1       4.080   3.441  18.589  0.00  0.00    +0.000 C 
ATOM     13  N   UNL     1       4.962   2.866  19.463  0.00  0.00    +0.000 N 
ATOM     14  O   UNL     1       3.235   2.732  18.043  0.00  0.00    +0.000 OA
ATOM     15  H   UNL     1       5.371   3.425  20.197  0.00  0.00    +0.000 HD
ATOM     16  H   UNL     1       4.742   1.908  19.712  0.00  0.00    +0.000 HD
ENDBRANCH  11  12
BRANCH  11  17
ATOM     17  C   UNL     1       5.792   5.325  18.454  0.00  0.00    +0.000 C 
BRANCH  17  19
ATOM     18  C   UNL     1       7.495   7.032  17.542  0.00  0.00    +0.000 C 
ATOM     19  C   UNL     1       6.571   5.853  17.227  0.00  0.00    +0.000 C 
ATOM     20  C   UNL     1       7.396   4.726  16.595  0.00  0.00    +0.000 C 
ENDBRANCH  17  19
ENDBRANCH  11  17
ENDBRANCH   7  11
ENDBRANCH   1   8
BRANCH   4  21
ATOM     21  C   UNL     1      -0.731   9.957  21.695  0.00  0.00    +0.000 C 
ATOM     22  C   UNL     1      -0.638  10.033  23.207  0.00  0.00    +0.000 C 
ATOM     23  C   UNL     1      -0.699  11.289  22.391  0.00  0.00    +0.000 C 
ENDBRANCH   4  21
BRANCH   5  24
ATOM     24  O   UNL     1       0.318  10.901  19.043  0.00  0.00    +0.000 OA
BRANCH  24  25
ATOM     25  C   UNL     1      -0.956  10.895  18.489  0.00  0.00    +0.000 A 
ATOM     26  C   UNL     1      -1.857  11.872  18.921  0.00  0.00    +0.000 A 
ATOM     27  C   UNL     1      -3.182  11.844  18.469  0.00  0.00    +0.000 A 
ATOM     28  C   UNL     1      -3.593  10.847  17.588  0.00  0.00    +0.000 A 
ATOM     29  F   UNL     1      -4.877  10.784  17.210  0.00  0.00    +0.000 F 
ATOM     30  C   UNL     1      -2.694   9.906  17.108  0.00  0.00    +0.000 A 
ATOM     31  C   UNL     1      -1.366   9.952  17.533  0.00  0.00    +0.000 A 
ENDBRANCH  24  25
ENDBRANCH   5  24
TORSDOF 8
ENDMDL
MODEL 8
REMARK VINA RESULT:      -7.6      2.373      3.938
REMARK  Name = 
REMARK  10 active torsions:
REMARK  status: ('A' for Active; 'I' for Inactive)
REMARK    1  A    between atoms: C_1  and  C_2
REMARK    2  A    between atoms: C_2  and  C_3
REMARK    3  A    between atoms: C_2  and  C_4
REMARK    4  A    between atoms: C_4  and  C_5
REMARK    5  A    between atoms: C_5  and  N_6
REMARK    6  A    between atoms: C_5  and  C_26
REMARK    7  A    between atoms: C_7  and  C_9
REMARK    8  A    between atoms: C_12  and  C_13
REMARK    9  A    between atoms: C_16  and  O_17
REMARK   10  A    between atoms: O_17  and  C_18
REMARK                            x       y       z     vdW  Elec       q    Type
REMARK                         _______ _______ _______ _____ _____    ______ ____
ROOT
ATOM      1  C   UNL     1       4.173   4.659  16.617  0.00  0.00    +0.000 A 
ATOM      2  C   UNL     1       3.617   3.410  16.804  0.00  0.00    +0.000 A 
ATOM      3  C   UNL     1       2.759   3.234  17.891  0.00  0.00    +0.000 A 
ATOM      4  C   UNL     1       2.499   4.274  18.805  0.00  0.00    +0.000 A 
ATOM      5  C   UNL     1       3.242   5.447  18.590  0.00  0.00    +0.000 A 
ATOM      6  N   UNL     1       4.002   5.682  17.483  0.00  0.00    +0.000 NA
ENDROOT
BRANCH   1   8
ATOM      7  N   UNL     1       5.626   3.834  14.856  0.00  0.00    +0.000 N 
ATOM      8  C   UNL     1       5.045   4.947  15.427  0.00  0.00    +0.000 C 
ATOM      9  O   UNL     1       5.208   6.086  15.027  0.00  0.00    +0.000 OA
ATOM     10  H   UNL     1       5.532   2.967  15.378  0.00  0.00    +0.000 HD
BRANCH   7  11
ATOM     11  C   UNL     1       6.549   3.924  13.714  0.00  0.00    +0.000 C 
BRANCH  11  12
ATOM     12  C   UNL     1       7.586   5.054  13.910  0.00  0.00    +0.000 C 
ATOM     13  N   UNL     1       7.912   5.392  15.194  0.00  0.00    +0.000 N 
ATOM     14  O   UNL     1       8.008   5.748  12.986  0.00  0.00    +0.000 OA
ATOM     15  H   UNL     1       7.940   4.676  15.906  0.00  0.00    +0.000 HD
ATOM     16  H   UNL     1       8.619   6.115  15.272  0.00  0.00    +0.000 HD
ENDBRANCH  11  12
BRANCH  11  17
ATOM     17  C   UNL     1       5.751   4.119  12.407  0.00  0.00    +0.000 C 
BRANCH  17  19
ATOM     18  C   UNL     1       3.823   3.276  10.919  0.00  0.00    +0.000 C 
ATOM     19  C   UNL     1       4.897   2.915  11.947  0.00  0.00    +0.000 C 
ATOM     20  C   UNL     1       5.795   1.816  11.366  0.00  0.00    +0.000 C 
ENDBRANCH  17  19
ENDBRANCH  11  17
ENDBRANCH   7  11
ENDBRANCH   1   8
BRANCH   4  21
ATOM     21  C   UNL     1       1.365   4.110  19.799  0.00  0.00    +0.000 C 
ATOM     22  C   UNL     1       1.076   2.750  20.401  0.00  0.00    +0.000 C 
ATOM     23  C   UNL     1       1.528   3.880  21.275  0.00  0.00    +0.000 C 
ENDBRANCH   4  21
BRANCH   5  24
ATOM     24  O   UNL     1       3.267   6.426  19.583  0.00  0.00    +0.000 OA
BRANCH  24  25
ATOM     25  C   UNL     1       2.457   7.531  19.353  0.00  0.00    +0.000 A 
ATOM     26  C   UNL     1       1.712   8.025  20.427  0.00  0.00    +0.000 A 
ATOM     27  C   UNL     1       0.805   9.072  20.221  0.00  0.00    +0.000 A 
ATOM     28  C   UNL     1       0.655   9.619  18.949  0.00  0.00    +0.000 A 
ATOM     29  F   UNL     1      -0.261  10.574  18.742  0.00  0.00    +0.000 F 
ATOM     30  C   UNL     1       1.431   9.176  17.888  0.00  0.00    +0.000 A 
ATOM     31  C   UNL     1       2.357   8.155  18.099  0.00  0.00    +0.000 A 
ENDBRANCH  24  25
ENDBRANCH   5  24
TORSDOF 8
ENDMDL
MODEL 9
REMARK VINA RESULT:      -7.6      4.605      7.297
REMARK  Name = 
REMARK  10 active torsions:
REMARK  status: ('A' for Active; 'I' for Inactive)
REMARK    1  A    between atoms: C_1  and  C_2
REMARK    2  A    between atoms: C_2  and  C_3
REMARK    3  A    between atoms: C_2  and  C_4
REMARK    4  A    between atoms: C_4  and  C_5
REMARK    5  A    between atoms: C_5  and  N_6
REMARK    6  A    between atoms: C_5  and  C_26
REMARK    7  A    between atoms: C_7  and  C_9
REMARK    8  A    between atoms: C_12  and  C_13
REMARK    9  A    between atoms: C_16  and  O_17
REMARK   10  A    between atoms: O_17  and  C_18
REMARK                            x       y       z     vdW  Elec       q    Type
REMARK                         _______ _______ _______ _____ _____    ______ ____
ROOT
ATOM      1  C   UNL     1       2.126   7.767  19.145  0.00  0.00    +0.000 A 
ATOM      2  C   UNL     1       2.052   7.417  20.478  0.00  0.00    +0.000 A 
ATOM      3  C   UNL     1       1.198   8.153  21.300  0.00  0.00    +0.000 A 
ATOM      4  C   UNL     1       0.467   9.254  20.811  0.00  0.00    +0.000 A 
ATOM      5  C   UNL     1       0.744   9.601  19.479  0.00  0.00    +0.000 A 
ATOM      6  N   UNL     1       1.488   8.841  18.627  0.00  0.00    +0.000 NA
ENDROOT
BRANCH   1   8
ATOM      7  N   UNL     1       2.900   5.607  18.354  0.00  0.00    +0.000 N 
ATOM      8  C   UNL     1       2.963   6.974  18.181  0.00  0.00    +0.000 C 
ATOM      9  O   UNL     1       3.637   7.526  17.330  0.00  0.00    +0.000 OA
ATOM     10  H   UNL     1       2.425   5.286  19.194  0.00  0.00    +0.000 HD
BRANCH   7  11
ATOM     11  C   UNL     1       3.689   4.671  17.538  0.00  0.00    +0.000 C 
BRANCH  11  12
ATOM     12  C   UNL     1       3.044   3.267  17.503  0.00  0.00    +0.000 C 
ATOM     13  N   UNL     1       3.838   2.202  17.831  0.00  0.00    +0.000 N 
ATOM     14  O   UNL     1       1.916   3.054  17.059  0.00  0.00    +0.000 OA
ATOM     15  H   UNL     1       4.553   2.312  18.535  0.00  0.00    +0.000 HD
ATOM     16  H   UNL     1       3.363   1.306  17.825  0.00  0.00    +0.000 HD
ENDBRANCH  11  12
BRANCH  11  17
ATOM     17  C   UNL     1       5.139   4.607  18.066  0.00  0.00    +0.000 C 
BRANCH  17  19
ATOM     18  C   UNL     1       6.026   5.415  15.786  0.00  0.00    +0.000 C 
ATOM     19  C   UNL     1       6.248   4.501  16.994  0.00  0.00    +0.000 C 
ATOM     20  C   UNL     1       7.616   4.813  17.611  0.00  0.00    +0.000 C 
ENDBRANCH  17  19
ENDBRANCH  11  17
ENDBRANCH   7  11
ENDBRANCH   1   8
BRANCH   4  21
ATOM     21  C   UNL     1      -0.635   9.842  21.672  0.00  0.00    +0.000 C 
ATOM     22  C   UNL     1      -0.459   9.927  23.175  0.00  0.00    +0.000 C 
ATOM     23  C   UNL     1      -0.584  11.177  22.359  0.00  0.00    +0.000 C 
ENDBRANCH   4  21
BRANCH   5  24
ATOM     24  O   UNL     1       0.289  10.825  18.987  0.00  0.00    +0.000 OA
BRANCH  24  25
ATOM     25  C   UNL     1      -1.000  10.818  18.470  0.00  0.00    +0.000 A 
ATOM     26  C   UNL     1      -1.289   9.901  17.457  0.00  0.00    +0.000 A 
ATOM     27  C   UNL     1      -2.543   9.925  16.834  0.00  0.00    +0.000 A 
ATOM     28  C   UNL     1      -3.497  10.858  17.232  0.00  0.00    +0.000 A 
ATOM     29  F   UNL     1      -4.670  10.922  16.588  0.00  0.00    +0.000 F 
ATOM     30  C   UNL     1      -3.242  11.736  18.275  0.00  0.00    +0.000 A 
ATOM     31  C   UNL     1      -2.004  11.692  18.917  0.00  0.00    +0.000 A 
ENDBRANCH  24  25
ENDBRANCH   5  24
TORSDOF 8
ENDMDL
