MODEL 1
REMARK VINA RESULT:      -8.5      0.000      0.000
REMARK  Name = 
REMARK  9 active torsions:
REMARK  status: ('A' for Active; 'I' for Inactive)
REMARK    1  A    between atoms: C_1  and  C_2
REMARK    2  A    between atoms: C_4  and  C_5
REMARK    3  A    between atoms: C_7  and  N_8
REMARK    4  A    between atoms: C_9  and  C_11
REMARK    5  A    between atoms: C_16  and  N_17
REMARK    6  A    between atoms: C_18  and  C_20
REMARK    7  A    between atoms: C_20  and  C_21
REMARK    8  A    between atoms: C_21  and  C_22
REMARK    9  A    between atoms: C_22  and  O_24
REMARK                            x       y       z     vdW  Elec       q    Type
REMARK                         _______ _______ _______ _____ _____    ______ ____
ROOT
ATOM      1  C   UNL     1       3.892   6.041  17.644  0.00  0.00    +0.000 A 
ATOM      2  C   UNL     1       4.827   6.781  16.888  0.00  0.00    +0.000 A 
ATOM      3  C   UNL     1       5.603   6.167  15.906  0.00  0.00    +0.000 A 
ATOM      4  C   UNL     1       5.465   4.808  15.675  0.00  0.00    +0.000 A 
ATOM      5  C   UNL     1       4.575   4.056  16.444  0.00  0.00    +0.000 A 
ATOM      6  C   UNL     1       3.798   4.637  17.459  0.00  0.00    +0.000 A 
ENDROOT
BRANCH   1   8
ATOM      7  N   UNL     1       2.372   7.888  18.203  0.00  0.00    +0.000 N 
ATOM      8  C   UNL     1       3.047   6.755  18.657  0.00  0.00    +0.000 C 
ATOM      9  O   UNL     1       2.979   6.271  19.783  0.00  0.00    +0.000 OA
ATOM     10  H   UNL     1       2.412   8.099  17.216  0.00  0.00    +0.000 HD
BRANCH   7  17
ATOM     11  C   UNL     1      -1.103  11.411  18.168  0.00  0.00    +0.000 C 
ATOM     12  C   UNL     1      -0.238  10.443  18.924  0.00  0.00    +0.000 A 
ATOM     13  C   UNL     1      -0.365  10.320  20.313  0.00  0.00    +0.000 A 
ATOM     14  C   UNL     1       0.450   9.433  21.021  0.00  0.00    +0.000 A 
ATOM     15  C   UNL     1       0.303   9.238  22.500  0.00  0.00    +0.000 C 
ATOM     16  C   UNL     1       1.393   8.660  20.333  0.00  0.00    +0.000 A 
ATOM     17  C   UNL     1       1.502   8.722  18.946  0.00  0.00    +0.000 A 
ATOM     18  C   UNL     1       0.693   9.633  18.248  0.00  0.00    +0.000 A 
ENDBRANCH   7  17
ENDBRANCH   1   8
BRANCH   6  19
ATOM     19  N   UNL     1       2.938   3.830  18.268  0.00  0.00    +0.000 N 
ATOM     20  C   UNL     1       1.574   3.657  18.069  0.00  0.00    +0.000 C 
ATOM     21  O   UNL     1       0.928   4.138  17.139  0.00  0.00    +0.000 OA
ATOM     22  H   UNL     1       3.419   3.172  18.888  0.00  0.00    +0.000 HD
BRANCH  20  23
ATOM     23  C   UNL     1       0.862   2.813  19.106  0.00  0.00    +0.000 C 
BRANCH  23  24
ATOM     24  C   UNL     1       1.002   3.498  20.471  0.00  0.00    +0.000 C 
BRANCH  24  25
ATOM     25  C   UNL     1       1.929   2.780  21.405  0.00  0.00    +0.000 C 
ATOM     26  O   UNL     1       3.124   2.617  21.224  0.00  0.00    +0.000 OA
BRANCH  25  27
ATOM     27  O   UNL     1       1.295   2.326  22.514  0.00  0.00    +0.000 OA
ATOM     28  H   UNL     1       1.237   2.991  23.227  0.00  0.00    +0.000 HD
ENDBRANCH  25  27
ENDBRANCH  24  25
ENDBRANCH  23  24
ENDBRANCH  20  23
ENDBRANCH   6  19
TORSDOF 7
ENDMDL
MODEL 2
REMARK VINA RESULT:      -8.3      0.568      1.846
REMARK  Name = 
REMARK  9 active torsions:
REMARK  status: ('A' for Active; 'I' for Inactive)
REMARK    1  A    between atoms: C_1  and  C_2
REMARK    2  A    between atoms: C_4  and  C_5
REMARK    3  A    between atoms: C_7  and  N_8
REMARK    4  A    between atoms: C_9  and  C_11
REMARK    5  A    between atoms: C_16  and  N_17
REMARK    6  A    between atoms: C_18  and  C_20
REMARK    7  A    between atoms: C_20  and  C_21
REMARK    8  A    between atoms: C_21  and  C_22
REMARK    9  A    between atoms: C_22  and  O_24
REMARK                            x       y       z     vdW  Elec       q    Type
REMARK                         _______ _______ _______ _____ _____    ______ ____
ROOT
ATOM      1  C   UNL     1       3.910   6.046  17.494  0.00  0.00    +0.000 A 
ATOM      2  C   UNL     1       4.751   6.792  16.640  0.00  0.00    +0.000 A 
ATOM      3  C   UNL     1       5.503   6.167  15.646  0.00  0.00    +0.000 A 
ATOM      4  C   UNL     1       5.433   4.791  15.499  0.00  0.00    +0.000 A 
ATOM      5  C   UNL     1       4.638   4.035  16.363  0.00  0.00    +0.000 A 
ATOM      6  C   UNL     1       3.890   4.630  17.392  0.00  0.00    +0.000 A 
ENDROOT
BRANCH   1   8
ATOM      7  N   UNL     1       2.346   7.856  18.053  0.00  0.00    +0.000 N 
ATOM      8  C   UNL     1       3.085   6.769  18.517  0.00  0.00    +0.000 C 
ATOM      9  O   UNL     1       3.089   6.329  19.663  0.00  0.00    +0.000 OA
ATOM     10  H   UNL     1       2.332   8.027  17.057  0.00  0.00    +0.000 HD
BRANCH   7  17
ATOM     11  C   UNL     1       0.705   9.268  22.502  0.00  0.00    +0.000 C 
ATOM     12  C   UNL     1       0.691   9.404  21.006  0.00  0.00    +0.000 A 
ATOM     13  C   UNL     1      -0.095  10.389  20.394  0.00  0.00    +0.000 A 
ATOM     14  C   UNL     1      -0.122  10.506  19.002  0.00  0.00    +0.000 A 
ATOM     15  C   UNL     1      -0.909  11.584  18.318  0.00  0.00    +0.000 C 
ATOM     16  C   UNL     1       0.648   9.638  18.219  0.00  0.00    +0.000 A 
ATOM     17  C   UNL     1       1.480   8.686  18.803  0.00  0.00    +0.000 A 
ATOM     18  C   UNL     1       1.482   8.563  20.201  0.00  0.00    +0.000 A 
ENDBRANCH   7  17
ENDBRANCH   1   8
BRANCH   6  19
ATOM     19  N   UNL     1       3.130   3.824  18.298  0.00  0.00    +0.000 N 
ATOM     20  C   UNL     1       1.777   3.534  18.175  0.00  0.00    +0.000 C 
ATOM     21  O   UNL     1       1.058   3.892  17.244  0.00  0.00    +0.000 OA
ATOM     22  H   UNL     1       3.686   3.253  18.940  0.00  0.00    +0.000 HD
BRANCH  20  23
ATOM     23  C   UNL     1       1.176   2.720  19.303  0.00  0.00    +0.000 C 
BRANCH  23  24
ATOM     24  C   UNL     1       0.971   3.641  20.512  0.00  0.00    +0.000 C 
BRANCH  24  25
ATOM     25  C   UNL     1       2.069   3.545  21.527  0.00  0.00    +0.000 C 
ATOM     26  O   UNL     1       2.455   2.515  22.054  0.00  0.00    +0.000 OA
BRANCH  25  27
ATOM     27  O   UNL     1       2.622   4.752  21.805  0.00  0.00    +0.000 OA
ATOM     28  H   UNL     1       3.588   4.713  21.946  0.00  0.00    +0.000 HD
ENDBRANCH  25  27
ENDBRANCH  24  25
ENDBRANCH  23  24
ENDBRANCH  20  23
ENDBRANCH   6  19
TORSDOF 7
ENDMDL
MODEL 3
REMARK VINA RESULT:      -8.3      0.958      1.084
REMARK  Name = 
REMARK  9 active torsions:
REMARK  status: ('A' for Active; 'I' for Inactive)
REMARK    1  A    between atoms: C_1  and  C_2
REMARK    2  A    between atoms: C_4  and  C_5
REMARK    3  A    between atoms: C_7  and  N_8
REMARK    4  A    between atoms: C_9  and  C_11
REMARK    5  A    between atoms: C_16  and  N_17
REMARK    6  A    between atoms: C_18  and  C_20
REMARK    7  A    between atoms: C_20  and  C_21
REMARK    8  A    between atoms: C_21  and  C_22
REMARK    9  A    between atoms: C_22  and  O_24
REMARK                            x       y       z     vdW  Elec       q    Type
REMARK                         _______ _______ _______ _____ _____    ______ ____
ROOT
ATOM      1  C   UNL     1       3.862   5.894  17.492  0.00  0.00    +0.000 A 
ATOM      2  C   UNL     1       4.658   6.717  16.664  0.00  0.00    +0.000 A 
ATOM      3  C   UNL     1       5.785   6.210  16.018  0.00  0.00    +0.000 A 
ATOM      4  C   UNL     1       6.138   4.883  16.199  0.00  0.00    +0.000 A 
ATOM      5  C   UNL     1       5.385   4.068  17.047  0.00  0.00    +0.000 A 
ATOM      6  C   UNL     1       4.261   4.553  17.734  0.00  0.00    +0.000 A 
ENDROOT
BRANCH   1   8
ATOM      7  N   UNL     1       2.726   7.799  18.548  0.00  0.00    +0.000 N 
ATOM      8  C   UNL     1       2.633   6.473  18.127  0.00  0.00    +0.000 C 
ATOM      9  O   UNL     1       1.636   5.759  18.190  0.00  0.00    +0.000 OA
ATOM     10  H   UNL     1       3.565   8.311  18.314  0.00  0.00    +0.000 HD
BRANCH   7  17
ATOM     11  C   UNL     1      -0.996  11.009  17.980  0.00  0.00    +0.000 C 
ATOM     12  C   UNL     1      -0.147  10.143  18.867  0.00  0.00    +0.000 A 
ATOM     13  C   UNL     1      -0.422  10.055  20.238  0.00  0.00    +0.000 A 
ATOM     14  C   UNL     1       0.377   9.264  21.068  0.00  0.00    +0.000 A 
ATOM     15  C   UNL     1       0.077   9.104  22.529  0.00  0.00    +0.000 C 
ATOM     16  C   UNL     1       1.451   8.552  20.521  0.00  0.00    +0.000 A 
ATOM     17  C   UNL     1       1.713   8.579  19.154  0.00  0.00    +0.000 A 
ATOM     18  C   UNL     1       0.918   9.394  18.333  0.00  0.00    +0.000 A 
ENDBRANCH   7  17
ENDBRANCH   1   8
BRANCH   6  19
ATOM     19  N   UNL     1       3.543   3.711  18.641  0.00  0.00    +0.000 N 
ATOM     20  C   UNL     1       2.558   2.800  18.285  0.00  0.00    +0.000 C 
ATOM     21  O   UNL     1       2.200   2.558  17.133  0.00  0.00    +0.000 OA
ATOM     22  H   UNL     1       3.957   3.629  19.575  0.00  0.00    +0.000 HD
BRANCH  20  23
ATOM     23  C   UNL     1       1.888   2.075  19.435  0.00  0.00    +0.000 C 
BRANCH  23  24
ATOM     24  C   UNL     1       1.143   3.106  20.291  0.00  0.00    +0.000 C 
BRANCH  24  25
ATOM     25  C   UNL     1       1.978   3.678  21.396  0.00  0.00    +0.000 C 
ATOM     26  O   UNL     1       2.366   3.066  22.377  0.00  0.00    +0.000 OA
BRANCH  25  27
ATOM     27  O   UNL     1       2.286   4.983  21.188  0.00  0.00    +0.000 OA
ATOM     28  H   UNL     1       2.002   5.568  21.918  0.00  0.00    +0.000 HD
ENDBRANCH  25  27
ENDBRANCH  24  25
ENDBRANCH  23  24
ENDBRANCH  20  23
ENDBRANCH   6  19
TORSDOF 7
ENDMDL
MODEL 4
REMARK VINA RESULT:      -8.2      1.377      1.882
REMARK  Name = 
REMARK  9 active torsions:
REMARK  status: ('A' for Active; 'I' for Inactive)
REMARK    1  A    between atoms: C_1  and  C_2
REMARK    2  A    between atoms: C_4  and  C_5
REMARK    3  A    between atoms: C_7  and  N_8
REMARK    4  A    between atoms: C_9  and  C_11
REMARK    5  A    between atoms: C_16  and  N_17
REMARK    6  A    between atoms: C_18  and  C_20
REMARK    7  A    between atoms: C_20  and  C_21
REMARK    8  A    between atoms: C_21  and  C_22
REMARK    9  A    between atoms: C_22  and  O_24
REMARK                            x       y       z     vdW  Elec       q    Type
REMARK                         _______ _______ _______ _____ _____    ______ ____
ROOT
ATOM      1  C   UNL     1       3.693   6.622  17.640  0.00  0.00    +0.000 A 
ATOM      2  C   UNL     1       4.688   7.205  16.826  0.00  0.00    +0.000 A 
ATOM      3  C   UNL     1       5.582   6.414  16.106  0.00  0.00    +0.000 A 
ATOM      4  C   UNL     1       5.501   5.034  16.199  0.00  0.00    +0.000 A 
ATOM      5  C   UNL     1       4.549   4.444  17.033  0.00  0.00    +0.000 A 
ATOM      6  C   UNL     1       3.652   5.211  17.792  0.00  0.00    +0.000 A 
ENDROOT
BRANCH   1   8
ATOM      7  N   UNL     1       2.166   8.546  17.604  0.00  0.00    +0.000 N 
ATOM      8  C   UNL     1       2.725   7.515  18.358  0.00  0.00    +0.000 C 
ATOM      9  O   UNL     1       2.468   7.249  19.529  0.00  0.00    +0.000 OA
ATOM     10  H   UNL     1       2.366   8.570  16.614  0.00  0.00    +0.000 HD
BRANCH   7  17
ATOM     11  C   UNL     1       1.316  12.940  19.714  0.00  0.00    +0.000 C 
ATOM     12  C   UNL     1       0.803  11.693  19.051  0.00  0.00    +0.000 A 
ATOM     13  C   UNL     1      -0.566  11.542  18.795  0.00  0.00    +0.000 A 
ATOM     14  C   UNL     1      -1.047  10.376  18.194  0.00  0.00    +0.000 A 
ATOM     15  C   UNL     1      -2.497  10.206  17.856  0.00  0.00    +0.000 C 
ATOM     16  C   UNL     1      -0.151   9.359  17.841  0.00  0.00    +0.000 A 
ATOM     17  C   UNL     1       1.220   9.506  18.034  0.00  0.00    +0.000 A 
ATOM     18  C   UNL     1       1.689  10.673  18.659  0.00  0.00    +0.000 A 
ENDBRANCH   7  17
ENDBRANCH   1   8
BRANCH   6  19
ATOM     19  N   UNL     1       2.726   4.580  18.681  0.00  0.00    +0.000 N 
ATOM     20  C   UNL     1       1.502   4.037  18.315  0.00  0.00    +0.000 C 
ATOM     21  O   UNL     1       1.067   3.982  17.166  0.00  0.00    +0.000 OA
ATOM     22  H   UNL     1       3.111   4.322  19.595  0.00  0.00    +0.000 HD
BRANCH  20  23
ATOM     23  C   UNL     1       0.661   3.489  19.451  0.00  0.00    +0.000 C 
BRANCH  23  24
ATOM     24  C   UNL     1       1.265   3.966  20.777  0.00  0.00    +0.000 C 
BRANCH  24  25
ATOM     25  C   UNL     1       1.934   2.873  21.555  0.00  0.00    +0.000 C 
ATOM     26  O   UNL     1       1.429   2.252  22.474  0.00  0.00    +0.000 OA
BRANCH  25  27
ATOM     27  O   UNL     1       3.192   2.622  21.115  0.00  0.00    +0.000 OA
ATOM     28  H   UNL     1       3.221   2.016  20.350  0.00  0.00    +0.000 HD
ENDBRANCH  25  27
ENDBRANCH  24  25
ENDBRANCH  23  24
ENDBRANCH  20  23
ENDBRANCH   6  19
TORSDOF 7
ENDMDL
MODEL 5
REMARK VINA RESULT:      -8.1      0.935      1.037
REMARK  Name = 
REMARK  9 active torsions:
REMARK  status: ('A' for Active; 'I' for Inactive)
REMARK    1  A    between atoms: C_1  and  C_2
REMARK    2  A    between atoms: C_4  and  C_5
REMARK    3  A    between atoms: C_7  and  N_8
REMARK    4  A    between atoms: C_9  and  C_11
REMARK    5  A    between atoms: C_16  and  N_17
REMARK    6  A    between atoms: C_18  and  C_20
REMARK    7  A    between atoms: C_20  and  C_21
REMARK    8  A    between atoms: C_21  and  C_22
REMARK    9  A    between atoms: C_22  and  O_24
REMARK                            x       y       z     vdW  Elec       q    Type
REMARK                         _______ _______ _______ _____ _____    ______ ____
ROOT
ATOM      1  C   UNL     1       3.701   6.471  17.774  0.00  0.00    +0.000 A 
ATOM      2  C   UNL     1       4.678   7.137  17.004  0.00  0.00    +0.000 A 
ATOM      3  C   UNL     1       5.613   6.423  16.255  0.00  0.00    +0.000 A 
ATOM      4  C   UNL     1       5.590   5.038  16.275  0.00  0.00    +0.000 A 
ATOM      5  C   UNL     1       4.656   4.365  17.065  0.00  0.00    +0.000 A 
ATOM      6  C   UNL     1       3.719   5.053  17.852  0.00  0.00    +0.000 A 
ENDROOT
BRANCH   1   8
ATOM      7  N   UNL     1       2.121   8.351  17.831  0.00  0.00    +0.000 N 
ATOM      8  C   UNL     1       2.688   7.283  18.526  0.00  0.00    +0.000 C 
ATOM      9  O   UNL     1       2.406   6.926  19.666  0.00  0.00    +0.000 OA
ATOM     10  H   UNL     1       2.347   8.452  16.852  0.00  0.00    +0.000 HD
BRANCH   7  17
ATOM     11  C   UNL     1      -2.417  10.251  17.299  0.00  0.00    +0.000 C 
ATOM     12  C   UNL     1      -1.120  10.168  18.053  0.00  0.00    +0.000 A 
ATOM     13  C   UNL     1      -0.943  10.901  19.234  0.00  0.00    +0.000 A 
ATOM     14  C   UNL     1       0.268  10.839  19.928  0.00  0.00    +0.000 A 
ATOM     15  C   UNL     1       0.472  11.568  21.222  0.00  0.00    +0.000 C 
ATOM     16  C   UNL     1       1.304  10.033  19.441  0.00  0.00    +0.000 A 
ATOM     17  C   UNL     1       1.136   9.252  18.301  0.00  0.00    +0.000 A 
ATOM     18  C   UNL     1      -0.077   9.339  17.600  0.00  0.00    +0.000 A 
ENDBRANCH   7  17
ENDBRANCH   1   8
BRANCH   6  19
ATOM     19  N   UNL     1       2.812   4.338  18.696  0.00  0.00    +0.000 N 
ATOM     20  C   UNL     1       1.559   3.873  18.319  0.00  0.00    +0.000 C 
ATOM     21  O   UNL     1       1.076   3.972  17.191  0.00  0.00    +0.000 OA
ATOM     22  H   UNL     1       3.225   3.959  19.553  0.00  0.00    +0.000 HD
BRANCH  20  23
ATOM     23  C   UNL     1       0.749   3.207  19.413  0.00  0.00    +0.000 C 
BRANCH  23  24
ATOM     24  C   UNL     1       1.176   3.798  20.762  0.00  0.00    +0.000 C 
BRANCH  24  25
ATOM     25  C   UNL     1       1.959   2.842  21.610  0.00  0.00    +0.000 C 
ATOM     26  O   UNL     1       3.152   2.615  21.498  0.00  0.00    +0.000 OA
BRANCH  25  27
ATOM     27  O   UNL     1       1.193   2.243  22.555  0.00  0.00    +0.000 OA
ATOM     28  H   UNL     1       0.248   2.485  22.498  0.00  0.00    +0.000 HD
ENDBRANCH  25  27
ENDBRANCH  24  25
ENDBRANCH  23  24
ENDBRANCH  20  23
ENDBRANCH   6  19
TORSDOF 7
ENDMDL
MODEL 6
REMARK VINA RESULT:      -8.0      1.581      1.798
REMARK  Name = 
REMARK  9 active torsions:
REMARK  status: ('A' for Active; 'I' for Inactive)
REMARK    1  A    between atoms: C_1  and  C_2
REMARK    2  A    between atoms: C_4  and  C_5
REMARK    3  A    between atoms: C_7  and  N_8
REMARK    4  A    between atoms: C_9  and  C_11
REMARK    5  A    between atoms: C_16  and  N_17
REMARK    6  A    between atoms: C_18  and  C_20
REMARK    7  A    between atoms: C_20  and  C_21
REMARK    8  A    between atoms: C_21  and  C_22
REMARK    9  A    between atoms: C_22  and  O_24
REMARK                            x       y       z     vdW  Elec       q    Type
REMARK                         _______ _______ _______ _____ _____    ______ ____
ROOT
ATOM      1  C   UNL     1       3.823   6.334  17.462  0.00  0.00    +0.000 A 
ATOM      2  C   UNL     1       4.985   6.826  16.830  0.00  0.00    +0.000 A 
ATOM      3  C   UNL     1       5.837   5.974  16.129  0.00  0.00    +0.000 A 
ATOM      4  C   UNL     1       5.547   4.620  16.061  0.00  0.00    +0.000 A 
ATOM      5  C   UNL     1       4.424   4.113  16.718  0.00  0.00    +0.000 A 
ATOM      6  C   UNL     1       3.560   4.939  17.454  0.00  0.00    +0.000 A 
ENDROOT
BRANCH   1   8
ATOM      7  N   UNL     1       2.555   8.438  17.445  0.00  0.00    +0.000 N 
ATOM      8  C   UNL     1       2.912   7.298  18.164  0.00  0.00    +0.000 C 
ATOM      9  O   UNL     1       2.521   6.995  19.287  0.00  0.00    +0.000 OA
ATOM     10  H   UNL     1       2.843   8.498  16.478  0.00  0.00    +0.000 HD
BRANCH   7  17
ATOM     11  C   UNL     1      -2.072  10.046  18.143  0.00  0.00    +0.000 C 
ATOM     12  C   UNL     1      -0.589  10.266  18.239  0.00  0.00    +0.000 A 
ATOM     13  C   UNL     1      -0.086  11.440  18.814  0.00  0.00    +0.000 A 
ATOM     14  C   UNL     1       1.293  11.654  18.889  0.00  0.00    +0.000 A 
ATOM     15  C   UNL     1       1.866  12.873  19.547  0.00  0.00    +0.000 C 
ATOM     16  C   UNL     1       2.172  10.684  18.393  0.00  0.00    +0.000 A 
ATOM     17  C   UNL     1       1.700   9.484  17.867  0.00  0.00    +0.000 A 
ATOM     18  C   UNL     1       0.313   9.290  17.776  0.00  0.00    +0.000 A 
ENDBRANCH   7  17
ENDBRANCH   1   8
BRANCH   6  19
ATOM     19  N   UNL     1       2.450   4.382  18.164  0.00  0.00    +0.000 N 
ATOM     20  C   UNL     1       2.349   3.066  18.595  0.00  0.00    +0.000 C 
ATOM     21  O   UNL     1       3.223   2.210  18.467  0.00  0.00    +0.000 OA
ATOM     22  H   UNL     1       1.804   5.068  18.565  0.00  0.00    +0.000 HD
BRANCH  20  23
ATOM     23  C   UNL     1       1.039   2.692  19.260  0.00  0.00    +0.000 C 
BRANCH  23  24
ATOM     24  C   UNL     1       0.771   3.683  20.398  0.00  0.00    +0.000 C 
BRANCH  24  25
ATOM     25  C   UNL     1       1.902   3.789  21.376  0.00  0.00    +0.000 C 
ATOM     26  O   UNL     1       2.270   2.901  22.126  0.00  0.00    +0.000 OA
BRANCH  25  27
ATOM     27  O   UNL     1       2.506   5.002  21.338  0.00  0.00    +0.000 OA
ATOM     28  H   UNL     1       3.422   4.968  20.997  0.00  0.00    +0.000 HD
ENDBRANCH  25  27
ENDBRANCH  24  25
ENDBRANCH  23  24
ENDBRANCH  20  23
ENDBRANCH   6  19
TORSDOF 7
ENDMDL
MODEL 7
REMARK VINA RESULT:      -8.0      1.176      1.631
REMARK  Name = 
REMARK  9 active torsions:
REMARK  status: ('A' for Active; 'I' for Inactive)
REMARK    1  A    between atoms: C_1  and  C_2
REMARK    2  A    between atoms: C_4  and  C_5
REMARK    3  A    between atoms: C_7  and  N_8
REMARK    4  A    between atoms: C_9  and  C_11
REMARK    5  A    between atoms: C_16  and  N_17
REMARK    6  A    between atoms: C_18  and  C_20
REMARK    7  A    between atoms: C_20  and  C_21
REMARK    8  A    between atoms: C_21  and  C_22
REMARK    9  A    between atoms: C_22  and  O_24
REMARK                            x       y       z     vdW  Elec       q    Type
REMARK                         _______ _______ _______ _____ _____    ______ ____
ROOT
ATOM      1  C   UNL     1       3.809   6.133  17.301  0.00  0.00    +0.000 A 
ATOM      2  C   UNL     1       4.421   7.010  16.379  0.00  0.00    +0.000 A 
ATOM      3  C   UNL     1       5.346   6.541  15.447  0.00  0.00    +0.000 A 
ATOM      4  C   UNL     1       5.680   5.197  15.432  0.00  0.00    +0.000 A 
ATOM      5  C   UNL     1       5.115   4.326  16.365  0.00  0.00    +0.000 A 
ATOM      6  C   UNL     1       4.201   4.769  17.334  0.00  0.00    +0.000 A 
ENDROOT
BRANCH   1   8
ATOM      7  N   UNL     1       2.506   8.038  18.142  0.00  0.00    +0.000 N 
ATOM      8  C   UNL     1       2.785   6.677  18.253  0.00  0.00    +0.000 C 
ATOM      9  O   UNL     1       2.245   5.884  19.019  0.00  0.00    +0.000 OA
ATOM     10  H   UNL     1       2.927   8.547  17.377  0.00  0.00    +0.000 HD
BRANCH   7  17
ATOM     11  C   UNL     1      -1.271  11.236  18.171  0.00  0.00    +0.000 C 
ATOM     12  C   UNL     1      -0.313  10.345  18.911  0.00  0.00    +0.000 A 
ATOM     13  C   UNL     1      -0.411  10.203  20.301  0.00  0.00    +0.000 A 
ATOM     14  C   UNL     1       0.489   9.389  20.993  0.00  0.00    +0.000 A 
ATOM     15  C   UNL     1       0.378   9.173  22.472  0.00  0.00    +0.000 C 
ATOM     16  C   UNL     1       1.488   8.707  20.288  0.00  0.00    +0.000 A 
ATOM     17  C   UNL     1       1.574   8.786  18.900  0.00  0.00    +0.000 A 
ATOM     18  C   UNL     1       0.679   9.625  18.218  0.00  0.00    +0.000 A 
ENDBRANCH   7  17
ENDBRANCH   1   8
BRANCH   6  19
ATOM     19  N   UNL     1       3.683   3.864  18.314  0.00  0.00    +0.000 N 
ATOM     20  C   UNL     1       4.403   3.323  19.371  0.00  0.00    +0.000 C 
ATOM     21  O   UNL     1       5.575   3.586  19.636  0.00  0.00    +0.000 OA
ATOM     22  H   UNL     1       2.661   3.805  18.350  0.00  0.00    +0.000 HD
BRANCH  20  23
ATOM     23  C   UNL     1       3.654   2.327  20.233  0.00  0.00    +0.000 C 
BRANCH  23  24
ATOM     24  C   UNL     1       2.170   2.373  19.851  0.00  0.00    +0.000 C 
BRANCH  24  25
ATOM     25  C   UNL     1       1.295   2.939  20.929  0.00  0.00    +0.000 C 
ATOM     26  O   UNL     1       1.298   2.588  22.096  0.00  0.00    +0.000 OA
BRANCH  25  27
ATOM     27  O   UNL     1       0.480   3.921  20.469  0.00  0.00    +0.000 OA
ATOM     28  H   UNL     1      -0.014   3.670  19.664  0.00  0.00    +0.000 HD
ENDBRANCH  25  27
ENDBRANCH  24  25
ENDBRANCH  23  24
ENDBRANCH  20  23
ENDBRANCH   6  19
TORSDOF 7
ENDMDL
MODEL 8
REMARK VINA RESULT:      -8.0      3.294      5.748
REMARK  Name = 
REMARK  9 active torsions:
REMARK  status: ('A' for Active; 'I' for Inactive)
REMARK    1  A    between atoms: C_1  and  C_2
REMARK    2  A    between atoms: C_4  and  C_5
REMARK    3  A    between atoms: C_7  and  N_8
REMARK    4  A    between atoms: C_9  and  C_11
REMARK    5  A    between atoms: C_16  and  N_17
REMARK    6  A    between atoms: C_18  and  C_20
REMARK    7  A    between atoms: C_20  and  C_21
REMARK    8  A    between atoms: C_21  and  C_22
REMARK    9  A    between atoms: C_22  and  O_24
REMARK                            x       y       z     vdW  Elec       q    Type
REMARK                         _______ _______ _______ _____ _____    ______ ____
ROOT
ATOM      1  C   UNL     1       6.026   4.199  14.864  0.00  0.00    +0.000 A 
ATOM      2  C   UNL     1       5.617   3.491  13.713  0.00  0.00    +0.000 A 
ATOM      3  C   UNL     1       6.272   3.661  12.494  0.00  0.00    +0.000 A 
ATOM      4  C   UNL     1       7.333   4.548  12.406  0.00  0.00    +0.000 A 
ATOM      5  C   UNL     1       7.722   5.286  13.526  0.00  0.00    +0.000 A 
ATOM      6  C   UNL     1       7.067   5.159  14.761  0.00  0.00    +0.000 A 
ENDROOT
BRANCH   1   8
ATOM      7  N   UNL     1       4.079   4.562  16.317  0.00  0.00    +0.000 N 
ATOM      8  C   UNL     1       5.320   3.946  16.163  0.00  0.00    +0.000 C 
ATOM      9  O   UNL     1       5.861   3.190  16.966  0.00  0.00    +0.000 OA
ATOM     10  H   UNL     1       3.692   5.051  15.522  0.00  0.00    +0.000 HD
BRANCH   7  17
ATOM     11  C   UNL     1       2.096   6.760  20.282  0.00  0.00    +0.000 C 
ATOM     12  C   UNL     1       2.207   5.569  19.373  0.00  0.00    +0.000 A 
ATOM     13  C   UNL     1       1.400   4.444  19.583  0.00  0.00    +0.000 A 
ATOM     14  C   UNL     1       1.513   3.328  18.749  0.00  0.00    +0.000 A 
ATOM     15  C   UNL     1       0.628   2.130  18.913  0.00  0.00    +0.000 C 
ATOM     16  C   UNL     1       2.434   3.343  17.694  0.00  0.00    +0.000 A 
ATOM     17  C   UNL     1       3.209   4.470  17.429  0.00  0.00    +0.000 A 
ATOM     18  C   UNL     1       3.102   5.575  18.287  0.00  0.00    +0.000 A 
ENDBRANCH   7  17
ENDBRANCH   1   8
BRANCH   6  19
ATOM     19  N   UNL     1       7.450   5.970  15.875  0.00  0.00    +0.000 N 
ATOM     20  C   UNL     1       6.651   6.925  16.488  0.00  0.00    +0.000 C 
ATOM     21  O   UNL     1       5.484   7.172  16.185  0.00  0.00    +0.000 OA
ATOM     22  H   UNL     1       8.285   5.651  16.376  0.00  0.00    +0.000 HD
BRANCH  20  23
ATOM     23  C   UNL     1       7.307   7.713  17.604  0.00  0.00    +0.000 C 
BRANCH  23  24
ATOM     24  C   UNL     1       8.125   6.744  18.467  0.00  0.00    +0.000 C 
BRANCH  24  25
ATOM     25  C   UNL     1       7.343   5.552  18.929  0.00  0.00    +0.000 C 
ATOM     26  O   UNL     1       6.342   5.592  19.624  0.00  0.00    +0.000 OA
BRANCH  25  27
ATOM     27  O   UNL     1       7.863   4.385  18.473  0.00  0.00    +0.000 OA
ATOM     28  H   UNL     1       7.799   4.286  17.503  0.00  0.00    +0.000 HD
ENDBRANCH  25  27
ENDBRANCH  24  25
ENDBRANCH  23  24
ENDBRANCH  20  23
ENDBRANCH   6  19
TORSDOF 7
ENDMDL
MODEL 9
REMARK VINA RESULT:      -8.0      1.249      2.409
REMARK  Name = 
REMARK  9 active torsions:
REMARK  status: ('A' for Active; 'I' for Inactive)
REMARK    1  A    between atoms: C_1  and  C_2
REMARK    2  A    between atoms: C_4  and  C_5
REMARK    3  A    between atoms: C_7  and  N_8
REMARK    4  A    between atoms: C_9  and  C_11
REMARK    5  A    between atoms: C_16  and  N_17
REMARK    6  A    between atoms: C_18  and  C_20
REMARK    7  A    between atoms: C_20  and  C_21
REMARK    8  A    between atoms: C_21  and  C_22
REMARK    9  A    between atoms: C_22  and  O_24
REMARK                            x       y       z     vdW  Elec       q    Type
REMARK                         _______ _______ _______ _____ _____    ______ ____
ROOT
ATOM      1  C   UNL     1       4.004   5.833  17.140  0.00  0.00    +0.000 A 
ATOM      2  C   UNL     1       4.682   6.714  16.270  0.00  0.00    +0.000 A 
ATOM      3  C   UNL     1       5.698   6.256  15.432  0.00  0.00    +0.000 A 
ATOM      4  C   UNL     1       6.058   4.919  15.461  0.00  0.00    +0.000 A 
ATOM      5  C   UNL     1       5.425   4.044  16.346  0.00  0.00    +0.000 A 
ATOM      6  C   UNL     1       4.417   4.477  17.223  0.00  0.00    +0.000 A 
ENDROOT
BRANCH   1   8
ATOM      7  N   UNL     1       2.773   7.752  18.054  0.00  0.00    +0.000 N 
ATOM      8  C   UNL     1       2.886   6.364  17.987  0.00  0.00    +0.000 C 
ATOM      9  O   UNL     1       2.138   5.547  18.517  0.00  0.00    +0.000 OA
ATOM     10  H   UNL     1       3.376   8.305  17.461  0.00  0.00    +0.000 HD
BRANCH   7  17
ATOM     11  C   UNL     1       0.878   9.086  22.426  0.00  0.00    +0.000 C 
ATOM     12  C   UNL     1       0.885   9.181  20.927  0.00  0.00    +0.000 A 
ATOM     13  C   UNL     1       0.009  10.055  20.271  0.00  0.00    +0.000 A 
ATOM     14  C   UNL     1       0.001  10.132  18.875  0.00  0.00    +0.000 A 
ATOM     15  C   UNL     1      -0.885  11.095  18.145  0.00  0.00    +0.000 C 
ATOM     16  C   UNL     1       0.882   9.335  18.134  0.00  0.00    +0.000 A 
ATOM     17  C   UNL     1       1.802   8.499  18.762  0.00  0.00    +0.000 A 
ATOM     18  C   UNL     1       1.784   8.413  20.163  0.00  0.00    +0.000 A 
ENDBRANCH   7  17
ENDBRANCH   1   8
BRANCH   6  19
ATOM     19  N   UNL     1       3.827   3.570  18.158  0.00  0.00    +0.000 N 
ATOM     20  C   UNL     1       4.403   3.159  19.353  0.00  0.00    +0.000 C 
ATOM     21  O   UNL     1       5.482   3.556  19.793  0.00  0.00    +0.000 OA
ATOM     22  H   UNL     1       2.825   3.405  18.028  0.00  0.00    +0.000 HD
BRANCH  20  23
ATOM     23  C   UNL     1       3.616   2.131  20.141  0.00  0.00    +0.000 C 
BRANCH  23  24
ATOM     24  C   UNL     1       2.131   2.284  19.794  0.00  0.00    +0.000 C 
BRANCH  24  25
ATOM     25  C   UNL     1       1.326   2.922  20.886  0.00  0.00    +0.000 C 
ATOM     26  O   UNL     1       1.384   2.627  22.068  0.00  0.00    +0.000 OA
BRANCH  25  27
ATOM     27  O   UNL     1       0.509   3.900  20.423  0.00  0.00    +0.000 OA
ATOM     28  H   UNL     1       0.743   4.789  20.753  0.00  0.00    +0.000 HD
ENDBRANCH  25  27
ENDBRANCH  24  25
ENDBRANCH  23  24
ENDBRANCH  20  23
ENDBRANCH   6  19
TORSDOF 7
ENDMDL
