MODEL 1
REMARK VINA RESULT:      -7.9      0.000      0.000
REMARK  Name = 
REMARK  8 active torsions:
REMARK  status: ('A' for Active; 'I' for Inactive)
REMARK    1  A    between atoms: C_2  and  C_3
REMARK    2  A    between atoms: C_3  and  C_4
REMARK    3  A    between atoms: C_3  and  C_5
REMARK    4  A    between atoms: C_3  and  C_6
REMARK    5  A    between atoms: C_10  and  C_11
REMARK    6  A    between atoms: CA_16  and  CB_17
REMARK    7  A    between atoms: CB_17  and  CG1_18
REMARK    8  A    between atoms: CB_17  and  CG2_19
REMARK                            x       y       z     vdW  Elec       q    Type
REMARK                         _______ _______ _______ _____ _____    ______ ____
ROOT
ATOM      1  C   UNK A   1       5.108   3.063  17.216  0.00  0.00    +0.000 C 
ATOM      2  C   UNK A   1       3.840   3.010  17.664  0.00  0.00    +0.000 C 
ATOM      3  N   UNK A   1       2.865   3.873  17.228  0.00  0.00    +0.000 N 
ATOM      4  C   VAL A   2       1.543   3.817  17.582  0.00  0.00    +0.000 C 
ATOM      5  O   VAL A   2       0.721   4.576  17.072  0.00  0.00    +0.000 OA
ATOM      6  CA  VAL A   2       1.195   2.888  18.764  0.00  0.00    +0.000 C 
ATOM      7  N   VAL A   2       2.130   1.764  18.833  0.00  0.00    +0.000 N 
ATOM      8  C   UNK A   1       3.469   1.884  18.583  0.00  0.00    +0.000 C 
ATOM      9  O   UNK A   1       4.270   1.062  19.015  0.00  0.00    +0.000 OA
ATOM     10  H   UNK A   1       3.139   4.559  16.522  0.00  0.00    +0.000 HD
ATOM     11  H   VAL A   2       1.901   0.985  19.438  0.00  0.00    +0.000 HD
ENDROOT
BRANCH   1  16
ATOM     12  C   UNK A   1       6.005   5.299  16.424  0.00  0.00    +0.000 A 
ATOM     13  N   UNK A   1       6.442   5.676  15.169  0.00  0.00    +0.000 N 
ATOM     14  C   UNK A   1       6.365   4.594  14.341  0.00  0.00    +0.000 A 
ATOM     15  N   UNK A   1       5.869   3.552  14.962  0.00  0.00    +0.000 NA
ATOM     16  C   UNK A   1       5.634   3.974  16.250  0.00  0.00    +0.000 A 
ATOM     17  H   UNK A   1       6.789   6.587  14.908  0.00  0.00    +0.000 HD
BRANCH  12  18
ATOM     18  C   UNK A   1       6.004   6.252  17.613  0.00  0.00    +0.000 C 
ATOM     19  C   UNK A   1       4.582   6.818  17.837  0.00  0.00    +0.000 C 
ATOM     20  C   UNK A   1       6.966   7.425  17.311  0.00  0.00    +0.000 C 
BRANCH  18  22
ATOM     21  C   UNK A   1       7.721   5.661  19.432  0.00  0.00    +0.000 C 
ATOM     22  C   UNK A   1       6.474   5.621  18.933  0.00  0.00    +0.000 C 
ENDBRANCH  18  22
ENDBRANCH  12  18
ENDBRANCH   1  16
BRANCH   6  23
ATOM     23  CB  VAL A   2       1.117   3.659  20.107  0.00  0.00    +0.000 C 
ATOM     24  CG1 VAL A   2       2.123   4.820  20.145  0.00  0.00    +0.000 C 
ATOM     25  CG2 VAL A   2       1.403   2.745  21.306  0.00  0.00    +0.000 C 
ENDBRANCH   6  23
TORSDOF 4
ENDMDL
MODEL 2
REMARK VINA RESULT:      -7.8      0.354      1.106
REMARK  Name = 
REMARK  8 active torsions:
REMARK  status: ('A' for Active; 'I' for Inactive)
REMARK    1  A    between atoms: C_2  and  C_3
REMARK    2  A    between atoms: C_3  and  C_4
REMARK    3  A    between atoms: C_3  and  C_5
REMARK    4  A    between atoms: C_3  and  C_6
REMARK    5  A    between atoms: C_10  and  C_11
REMARK    6  A    between atoms: CA_16  and  CB_17
REMARK    7  A    between atoms: CB_17  and  CG1_18
REMARK    8  A    between atoms: CB_17  and  CG2_19
REMARK                            x       y       z     vdW  Elec       q    Type
REMARK                         _______ _______ _______ _____ _____    ______ ____
ROOT
ATOM      1  C   UNK A   1       5.174   3.147  17.333  0.00  0.00    +0.000 C 
ATOM      2  C   UNK A   1       3.900   3.063  17.760  0.00  0.00    +0.000 C 
ATOM      3  N   UNK A   1       2.894   3.845  17.246  0.00  0.00    +0.000 N 
ATOM      4  C   VAL A   2       1.570   3.749  17.578  0.00  0.00    +0.000 C 
ATOM      5  O   VAL A   2       0.724   4.429  17.000  0.00  0.00    +0.000 OA
ATOM      6  CA  VAL A   2       1.240   2.889  18.816  0.00  0.00    +0.000 C 
ATOM      7  N   VAL A   2       2.225   1.818  18.981  0.00  0.00    +0.000 N 
ATOM      8  C   UNK A   1       3.563   1.987  18.748  0.00  0.00    +0.000 C 
ATOM      9  O   UNK A   1       4.392   1.236  19.252  0.00  0.00    +0.000 OA
ATOM     10  H   UNK A   1       3.152   4.492  16.498  0.00  0.00    +0.000 HD
ATOM     11  H   VAL A   2       2.020   1.073  19.635  0.00  0.00    +0.000 HD
ENDROOT
BRANCH   1  16
ATOM     12  C   UNK A   1       6.101   5.329  16.433  0.00  0.00    +0.000 A 
ATOM     13  N   UNK A   1       6.482   5.657  15.146  0.00  0.00    +0.000 N 
ATOM     14  C   UNK A   1       6.324   4.557  14.354  0.00  0.00    +0.000 A 
ATOM     15  N   UNK A   1       5.827   3.550  15.029  0.00  0.00    +0.000 NA
ATOM     16  C   UNK A   1       5.677   4.013  16.316  0.00  0.00    +0.000 A 
ATOM     17  H   UNK A   1       6.845   6.549  14.842  0.00  0.00    +0.000 HD
BRANCH  12  18
ATOM     18  C   UNK A   1       6.196   6.312  17.593  0.00  0.00    +0.000 C 
ATOM     19  C   UNK A   1       6.738   5.595  18.851  0.00  0.00    +0.000 C 
ATOM     20  C   UNK A   1       4.781   6.856  17.901  0.00  0.00    +0.000 C 
BRANCH  18  22
ATOM     21  C   UNK A   1       8.083   7.978  18.107  0.00  0.00    +0.000 C 
ATOM     22  C   UNK A   1       7.091   7.531  17.321  0.00  0.00    +0.000 C 
ENDBRANCH  18  22
ENDBRANCH  12  18
ENDBRANCH   1  16
BRANCH   6  23
ATOM     23  CB  VAL A   2       1.095   3.746  20.099  0.00  0.00    +0.000 C 
ATOM     24  CG1 VAL A   2       2.031   4.963  20.066  0.00  0.00    +0.000 C 
ATOM     25  CG2 VAL A   2       1.415   2.937  21.364  0.00  0.00    +0.000 C 
ENDBRANCH   6  23
TORSDOF 4
ENDMDL
MODEL 3
REMARK VINA RESULT:      -7.7      0.274      1.332
REMARK  Name = 
REMARK  8 active torsions:
REMARK  status: ('A' for Active; 'I' for Inactive)
REMARK    1  A    between atoms: C_2  and  C_3
REMARK    2  A    between atoms: C_3  and  C_4
REMARK    3  A    between atoms: C_3  and  C_5
REMARK    4  A    between atoms: C_3  and  C_6
REMARK    5  A    between atoms: C_10  and  C_11
REMARK    6  A    between atoms: CA_16  and  CB_17
REMARK    7  A    between atoms: CB_17  and  CG1_18
REMARK    8  A    between atoms: CB_17  and  CG2_19
REMARK                            x       y       z     vdW  Elec       q    Type
REMARK                         _______ _______ _______ _____ _____    ______ ____
ROOT
ATOM      1  C   UNK A   1       5.097   3.038  17.245  0.00  0.00    +0.000 C 
ATOM      2  C   UNK A   1       3.824   2.987  17.678  0.00  0.00    +0.000 C 
ATOM      3  N   UNK A   1       2.859   3.863  17.247  0.00  0.00    +0.000 N 
ATOM      4  C   VAL A   2       1.534   3.811  17.585  0.00  0.00    +0.000 C 
ATOM      5  O   VAL A   2       0.722   4.583  17.079  0.00  0.00    +0.000 OA
ATOM      6  CA  VAL A   2       1.167   2.865  18.749  0.00  0.00    +0.000 C 
ATOM      7  N   VAL A   2       2.093   1.733  18.809  0.00  0.00    +0.000 N 
ATOM      8  C   UNK A   1       3.436   1.848  18.575  0.00  0.00    +0.000 C 
ATOM      9  O   UNK A   1       4.227   1.013  19.002  0.00  0.00    +0.000 OA
ATOM     10  H   UNK A   1       3.146   4.558  16.554  0.00  0.00    +0.000 HD
ATOM     11  H   VAL A   2       1.852   0.946  19.398  0.00  0.00    +0.000 HD
ENDROOT
BRANCH   1  16
ATOM     12  C   UNK A   1       6.041   5.272  16.505  0.00  0.00    +0.000 A 
ATOM     13  N   UNK A   1       6.481   5.670  15.258  0.00  0.00    +0.000 N 
ATOM     14  C   UNK A   1       6.375   4.612  14.403  0.00  0.00    +0.000 A 
ATOM     15  N   UNK A   1       5.859   3.567  15.000  0.00  0.00    +0.000 NA
ATOM     16  C   UNK A   1       5.639   3.961  16.300  0.00  0.00    +0.000 A 
ATOM     17  H   UNK A   1       6.848   6.581  15.018  0.00  0.00    +0.000 HD
BRANCH  12  18
ATOM     18  C   UNK A   1       6.066   6.195  17.718  0.00  0.00    +0.000 C 
ATOM     19  C   UNK A   1       6.856   7.482  17.387  0.00  0.00    +0.000 C 
ATOM     20  C   UNK A   1       6.772   5.463  18.885  0.00  0.00    +0.000 C 
BRANCH  18  22
ATOM     21  C   UNK A   1       3.738   7.266  17.530  0.00  0.00    +0.000 C 
ATOM     22  C   UNK A   1       4.678   6.610  18.230  0.00  0.00    +0.000 C 
ENDBRANCH  18  22
ENDBRANCH  12  18
ENDBRANCH   1  16
BRANCH   6  23
ATOM     23  CB  VAL A   2       1.079   3.614  20.103  0.00  0.00    +0.000 C 
ATOM     24  CG1 VAL A   2       2.055   4.799  20.150  0.00  0.00    +0.000 C 
ATOM     25  CG2 VAL A   2       1.398   2.691  21.287  0.00  0.00    +0.000 C 
ENDBRANCH   6  23
TORSDOF 4
ENDMDL
MODEL 4
REMARK VINA RESULT:      -7.5      2.048      6.001
REMARK  Name = 
REMARK  8 active torsions:
REMARK  status: ('A' for Active; 'I' for Inactive)
REMARK    1  A    between atoms: C_2  and  C_3
REMARK    2  A    between atoms: C_3  and  C_4
REMARK    3  A    between atoms: C_3  and  C_5
REMARK    4  A    between atoms: C_3  and  C_6
REMARK    5  A    between atoms: C_10  and  C_11
REMARK    6  A    between atoms: CA_16  and  CB_17
REMARK    7  A    between atoms: CB_17  and  CG1_18
REMARK    8  A    between atoms: CB_17  and  CG2_19
REMARK                            x       y       z     vdW  Elec       q    Type
REMARK                         _______ _______ _______ _____ _____    ______ ____
ROOT
ATOM      1  C   UNK A   1       3.638   4.648  18.023  0.00  0.00    +0.000 C 
ATOM      2  C   UNK A   1       4.772   5.164  17.514  0.00  0.00    +0.000 C 
ATOM      3  N   UNK A   1       5.895   4.406  17.291  0.00  0.00    +0.000 N 
ATOM      4  C   VAL A   2       7.047   4.852  16.701  0.00  0.00    +0.000 C 
ATOM      5  O   VAL A   2       7.972   4.080  16.457  0.00  0.00    +0.000 OA
ATOM      6  CA  VAL A   2       7.175   6.381  16.533  0.00  0.00    +0.000 C 
ATOM      7  N   VAL A   2       5.858   6.998  16.373  0.00  0.00    +0.000 N 
ATOM      8  C   UNK A   1       4.751   6.596  17.069  0.00  0.00    +0.000 C 
ATOM      9  O   UNK A   1       3.790   7.345  17.219  0.00  0.00    +0.000 OA
ATOM     10  H   UNK A   1       5.829   3.410  17.511  0.00  0.00    +0.000 HD
ATOM     11  H   VAL A   2       5.813   7.961  16.065  0.00  0.00    +0.000 HD
ENDROOT
BRANCH   1  16
ATOM     12  C   UNK A   1       2.637   2.792  19.431  0.00  0.00    +0.000 A 
ATOM     13  N   UNK A   1       2.777   1.423  19.308  0.00  0.00    +0.000 N 
ATOM     14  C   UNK A   1       3.556   1.163  18.218  0.00  0.00    +0.000 A 
ATOM     15  N   UNK A   1       3.965   2.270  17.649  0.00  0.00    +0.000 NA
ATOM     16  C   UNK A   1       3.411   3.287  18.392  0.00  0.00    +0.000 A 
ATOM     17  H   UNK A   1       2.354   0.725  19.903  0.00  0.00    +0.000 HD
BRANCH  12  18
ATOM     18  C   UNK A   1       1.784   3.436  20.517  0.00  0.00    +0.000 C 
ATOM     19  C   UNK A   1       1.725   2.515  21.758  0.00  0.00    +0.000 C 
ATOM     20  C   UNK A   1       0.350   3.632  19.973  0.00  0.00    +0.000 C 
BRANCH  18  22
ATOM     21  C   UNK A   1       1.744   6.002  20.640  0.00  0.00    +0.000 C 
ATOM     22  C   UNK A   1       2.277   4.817  20.977  0.00  0.00    +0.000 C 
ENDBRANCH  18  22
ENDBRANCH  12  18
ENDBRANCH   1  16
BRANCH   6  23
ATOM     23  CB  VAL A   2       7.982   7.028  17.689  0.00  0.00    +0.000 C 
ATOM     24  CG1 VAL A   2       7.677   6.347  19.032  0.00  0.00    +0.000 C 
ATOM     25  CG2 VAL A   2       7.669   8.524  17.834  0.00  0.00    +0.000 C 
ENDBRANCH   6  23
TORSDOF 4
ENDMDL
MODEL 5
REMARK VINA RESULT:      -7.3      2.388      5.991
REMARK  Name = 
REMARK  8 active torsions:
REMARK  status: ('A' for Active; 'I' for Inactive)
REMARK    1  A    between atoms: C_2  and  C_3
REMARK    2  A    between atoms: C_3  and  C_4
REMARK    3  A    between atoms: C_3  and  C_5
REMARK    4  A    between atoms: C_3  and  C_6
REMARK    5  A    between atoms: C_10  and  C_11
REMARK    6  A    between atoms: CA_16  and  CB_17
REMARK    7  A    between atoms: CB_17  and  CG1_18
REMARK    8  A    between atoms: CB_17  and  CG2_19
REMARK                            x       y       z     vdW  Elec       q    Type
REMARK                         _______ _______ _______ _____ _____    ______ ____
ROOT
ATOM      1  C   UNK A   1       4.909   5.131  19.287  0.00  0.00    +0.000 C 
ATOM      2  C   UNK A   1       5.524   5.400  18.121  0.00  0.00    +0.000 C 
ATOM      3  N   UNK A   1       4.888   6.026  17.076  0.00  0.00    +0.000 N 
ATOM      4  C   VAL A   2       5.480   6.401  15.900  0.00  0.00    +0.000 C 
ATOM      5  O   VAL A   2       4.856   7.039  15.055  0.00  0.00    +0.000 OA
ATOM      6  CA  VAL A   2       6.889   5.827  15.636  0.00  0.00    +0.000 C 
ATOM      7  N   VAL A   2       7.599   5.594  16.895  0.00  0.00    +0.000 N 
ATOM      8  C   UNK A   1       6.992   5.108  18.020  0.00  0.00    +0.000 C 
ATOM      9  O   UNK A   1       7.643   4.562  18.905  0.00  0.00    +0.000 OA
ATOM     10  H   UNK A   1       3.916   6.302  17.228  0.00  0.00    +0.000 HD
ATOM     11  H   VAL A   2       8.592   5.403  16.858  0.00  0.00    +0.000 HD
ENDROOT
BRANCH   1  16
ATOM     12  C   UNK A   1       2.531   4.572  19.965  0.00  0.00    +0.000 A 
ATOM     13  N   UNK A   1       1.463   5.416  20.203  0.00  0.00    +0.000 N 
ATOM     14  C   UNK A   1       1.888   6.704  20.055  0.00  0.00    +0.000 A 
ATOM     15  N   UNK A   1       3.148   6.753  19.697  0.00  0.00    +0.000 NA
ATOM     16  C   UNK A   1       3.558   5.441  19.630  0.00  0.00    +0.000 A 
ATOM     17  H   UNK A   1       0.530   5.136  20.471  0.00  0.00    +0.000 HD
BRANCH  12  18
ATOM     18  C   UNK A   1       2.424   3.058  20.093  0.00  0.00    +0.000 C 
ATOM     19  C   UNK A   1       1.079   2.570  19.504  0.00  0.00    +0.000 C 
ATOM     20  C   UNK A   1       2.477   2.680  21.593  0.00  0.00    +0.000 C 
BRANCH  18  22
ATOM     21  C   UNK A   1       3.495   1.710  18.185  0.00  0.00    +0.000 C 
ATOM     22  C   UNK A   1       3.553   2.280  19.399  0.00  0.00    +0.000 C 
ENDBRANCH  18  22
ENDBRANCH  12  18
ENDBRANCH   1  16
BRANCH   6  23
ATOM     23  CB  VAL A   2       6.843   4.555  14.752  0.00  0.00    +0.000 C 
ATOM     24  CG1 VAL A   2       7.267   4.863  13.308  0.00  0.00    +0.000 C 
ATOM     25  CG2 VAL A   2       5.437   3.940  14.711  0.00  0.00    +0.000 C 
ENDBRANCH   6  23
TORSDOF 4
ENDMDL
MODEL 6
REMARK VINA RESULT:      -7.2      2.356      5.987
REMARK  Name = 
REMARK  8 active torsions:
REMARK  status: ('A' for Active; 'I' for Inactive)
REMARK    1  A    between atoms: C_2  and  C_3
REMARK    2  A    between atoms: C_3  and  C_4
REMARK    3  A    between atoms: C_3  and  C_5
REMARK    4  A    between atoms: C_3  and  C_6
REMARK    5  A    between atoms: C_10  and  C_11
REMARK    6  A    between atoms: CA_16  and  CB_17
REMARK    7  A    between atoms: CB_17  and  CG1_18
REMARK    8  A    between atoms: CB_17  and  CG2_19
REMARK                            x       y       z     vdW  Elec       q    Type
REMARK                         _______ _______ _______ _____ _____    ______ ____
ROOT
ATOM      1  C   UNK A   1       4.622   3.187  18.056  0.00  0.00    +0.000 C 
ATOM      2  C   UNK A   1       5.638   4.045  17.850  0.00  0.00    +0.000 C 
ATOM      3  N   UNK A   1       6.303   4.665  18.880  0.00  0.00    +0.000 N 
ATOM      4  C   VAL A   2       7.393   5.481  18.740  0.00  0.00    +0.000 C 
ATOM      5  O   VAL A   2       7.982   5.921  19.726  0.00  0.00    +0.000 OA
ATOM      6  CA  VAL A   2       7.714   5.946  17.304  0.00  0.00    +0.000 C 
ATOM      7  N   VAL A   2       7.286   4.944  16.326  0.00  0.00    +0.000 N 
ATOM      8  C   UNK A   1       6.126   4.228  16.444  0.00  0.00    +0.000 C 
ATOM      9  O   UNK A   1       5.602   3.708  15.465  0.00  0.00    +0.000 OA
ATOM     10  H   UNK A   1       6.004   4.429  19.828  0.00  0.00    +0.000 HD
ATOM     11  H   VAL A   2       7.608   5.037  15.371  0.00  0.00    +0.000 HD
ENDROOT
BRANCH   1  16
ATOM     12  C   UNK A   1       2.812   2.975  19.818  0.00  0.00    +0.000 A 
ATOM     13  N   UNK A   1       2.863   2.377  21.062  0.00  0.00    +0.000 N 
ATOM     14  C   UNK A   1       4.101   1.829  21.229  0.00  0.00    +0.000 A 
ATOM     15  N   UNK A   1       4.871   2.066  20.196  0.00  0.00    +0.000 NA
ATOM     16  C   UNK A   1       4.091   2.781  19.317  0.00  0.00    +0.000 A 
ATOM     17  H   UNK A   1       2.106   2.323  21.729  0.00  0.00    +0.000 HD
BRANCH  12  18
ATOM     18  C   UNK A   1       1.554   3.646  19.280  0.00  0.00    +0.000 C 
ATOM     19  C   UNK A   1       0.838   4.416  20.415  0.00  0.00    +0.000 C 
ATOM     20  C   UNK A   1       0.600   2.553  18.740  0.00  0.00    +0.000 C 
BRANCH  18  22
ATOM     21  C   UNK A   1       2.319   5.863  18.231  0.00  0.00    +0.000 C 
ATOM     22  C   UNK A   1       1.802   4.629  18.125  0.00  0.00    +0.000 C 
ENDBRANCH  18  22
ENDBRANCH  12  18
ENDBRANCH   1  16
BRANCH   6  23
ATOM     23  CB  VAL A   2       7.119   7.345  16.999  0.00  0.00    +0.000 C 
ATOM     24  CG1 VAL A   2       7.898   8.453  17.724  0.00  0.00    +0.000 C 
ATOM     25  CG2 VAL A   2       5.648   7.444  17.426  0.00  0.00    +0.000 C 
ENDBRANCH   6  23
TORSDOF 4
ENDMDL
MODEL 7
REMARK VINA RESULT:      -7.0      1.616      2.849
REMARK  Name = 
REMARK  8 active torsions:
REMARK  status: ('A' for Active; 'I' for Inactive)
REMARK    1  A    between atoms: C_2  and  C_3
REMARK    2  A    between atoms: C_3  and  C_4
REMARK    3  A    between atoms: C_3  and  C_5
REMARK    4  A    between atoms: C_3  and  C_6
REMARK    5  A    between atoms: C_10  and  C_11
REMARK    6  A    between atoms: CA_16  and  CB_17
REMARK    7  A    between atoms: CB_17  and  CG1_18
REMARK    8  A    between atoms: CB_17  and  CG2_19
REMARK                            x       y       z     vdW  Elec       q    Type
REMARK                         _______ _______ _______ _____ _____    ______ ____
ROOT
ATOM      1  C   UNK A   1       6.017   4.138  18.810  0.00  0.00    +0.000 C 
ATOM      2  C   UNK A   1       4.686   3.947  18.857  0.00  0.00    +0.000 C 
ATOM      3  N   UNK A   1       3.791   4.835  18.312  0.00  0.00    +0.000 N 
ATOM      4  C   VAL A   2       2.435   4.657  18.253  0.00  0.00    +0.000 C 
ATOM      5  O   VAL A   2       1.717   5.463  17.664  0.00  0.00    +0.000 OA
ATOM      6  CA  VAL A   2       1.864   3.505  19.109  0.00  0.00    +0.000 C 
ATOM      7  N   VAL A   2       2.846   2.429  19.251  0.00  0.00    +0.000 N 
ATOM      8  C   UNK A   1       4.185   2.652  19.423  0.00  0.00    +0.000 C 
ATOM      9  O   UNK A   1       4.910   1.797  19.921  0.00  0.00    +0.000 OA
ATOM     10  H   UNK A   1       4.184   5.653  17.842  0.00  0.00    +0.000 HD
ATOM     11  H   VAL A   2       2.534   1.540  19.622  0.00  0.00    +0.000 HD
ENDROOT
BRANCH   1  16
ATOM     12  C   UNK A   1       6.792   5.563  16.862  0.00  0.00    +0.000 A 
ATOM     13  N   UNK A   1       7.558   6.713  16.864  0.00  0.00    +0.000 N 
ATOM     14  C   UNK A   1       7.841   7.043  18.157  0.00  0.00    +0.000 A 
ATOM     15  N   UNK A   1       7.346   6.164  18.993  0.00  0.00    +0.000 NA
ATOM     16  C   UNK A   1       6.700   5.238  18.207  0.00  0.00    +0.000 A 
ATOM     17  H   UNK A   1       7.841   7.243  16.051  0.00  0.00    +0.000 HD
BRANCH  12  18
ATOM     18  C   UNK A   1       6.254   4.938  15.581  0.00  0.00    +0.000 C 
ATOM     19  C   UNK A   1       4.959   5.661  15.143  0.00  0.00    +0.000 C 
ATOM     20  C   UNK A   1       5.928   3.450  15.853  0.00  0.00    +0.000 C 
BRANCH  18  22
ATOM     21  C   UNK A   1       7.005   4.492  13.164  0.00  0.00    +0.000 C 
ATOM     22  C   UNK A   1       7.235   4.968  14.398  0.00  0.00    +0.000 C 
ENDBRANCH  18  22
ENDBRANCH  12  18
ENDBRANCH   1  16
BRANCH   6  23
ATOM     23  CB  VAL A   2       1.345   4.002  20.482  0.00  0.00    +0.000 C 
ATOM     24  CG1 VAL A   2       2.062   5.289  20.918  0.00  0.00    +0.000 C 
ATOM     25  CG2 VAL A   2       1.548   2.951  21.582  0.00  0.00    +0.000 C 
ENDBRANCH   6  23
TORSDOF 4
ENDMDL
MODEL 8
REMARK VINA RESULT:      -7.0      0.947      1.678
REMARK  Name = 
REMARK  8 active torsions:
REMARK  status: ('A' for Active; 'I' for Inactive)
REMARK    1  A    between atoms: C_2  and  C_3
REMARK    2  A    between atoms: C_3  and  C_4
REMARK    3  A    between atoms: C_3  and  C_5
REMARK    4  A    between atoms: C_3  and  C_6
REMARK    5  A    between atoms: C_10  and  C_11
REMARK    6  A    between atoms: CA_16  and  CB_17
REMARK    7  A    between atoms: CB_17  and  CG1_18
REMARK    8  A    between atoms: CB_17  and  CG2_19
REMARK                            x       y       z     vdW  Elec       q    Type
REMARK                         _______ _______ _______ _____ _____    ______ ____
ROOT
ATOM      1  C   UNK A   1       5.285   3.138  16.749  0.00  0.00    +0.000 C 
ATOM      2  C   UNK A   1       4.129   3.376  17.396  0.00  0.00    +0.000 C 
ATOM      3  N   UNK A   1       3.491   4.591  17.347  0.00  0.00    +0.000 N 
ATOM      4  C   VAL A   2       2.275   4.869  17.913  0.00  0.00    +0.000 C 
ATOM      5  O   VAL A   2       1.735   5.961  17.743  0.00  0.00    +0.000 OA
ATOM      6  CA  VAL A   2       1.729   3.817  18.902  0.00  0.00    +0.000 C 
ATOM      7  N   VAL A   2       2.202   2.478  18.547  0.00  0.00    +0.000 N 
ATOM      8  C   UNK A   1       3.467   2.224  18.092  0.00  0.00    +0.000 C 
ATOM      9  O   UNK A   1       3.957   1.103  18.177  0.00  0.00    +0.000 OA
ATOM     10  H   UNK A   1       3.925   5.317  16.774  0.00  0.00    +0.000 HD
ATOM     11  H   VAL A   2       1.767   1.681  18.994  0.00  0.00    +0.000 HD
ENDROOT
BRANCH   1  16
ATOM     12  C   UNK A   1       6.736   5.172  16.321  0.00  0.00    +0.000 A 
ATOM     13  N   UNK A   1       7.219   5.672  15.127  0.00  0.00    +0.000 N 
ATOM     14  C   UNK A   1       6.820   4.845  14.118  0.00  0.00    +0.000 A 
ATOM     15  N   UNK A   1       6.077   3.865  14.571  0.00  0.00    +0.000 NA
ATOM     16  C   UNK A   1       6.009   4.057  15.931  0.00  0.00    +0.000 A 
ATOM     17  H   UNK A   1       7.796   6.494  15.015  0.00  0.00    +0.000 HD
BRANCH  12  18
ATOM     18  C   UNK A   1       7.037   5.824  17.665  0.00  0.00    +0.000 C 
ATOM     19  C   UNK A   1       7.725   4.807  18.605  0.00  0.00    +0.000 C 
ATOM     20  C   UNK A   1       5.704   6.275  18.308  0.00  0.00    +0.000 C 
BRANCH  18  22
ATOM     21  C   UNK A   1       7.519   8.348  17.610  0.00  0.00    +0.000 C 
ATOM     22  C   UNK A   1       7.932   7.070  17.581  0.00  0.00    +0.000 C 
ENDBRANCH  18  22
ENDBRANCH  12  18
ENDBRANCH   1  16
BRANCH   6  23
ATOM     23  CB  VAL A   2       2.056   4.176  20.374  0.00  0.00    +0.000 C 
ATOM     24  CG1 VAL A   2       1.480   3.134  21.344  0.00  0.00    +0.000 C 
ATOM     25  CG2 VAL A   2       1.491   5.550  20.763  0.00  0.00    +0.000 C 
ENDBRANCH   6  23
TORSDOF 4
ENDMDL
MODEL 9
REMARK VINA RESULT:      -7.0      2.387      5.961
REMARK  Name = 
REMARK  8 active torsions:
REMARK  status: ('A' for Active; 'I' for Inactive)
REMARK    1  A    between atoms: C_2  and  C_3
REMARK    2  A    between atoms: C_3  and  C_4
REMARK    3  A    between atoms: C_3  and  C_5
REMARK    4  A    between atoms: C_3  and  C_6
REMARK    5  A    between atoms: C_10  and  C_11
REMARK    6  A    between atoms: CA_16  and  CB_17
REMARK    7  A    between atoms: CB_17  and  CG1_18
REMARK    8  A    between atoms: CB_17  and  CG2_19
REMARK                            x       y       z     vdW  Elec       q    Type
REMARK                         _______ _______ _______ _____ _____    ______ ____
ROOT
ATOM      1  C   UNK A   1       4.746   5.173  19.520  0.00  0.00    +0.000 C 
ATOM      2  C   UNK A   1       5.429   5.483  18.403  0.00  0.00    +0.000 C 
ATOM      3  N   UNK A   1       4.825   6.004  17.286  0.00  0.00    +0.000 N 
ATOM      4  C   VAL A   2       5.474   6.415  16.153  0.00  0.00    +0.000 C 
ATOM      5  O   VAL A   2       4.861   6.955  15.234  0.00  0.00    +0.000 OA
ATOM      6  CA  VAL A   2       6.957   6.003  16.033  0.00  0.00    +0.000 C 
ATOM      7  N   VAL A   2       7.571   5.885  17.356  0.00  0.00    +0.000 N 
ATOM      8  C   UNK A   1       6.924   5.360  18.440  0.00  0.00    +0.000 C 
ATOM      9  O   UNK A   1       7.550   4.915  19.397  0.00  0.00    +0.000 OA
ATOM     10  H   UNK A   1       3.818   6.170  17.343  0.00  0.00    +0.000 HD
ATOM     11  H   VAL A   2       8.579   5.810  17.412  0.00  0.00    +0.000 HD
ENDROOT
BRANCH   1  16
ATOM     12  C   UNK A   1       2.313   4.471  19.389  0.00  0.00    +0.000 A 
ATOM     13  N   UNK A   1       1.184   5.128  19.838  0.00  0.00    +0.000 N 
ATOM     14  C   UNK A   1       1.570   6.285  20.449  0.00  0.00    +0.000 A 
ATOM     15  N   UNK A   1       2.869   6.444  20.393  0.00  0.00    +0.000 NA
ATOM     16  C   UNK A   1       3.344   5.334  19.734  0.00  0.00    +0.000 A 
ATOM     17  H   UNK A   1       0.232   4.800  19.756  0.00  0.00    +0.000 HD
BRANCH  12  18
ATOM     18  C   UNK A   1       2.254   3.114  18.699  0.00  0.00    +0.000 C 
ATOM     19  C   UNK A   1       2.543   3.275  17.189  0.00  0.00    +0.000 C 
ATOM     20  C   UNK A   1       0.833   2.528  18.875  0.00  0.00    +0.000 C 
BRANCH  18  22
ATOM     21  C   UNK A   1       3.973   1.210  18.542  0.00  0.00    +0.000 C 
ATOM     22  C   UNK A   1       3.236   2.073  19.260  0.00  0.00    +0.000 C 
ENDBRANCH  18  22
ENDBRANCH  12  18
ENDBRANCH   1  16
BRANCH   6  23
ATOM     23  CB  VAL A   2       7.135   4.712  15.193  0.00  0.00    +0.000 C 
ATOM     24  CG1 VAL A   2       7.424   5.039  13.720  0.00  0.00    +0.000 C 
ATOM     25  CG2 VAL A   2       5.885   3.822  15.244  0.00  0.00    +0.000 C 
ENDBRANCH   6  23
TORSDOF 4
ENDMDL
