MODEL 1
REMARK VINA RESULT:      -8.8      0.000      0.000
REMARK  Name = 
REMARK  5 active torsions:
REMARK  status: ('A' for Active; 'I' for Inactive)
REMARK    1  A    between atoms: C_1  and  N_2
REMARK    2  A    between atoms: C_5  and  S_6
REMARK    3  A    between atoms: S_6  and  N_9
REMARK    4  A    between atoms: N_9  and  C_10
REMARK    5  A    between atoms: N_22  and  C_23
REMARK                            x       y       z     vdW  Elec       q    Type
REMARK                         _______ _______ _______ _____ _____    ______ ____
ROOT
ATOM      1  C   UNL     1      -0.384  10.398  18.174  0.00  0.00    +0.000 C 
ATOM      2  N   UNL     1      -0.856  10.969  19.430  0.00  0.00    +0.000 N 
ATOM      3  C   UNL     1      -1.783  12.011  19.418  0.00  0.00    +0.000 A 
ATOM      4  O   UNL     1      -2.222  12.487  18.389  0.00  0.00    +0.000 OA
ATOM      5  C   UNL     1      -2.183  12.534  20.750  0.00  0.00    +0.000 A 
ATOM      6  C   UNL     1      -1.736  11.996  21.892  0.00  0.00    +0.000 A 
ATOM      7  C   UNL     1      -0.796  10.893  21.838  0.00  0.00    +0.000 A 
ATOM      8  C   UNL     1      -0.273  10.275  22.952  0.00  0.00    +0.000 A 
ATOM      9  N   UNL     1       0.617   9.265  22.903  0.00  0.00    +0.000 NA
ATOM     10  C   UNL     1       0.988   8.853  21.684  0.00  0.00    +0.000 A 
ATOM     11  N   UNL     1       1.901   7.807  21.603  0.00  0.00    +0.000 N 
ATOM     12  N   UNL     1       0.535   9.408  20.549  0.00  0.00    +0.000 NA
ATOM     13  C   UNL     1      -0.355  10.404  20.630  0.00  0.00    +0.000 A 
ATOM     14  H   UNL     1       2.304   7.569  22.496  0.00  0.00    +0.000 HD
ENDROOT
BRANCH  11  15
ATOM     15  C   UNL     1       1.999   6.868  20.565  0.00  0.00    +0.000 A 
ATOM     16  C   UNL     1       2.409   7.282  19.292  0.00  0.00    +0.000 A 
ATOM     17  C   UNL     1       2.422   6.411  18.197  0.00  0.00    +0.000 A 
ATOM     18  C   UNL     1       2.025   5.091  18.423  0.00  0.00    +0.000 A 
ATOM     19  N   UNL     1       1.946   4.028  17.554  0.00  0.00    +0.000 N 
ATOM     20  C   UNL     1       1.514   2.909  18.215  0.00  0.00    +0.000 A 
ATOM     21  C   UNL     1       1.280   3.258  19.525  0.00  0.00    +0.000 A 
ATOM     22  C   UNL     1       1.612   4.631  19.671  0.00  0.00    +0.000 A 
ATOM     23  C   UNL     1       1.591   5.535  20.750  0.00  0.00    +0.000 A 
ATOM     24  H   UNL     1       2.183   4.073  16.573  0.00  0.00    +0.000 HD
ENDBRANCH  11  15
BRANCH   5  25
ATOM     25  S   UNL     1      -3.298  13.853  20.853  0.00  0.00    +0.000 S 
ATOM     26  O   UNL     1      -3.938  13.867  22.142  0.00  0.00    +0.000 OA
ATOM     27  O   UNL     1      -2.590  15.060  20.426  0.00  0.00    +0.000 OA
BRANCH  25  28
ATOM     28  N   UNL     1      -4.532  13.594  19.713  0.00  0.00    +0.000 N 
ATOM     29  H   UNL     1      -4.355  14.014  18.794  0.00  0.00    +0.000 HD
BRANCH  28  30
ATOM     30  C   UNL     1      -5.356  12.433  19.775  0.00  0.00    +0.000 A 
ATOM     31  C   UNL     1      -6.234  12.292  20.855  0.00  0.00    +0.000 A 
ATOM     32  C   UNL     1      -7.099  11.196  20.927  0.00  0.00    +0.000 A 
ATOM     33  C   UNL     1      -7.081  10.247  19.914  0.00  0.00    +0.000 A 
ATOM     34  F   UNL     1      -7.912   9.198  19.975  0.00  0.00    +0.000 F 
ATOM     35  C   UNL     1      -6.215  10.375  18.832  0.00  0.00    +0.000 A 
ATOM     36  C   UNL     1      -5.347  11.471  18.761  0.00  0.00    +0.000 A 
ENDBRANCH  28  30
ENDBRANCH  25  28
ENDBRANCH   5  25
TORSDOF 4
ENDMDL
MODEL 2
REMARK VINA RESULT:      -8.8      5.209     10.048
REMARK  Name = 
REMARK  5 active torsions:
REMARK  status: ('A' for Active; 'I' for Inactive)
REMARK    1  A    between atoms: C_1  and  N_2
REMARK    2  A    between atoms: C_5  and  S_6
REMARK    3  A    between atoms: S_6  and  N_9
REMARK    4  A    between atoms: N_9  and  C_10
REMARK    5  A    between atoms: N_22  and  C_23
REMARK                            x       y       z     vdW  Elec       q    Type
REMARK                         _______ _______ _______ _____ _____    ______ ____
ROOT
ATOM      1  C   UNL     1       0.710   7.651  21.789  0.00  0.00    +0.000 C 
ATOM      2  N   UNL     1       1.392   7.469  20.513  0.00  0.00    +0.000 N 
ATOM      3  C   UNL     1       1.878   6.212  20.154  0.00  0.00    +0.000 A 
ATOM      4  O   UNL     1       1.768   5.237  20.872  0.00  0.00    +0.000 OA
ATOM      5  C   UNL     1       2.573   6.138  18.843  0.00  0.00    +0.000 A 
ATOM      6  C   UNL     1       2.668   7.195  18.026  0.00  0.00    +0.000 A 
ATOM      7  C   UNL     1       2.116   8.469  18.443  0.00  0.00    +0.000 A 
ATOM      8  C   UNL     1       2.168   9.615  17.680  0.00  0.00    +0.000 A 
ATOM      9  N   UNL     1       1.674  10.804  18.077  0.00  0.00    +0.000 NA
ATOM     10  C   UNL     1       1.096  10.840  19.284  0.00  0.00    +0.000 A 
ATOM     11  N   UNL     1       0.571  12.053  19.716  0.00  0.00    +0.000 N 
ATOM     12  N   UNL     1       1.014   9.773  20.094  0.00  0.00    +0.000 NA
ATOM     13  C   UNL     1       1.506   8.603  19.670  0.00  0.00    +0.000 A 
ATOM     14  H   UNL     1       0.824  12.825  19.118  0.00  0.00    +0.000 HD
ENDROOT
BRANCH  11  15
ATOM     15  C   UNL     1      -0.512  12.226  20.592  0.00  0.00    +0.000 A 
ATOM     16  C   UNL     1      -0.335  12.017  21.964  0.00  0.00    +0.000 A 
ATOM     17  C   UNL     1      -1.402  12.072  22.866  0.00  0.00    +0.000 A 
ATOM     18  C   UNL     1      -2.667  12.363  22.348  0.00  0.00    +0.000 A 
ATOM     19  N   UNL     1      -3.878  12.488  22.985  0.00  0.00    +0.000 N 
ATOM     20  C   UNL     1      -4.859  12.796  22.079  0.00  0.00    +0.000 A 
ATOM     21  C   UNL     1      -4.280  12.840  20.831  0.00  0.00    +0.000 A 
ATOM     22  C   UNL     1      -2.892  12.582  20.992  0.00  0.00    +0.000 A 
ATOM     23  C   UNL     1      -1.802  12.502  20.105  0.00  0.00    +0.000 A 
ATOM     24  H   UNL     1      -4.016  12.377  23.980  0.00  0.00    +0.000 HD
ENDBRANCH  11  15
BRANCH   5  25
ATOM     25  S   UNL     1       3.250   4.637  18.315  0.00  0.00    +0.000 S 
ATOM     26  O   UNL     1       3.872   3.953  19.418  0.00  0.00    +0.000 OA
ATOM     27  O   UNL     1       2.214   3.928  17.564  0.00  0.00    +0.000 OA
BRANCH  25  28
ATOM     28  N   UNL     1       4.494   4.978  17.206  0.00  0.00    +0.000 N 
ATOM     29  H   UNL     1       4.177   5.098  16.238  0.00  0.00    +0.000 HD
BRANCH  28  30
ATOM     30  C   UNL     1       5.676   5.659  17.618  0.00  0.00    +0.000 A 
ATOM     31  C   UNL     1       5.998   6.873  17.000  0.00  0.00    +0.000 A 
ATOM     32  C   UNL     1       7.119   7.601  17.410  0.00  0.00    +0.000 A 
ATOM     33  C   UNL     1       7.909   7.111  18.440  0.00  0.00    +0.000 A 
ATOM     34  F   UNL     1       8.981   7.808  18.842  0.00  0.00    +0.000 F 
ATOM     35  C   UNL     1       7.600   5.907  19.067  0.00  0.00    +0.000 A 
ATOM     36  C   UNL     1       6.479   5.176  18.655  0.00  0.00    +0.000 A 
ENDBRANCH  28  30
ENDBRANCH  25  28
ENDBRANCH   5  25
TORSDOF 4
ENDMDL
MODEL 3
REMARK VINA RESULT:      -8.7      5.449     10.212
REMARK  Name = 
REMARK  5 active torsions:
REMARK  status: ('A' for Active; 'I' for Inactive)
REMARK    1  A    between atoms: C_1  and  N_2
REMARK    2  A    between atoms: C_5  and  S_6
REMARK    3  A    between atoms: S_6  and  N_9
REMARK    4  A    between atoms: N_9  and  C_10
REMARK    5  A    between atoms: N_22  and  C_23
REMARK                            x       y       z     vdW  Elec       q    Type
REMARK                         _______ _______ _______ _____ _____    ______ ____
ROOT
ATOM      1  C   UNL     1       0.999   7.142  21.520  0.00  0.00    +0.000 C 
ATOM      2  N   UNL     1       1.755   6.781  20.326  0.00  0.00    +0.000 N 
ATOM      3  C   UNL     1       2.246   5.484  20.178  0.00  0.00    +0.000 A 
ATOM      4  O   UNL     1       2.080   4.620  21.017  0.00  0.00    +0.000 OA
ATOM      5  C   UNL     1       3.020   5.224  18.937  0.00  0.00    +0.000 A 
ATOM      6  C   UNL     1       3.178   6.156  17.987  0.00  0.00    +0.000 A 
ATOM      7  C   UNL     1       2.617   7.478  18.186  0.00  0.00    +0.000 A 
ATOM      8  C   UNL     1       2.730   8.505  17.276  0.00  0.00    +0.000 A 
ATOM      9  N   UNL     1       2.228   9.740  17.471  0.00  0.00    +0.000 NA
ATOM     10  C   UNL     1       1.578   9.947  18.622  0.00  0.00    +0.000 A 
ATOM     11  N   UNL     1       1.043  11.211  18.847  0.00  0.00    +0.000 N 
ATOM     12  N   UNL     1       1.433   9.004  19.567  0.00  0.00    +0.000 NA
ATOM     13  C   UNL     1       1.935   7.785  19.342  0.00  0.00    +0.000 A 
ATOM     14  H   UNL     1       1.341  11.890  18.164  0.00  0.00    +0.000 HD
ENDROOT
BRANCH  11  15
ATOM     15  C   UNL     1      -0.090  11.509  19.620  0.00  0.00    +0.000 A 
ATOM     16  C   UNL     1      -1.184  12.150  19.029  0.00  0.00    +0.000 A 
ATOM     17  C   UNL     1      -2.293  12.564  19.774  0.00  0.00    +0.000 A 
ATOM     18  C   UNL     1      -2.280  12.298  21.147  0.00  0.00    +0.000 A 
ATOM     19  N   UNL     1      -3.218  12.576  22.112  0.00  0.00    +0.000 N 
ATOM     20  C   UNL     1      -2.790  12.121  23.331  0.00  0.00    +0.000 A 
ATOM     21  C   UNL     1      -1.542  11.566  23.159  0.00  0.00    +0.000 A 
ATOM     22  C   UNL     1      -1.217  11.660  21.779  0.00  0.00    +0.000 A 
ATOM     23  C   UNL     1      -0.106  11.271  21.007  0.00  0.00    +0.000 A 
ATOM     24  H   UNL     1      -4.097  13.042  21.938  0.00  0.00    +0.000 HD
ENDBRANCH  11  15
BRANCH   5  25
ATOM     25  S   UNL     1       3.709   3.661  18.667  0.00  0.00    +0.000 S 
ATOM     26  O   UNL     1       4.201   3.111  19.903  0.00  0.00    +0.000 OA
ATOM     27  O   UNL     1       2.736   2.877  17.907  0.00  0.00    +0.000 OA
BRANCH  25  28
ATOM     28  N   UNL     1       5.065   3.848  17.657  0.00  0.00    +0.000 N 
ATOM     29  H   UNL     1       4.904   3.587  16.678  0.00  0.00    +0.000 HD
BRANCH  28  30
ATOM     30  C   UNL     1       6.058   4.831  17.937  0.00  0.00    +0.000 A 
ATOM     31  C   UNL     1       6.329   5.802  16.967  0.00  0.00    +0.000 A 
ATOM     32  C   UNL     1       7.256   6.818  17.221  0.00  0.00    +0.000 A 
ATOM     33  C   UNL     1       7.904   6.857  18.448  0.00  0.00    +0.000 A 
ATOM     34  F   UNL     1       8.788   7.831  18.699  0.00  0.00    +0.000 F 
ATOM     35  C   UNL     1       7.642   5.899  19.424  0.00  0.00    +0.000 A 
ATOM     36  C   UNL     1       6.716   4.881  19.169  0.00  0.00    +0.000 A 
ENDBRANCH  28  30
ENDBRANCH  25  28
ENDBRANCH   5  25
TORSDOF 4
ENDMDL
MODEL 4
REMARK VINA RESULT:      -8.6      2.830      3.701
REMARK  Name = 
REMARK  5 active torsions:
REMARK  status: ('A' for Active; 'I' for Inactive)
REMARK    1  A    between atoms: C_1  and  N_2
REMARK    2  A    between atoms: C_5  and  S_6
REMARK    3  A    between atoms: S_6  and  N_9
REMARK    4  A    between atoms: N_9  and  C_10
REMARK    5  A    between atoms: N_22  and  C_23
REMARK                            x       y       z     vdW  Elec       q    Type
REMARK                         _______ _______ _______ _____ _____    ______ ____
ROOT
ATOM      1  C   UNL     1       0.537   7.793  21.677  0.00  0.00    +0.000 C 
ATOM      2  N   UNL     1       0.413   9.161  21.187  0.00  0.00    +0.000 N 
ATOM      3  C   UNL     1      -0.249  10.120  21.953  0.00  0.00    +0.000 A 
ATOM      4  O   UNL     1      -0.749   9.866  23.032  0.00  0.00    +0.000 OA
ATOM      5  C   UNL     1      -0.336  11.477  21.355  0.00  0.00    +0.000 A 
ATOM      6  C   UNL     1       0.243  11.779  20.185  0.00  0.00    +0.000 A 
ATOM      7  C   UNL     1       0.943  10.745  19.450  0.00  0.00    +0.000 A 
ATOM      8  C   UNL     1       1.564  10.952  18.238  0.00  0.00    +0.000 A 
ATOM      9  N   UNL     1       2.197   9.986  17.543  0.00  0.00    +0.000 NA
ATOM     10  C   UNL     1       2.213   8.766  18.094  0.00  0.00    +0.000 A 
ATOM     11  N   UNL     1       2.865   7.751  17.402  0.00  0.00    +0.000 N 
ATOM     12  N   UNL     1       1.623   8.478  19.265  0.00  0.00    +0.000 NA
ATOM     13  C   UNL     1       1.010   9.459  19.936  0.00  0.00    +0.000 A 
ATOM     14  H   UNL     1       3.131   8.021  16.468  0.00  0.00    +0.000 HD
ENDROOT
BRANCH  11  15
ATOM     15  C   UNL     1       3.493   6.630  17.967  0.00  0.00    +0.000 A 
ATOM     16  C   UNL     1       4.889   6.532  17.942  0.00  0.00    +0.000 A 
ATOM     17  C   UNL     1       5.560   5.391  18.395  0.00  0.00    +0.000 A 
ATOM     18  C   UNL     1       4.782   4.344  18.896  0.00  0.00    +0.000 A 
ATOM     19  N   UNL     1       5.159   3.126  19.409  0.00  0.00    +0.000 N 
ATOM     20  C   UNL     1       4.054   2.414  19.795  0.00  0.00    +0.000 A 
ATOM     21  C   UNL     1       2.943   3.169  19.500  0.00  0.00    +0.000 A 
ATOM     22  C   UNL     1       3.391   4.397  18.944  0.00  0.00    +0.000 A 
ATOM     23  C   UNL     1       2.742   5.550  18.465  0.00  0.00    +0.000 A 
ATOM     24  H   UNL     1       6.116   2.812  19.493  0.00  0.00    +0.000 HD
ENDBRANCH  11  15
BRANCH   5  25
ATOM     25  S   UNL     1      -1.169  12.735  22.201  0.00  0.00    +0.000 S 
ATOM     26  O   UNL     1      -0.405  13.160  23.344  0.00  0.00    +0.000 OA
ATOM     27  O   UNL     1      -1.552  13.747  21.217  0.00  0.00    +0.000 OA
BRANCH  25  28
ATOM     28  N   UNL     1      -2.619  12.091  22.812  0.00  0.00    +0.000 N 
ATOM     29  H   UNL     1      -2.495  11.414  23.573  0.00  0.00    +0.000 HD
BRANCH  28  30
ATOM     30  C   UNL     1      -3.830  12.841  22.770  0.00  0.00    +0.000 A 
ATOM     31  C   UNL     1      -4.068  13.785  23.775  0.00  0.00    +0.000 A 
ATOM     32  C   UNL     1      -5.217  14.581  23.741  0.00  0.00    +0.000 A 
ATOM     33  C   UNL     1      -6.120  14.430  22.699  0.00  0.00    +0.000 A 
ATOM     34  F   UNL     1      -7.219  15.195  22.659  0.00  0.00    +0.000 F 
ATOM     35  C   UNL     1      -5.895  13.498  21.690  0.00  0.00    +0.000 A 
ATOM     36  C   UNL     1      -4.746  12.699  21.724  0.00  0.00    +0.000 A 
ENDBRANCH  28  30
ENDBRANCH  25  28
ENDBRANCH   5  25
TORSDOF 4
ENDMDL
MODEL 5
REMARK VINA RESULT:      -8.5      5.277      9.795
REMARK  Name = 
REMARK  5 active torsions:
REMARK  status: ('A' for Active; 'I' for Inactive)
REMARK    1  A    between atoms: C_1  and  N_2
REMARK    2  A    between atoms: C_5  and  S_6
REMARK    3  A    between atoms: S_6  and  N_9
REMARK    4  A    between atoms: N_9  and  C_10
REMARK    5  A    between atoms: N_22  and  C_23
REMARK                            x       y       z     vdW  Elec       q    Type
REMARK                         _______ _______ _______ _____ _____    ______ ____
ROOT
ATOM      1  C   UNL     1       1.282  10.707  18.134  0.00  0.00    +0.000 C 
ATOM      2  N   UNL     1       1.376   9.619  19.100  0.00  0.00    +0.000 N 
ATOM      3  C   UNL     1       1.960   8.407  18.731  0.00  0.00    +0.000 A 
ATOM      4  O   UNL     1       2.398   8.203  17.616  0.00  0.00    +0.000 OA
ATOM      5  C   UNL     1       1.988   7.357  19.782  0.00  0.00    +0.000 A 
ATOM      6  C   UNL     1       1.543   7.581  21.026  0.00  0.00    +0.000 A 
ATOM      7  C   UNL     1       0.974   8.873  21.357  0.00  0.00    +0.000 A 
ATOM      8  C   UNL     1       0.484   9.200  22.601  0.00  0.00    +0.000 A 
ATOM      9  N   UNL     1      -0.065  10.393  22.902  0.00  0.00    +0.000 NA
ATOM     10  C   UNL     1      -0.115  11.296  21.916  0.00  0.00    +0.000 A 
ATOM     11  N   UNL     1      -0.670  12.538  22.200  0.00  0.00    +0.000 N 
ATOM     12  N   UNL     1       0.330  11.054  20.672  0.00  0.00    +0.000 NA
ATOM     13  C   UNL     1       0.878   9.863  20.405  0.00  0.00    +0.000 A 
ATOM     14  H   UNL     1      -1.121  12.569  23.102  0.00  0.00    +0.000 HD
ENDROOT
BRANCH  11  15
ATOM     15  C   UNL     1      -0.339  13.757  21.588  0.00  0.00    +0.000 A 
ATOM     16  C   UNL     1      -1.211  14.321  20.650  0.00  0.00    +0.000 A 
ATOM     17  C   UNL     1      -0.883  15.477  19.933  0.00  0.00    +0.000 A 
ATOM     18  C   UNL     1       0.355  16.068  20.200  0.00  0.00    +0.000 A 
ATOM     19  N   UNL     1       0.933  17.195  19.666  0.00  0.00    +0.000 N 
ATOM     20  C   UNL     1       2.160  17.411  20.234  0.00  0.00    +0.000 A 
ATOM     21  C   UNL     1       2.395  16.393  21.129  0.00  0.00    +0.000 A 
ATOM     22  C   UNL     1       1.255  15.546  21.126  0.00  0.00    +0.000 A 
ATOM     23  C   UNL     1       0.905  14.372  21.819  0.00  0.00    +0.000 A 
ATOM     24  H   UNL     1       0.505  17.778  18.961  0.00  0.00    +0.000 HD
ENDBRANCH  11  15
BRANCH   5  25
ATOM     25  S   UNL     1       2.654   5.802  19.423  0.00  0.00    +0.000 S 
ATOM     26  O   UNL     1       2.739   5.005  20.619  0.00  0.00    +0.000 OA
ATOM     27  O   UNL     1       1.909   5.257  18.288  0.00  0.00    +0.000 OA
BRANCH  25  28
ATOM     28  N   UNL     1       4.251   6.021  18.884  0.00  0.00    +0.000 N 
ATOM     29  H   UNL     1       4.945   6.098  19.635  0.00  0.00    +0.000 HD
BRANCH  28  30
ATOM     30  C   UNL     1       4.677   5.509  17.624  0.00  0.00    +0.000 A 
ATOM     31  C   UNL     1       4.878   6.407  16.570  0.00  0.00    +0.000 A 
ATOM     32  C   UNL     1       5.348   5.953  15.334  0.00  0.00    +0.000 A 
ATOM     33  C   UNL     1       5.617   4.603  15.161  0.00  0.00    +0.000 A 
ATOM     34  F   UNL     1       6.074   4.165  13.980  0.00  0.00    +0.000 F 
ATOM     35  C   UNL     1       5.425   3.698  16.201  0.00  0.00    +0.000 A 
ATOM     36  C   UNL     1       4.953   4.151  17.439  0.00  0.00    +0.000 A 
ENDBRANCH  28  30
ENDBRANCH  25  28
ENDBRANCH   5  25
TORSDOF 4
ENDMDL
MODEL 6
REMARK VINA RESULT:      -8.5      5.403     10.160
REMARK  Name = 
REMARK  5 active torsions:
REMARK  status: ('A' for Active; 'I' for Inactive)
REMARK    1  A    between atoms: C_1  and  N_2
REMARK    2  A    between atoms: C_5  and  S_6
REMARK    3  A    between atoms: S_6  and  N_9
REMARK    4  A    between atoms: N_9  and  C_10
REMARK    5  A    between atoms: N_22  and  C_23
REMARK                            x       y       z     vdW  Elec       q    Type
REMARK                         _______ _______ _______ _____ _____    ______ ____
ROOT
ATOM      1  C   UNL     1       1.034   7.352  21.521  0.00  0.00    +0.000 C 
ATOM      2  N   UNL     1       1.761   6.792  20.387  0.00  0.00    +0.000 N 
ATOM      3  C   UNL     1       2.151   5.454  20.400  0.00  0.00    +0.000 A 
ATOM      4  O   UNL     1       1.920   4.712  21.335  0.00  0.00    +0.000 OA
ATOM      5  C   UNL     1       2.902   4.988  19.206  0.00  0.00    +0.000 A 
ATOM      6  C   UNL     1       3.131   5.784  18.152  0.00  0.00    +0.000 A 
ATOM      7  C   UNL     1       2.673   7.159  18.186  0.00  0.00    +0.000 A 
ATOM      8  C   UNL     1       2.864   8.057  17.160  0.00  0.00    +0.000 A 
ATOM      9  N   UNL     1       2.458   9.341  17.200  0.00  0.00    +0.000 NA
ATOM     10  C   UNL     1       1.826   9.734  18.312  0.00  0.00    +0.000 A 
ATOM     11  N   UNL     1       1.389  11.053  18.379  0.00  0.00    +0.000 N 
ATOM     12  N   UNL     1       1.609   8.926  19.362  0.00  0.00    +0.000 NA
ATOM     13  C   UNL     1       2.017   7.654  19.290  0.00  0.00    +0.000 A 
ATOM     14  H   UNL     1       1.738  11.620  17.621  0.00  0.00    +0.000 HD
ENDROOT
BRANCH  11  15
ATOM     15  C   UNL     1       0.283  11.527  19.100  0.00  0.00    +0.000 A 
ATOM     16  C   UNL     1       0.435  11.896  20.441  0.00  0.00    +0.000 A 
ATOM     17  C   UNL     1      -0.653  12.274  21.235  0.00  0.00    +0.000 A 
ATOM     18  C   UNL     1      -1.913  12.288  20.632  0.00  0.00    +0.000 A 
ATOM     19  N   UNL     1      -3.142  12.618  21.154  0.00  0.00    +0.000 N 
ATOM     20  C   UNL     1      -4.110  12.500  20.192  0.00  0.00    +0.000 A 
ATOM     21  C   UNL     1      -3.505  12.057  19.038  0.00  0.00    +0.000 A 
ATOM     22  C   UNL     1      -2.115  11.933  19.301  0.00  0.00    +0.000 A 
ATOM     23  C   UNL     1      -1.004  11.539  18.532  0.00  0.00    +0.000 A 
ATOM     24  H   UNL     1      -3.298  12.913  22.107  0.00  0.00    +0.000 HD
ENDBRANCH  11  15
BRANCH   5  25
ATOM     25  S   UNL     1       3.470   3.356  19.132  0.00  0.00    +0.000 S 
ATOM     26  O   UNL     1       3.091   2.640  20.322  0.00  0.00    +0.000 OA
ATOM     27  O   UNL     1       3.060   2.806  17.841  0.00  0.00    +0.000 OA
BRANCH  25  28
ATOM     28  N   UNL     1       5.170   3.387  19.119  0.00  0.00    +0.000 N 
ATOM     29  H   UNL     1       5.612   2.462  19.160  0.00  0.00    +0.000 HD
BRANCH  28  30
ATOM     30  C   UNL     1       5.879   4.444  18.478  0.00  0.00    +0.000 A 
ATOM     31  C   UNL     1       6.554   5.377  19.274  0.00  0.00    +0.000 A 
ATOM     32  C   UNL     1       7.307   6.397  18.685  0.00  0.00    +0.000 A 
ATOM     33  C   UNL     1       7.382   6.476  17.301  0.00  0.00    +0.000 A 
ATOM     34  F   UNL     1       8.108   7.448  16.732  0.00  0.00    +0.000 F 
ATOM     35  C   UNL     1       6.719   5.554  16.497  0.00  0.00    +0.000 A 
ATOM     36  C   UNL     1       5.964   4.533  17.086  0.00  0.00    +0.000 A 
ENDBRANCH  28  30
ENDBRANCH  25  28
ENDBRANCH   5  25
TORSDOF 4
ENDMDL
MODEL 7
REMARK VINA RESULT:      -8.4      2.942      3.908
REMARK  Name = 
REMARK  5 active torsions:
REMARK  status: ('A' for Active; 'I' for Inactive)
REMARK    1  A    between atoms: C_1  and  N_2
REMARK    2  A    between atoms: C_5  and  S_6
REMARK    3  A    between atoms: S_6  and  N_9
REMARK    4  A    between atoms: N_9  and  C_10
REMARK    5  A    between atoms: N_22  and  C_23
REMARK                            x       y       z     vdW  Elec       q    Type
REMARK                         _______ _______ _______ _____ _____    ______ ____
ROOT
ATOM      1  C   UNL     1      -0.154   8.503  21.701  0.00  0.00    +0.000 C 
ATOM      2  N   UNL     1       0.135   9.839  21.195  0.00  0.00    +0.000 N 
ATOM      3  C   UNL     1      -0.277  10.962  21.912  0.00  0.00    +0.000 A 
ATOM      4  O   UNL     1      -0.889  10.882  22.960  0.00  0.00    +0.000 OA
ATOM      5  C   UNL     1       0.049  12.275  21.300  0.00  0.00    +0.000 A 
ATOM      6  C   UNL     1       0.755  12.378  20.166  0.00  0.00    +0.000 A 
ATOM      7  C   UNL     1       1.182  11.174  19.482  0.00  0.00    +0.000 A 
ATOM      8  C   UNL     1       1.904  11.172  18.309  0.00  0.00    +0.000 A 
ATOM      9  N   UNL     1       2.282  10.052  17.662  0.00  0.00    +0.000 NA
ATOM     10  C   UNL     1       1.928   8.889  18.221  0.00  0.00    +0.000 A 
ATOM     11  N   UNL     1       2.311   7.717  17.578  0.00  0.00    +0.000 N 
ATOM     12  N   UNL     1       1.215   8.803  19.355  0.00  0.00    +0.000 NA
ATOM     13  C   UNL     1       0.862   9.931  19.980  0.00  0.00    +0.000 A 
ATOM     14  H   UNL     1       2.694   7.881  16.659  0.00  0.00    +0.000 HD
ENDROOT
BRANCH  11  15
ATOM     15  C   UNL     1       2.571   6.480  18.188  0.00  0.00    +0.000 A 
ATOM     16  C   UNL     1       3.748   6.303  18.923  0.00  0.00    +0.000 A 
ATOM     17  C   UNL     1       4.107   5.063  19.462  0.00  0.00    +0.000 A 
ATOM     18  C   UNL     1       3.231   3.995  19.254  0.00  0.00    +0.000 A 
ATOM     19  N   UNL     1       3.315   2.686  19.666  0.00  0.00    +0.000 N 
ATOM     20  C   UNL     1       2.216   1.986  19.243  0.00  0.00    +0.000 A 
ATOM     21  C   UNL     1       1.422   2.847  18.521  0.00  0.00    +0.000 A 
ATOM     22  C   UNL     1       2.046   4.122  18.533  0.00  0.00    +0.000 A 
ATOM     23  C   UNL     1       1.720   5.378  17.987  0.00  0.00    +0.000 A 
ATOM     24  H   UNL     1       4.077   2.305  20.208  0.00  0.00    +0.000 HD
ENDBRANCH  11  15
BRANCH   5  25
ATOM     25  S   UNL     1      -0.449  13.734  22.084  0.00  0.00    +0.000 S 
ATOM     26  O   UNL     1       0.692  14.431  22.619  0.00  0.00    +0.000 OA
ATOM     27  O   UNL     1      -1.320  14.456  21.157  0.00  0.00    +0.000 OA
BRANCH  25  28
ATOM     28  N   UNL     1      -1.416  13.315  23.419  0.00  0.00    +0.000 N 
ATOM     29  H   UNL     1      -0.895  13.159  24.288  0.00  0.00    +0.000 HD
BRANCH  28  30
ATOM     30  C   UNL     1      -2.767  13.759  23.514  0.00  0.00    +0.000 A 
ATOM     31  C   UNL     1      -3.790  12.872  23.160  0.00  0.00    +0.000 A 
ATOM     32  C   UNL     1      -5.130  13.248  23.290  0.00  0.00    +0.000 A 
ATOM     33  C   UNL     1      -5.439  14.510  23.777  0.00  0.00    +0.000 A 
ATOM     34  F   UNL     1      -6.722  14.873  23.910  0.00  0.00    +0.000 F 
ATOM     35  C   UNL     1      -4.432  15.403  24.136  0.00  0.00    +0.000 A 
ATOM     36  C   UNL     1      -3.090  15.027  24.004  0.00  0.00    +0.000 A 
ENDBRANCH  28  30
ENDBRANCH  25  28
ENDBRANCH   5  25
TORSDOF 4
ENDMDL
MODEL 8
REMARK VINA RESULT:      -8.4      2.424      3.221
REMARK  Name = 
REMARK  5 active torsions:
REMARK  status: ('A' for Active; 'I' for Inactive)
REMARK    1  A    between atoms: C_1  and  N_2
REMARK    2  A    between atoms: C_5  and  S_6
REMARK    3  A    between atoms: S_6  and  N_9
REMARK    4  A    between atoms: N_9  and  C_10
REMARK    5  A    between atoms: N_22  and  C_23
REMARK                            x       y       z     vdW  Elec       q    Type
REMARK                         _______ _______ _______ _____ _____    ______ ____
ROOT
ATOM      1  C   UNL     1       0.576   7.638  21.687  0.00  0.00    +0.000 C 
ATOM      2  N   UNL     1       0.394   9.027  21.281  0.00  0.00    +0.000 N 
ATOM      3  C   UNL     1      -0.289   9.913  22.114  0.00  0.00    +0.000 A 
ATOM      4  O   UNL     1      -0.760   9.578  23.183  0.00  0.00    +0.000 OA
ATOM      5  C   UNL     1      -0.436  11.299  21.599  0.00  0.00    +0.000 A 
ATOM      6  C   UNL     1       0.109  11.691  20.440  0.00  0.00    +0.000 A 
ATOM      7  C   UNL     1       0.834  10.729  19.633  0.00  0.00    +0.000 A 
ATOM      8  C   UNL     1       1.425  11.030  18.426  0.00  0.00    +0.000 A 
ATOM      9  N   UNL     1       2.079  10.131  17.665  0.00  0.00    +0.000 NA
ATOM     10  C   UNL     1       2.150   8.882  18.142  0.00  0.00    +0.000 A 
ATOM     11  N   UNL     1       2.826   7.935  17.381  0.00  0.00    +0.000 N 
ATOM     12  N   UNL     1       1.592   8.504  19.303  0.00  0.00    +0.000 NA
ATOM     13  C   UNL     1       0.956   9.420  20.041  0.00  0.00    +0.000 A 
ATOM     14  H   UNL     1       3.065   8.269  16.460  0.00  0.00    +0.000 HD
ENDROOT
BRANCH  11  15
ATOM     15  C   UNL     1       3.505   6.808  17.868  0.00  0.00    +0.000 A 
ATOM     16  C   UNL     1       4.900   6.744  17.774  0.00  0.00    +0.000 A 
ATOM     17  C   UNL     1       5.617   5.602  18.146  0.00  0.00    +0.000 A 
ATOM     18  C   UNL     1       4.887   4.517  18.638  0.00  0.00    +0.000 A 
ATOM     19  N   UNL     1       5.315   3.288  19.081  0.00  0.00    +0.000 N 
ATOM     20  C   UNL     1       4.246   2.534  19.488  0.00  0.00    +0.000 A 
ATOM     21  C   UNL     1       3.105   3.274  19.277  0.00  0.00    +0.000 A 
ATOM     22  C   UNL     1       3.500   4.534  18.753  0.00  0.00    +0.000 A 
ATOM     23  C   UNL     1       2.803   5.690  18.354  0.00  0.00    +0.000 A 
ATOM     24  H   UNL     1       6.281   2.994  19.107  0.00  0.00    +0.000 HD
ENDBRANCH  11  15
BRANCH   5  25
ATOM     25  S   UNL     1      -1.300  12.473  22.531  0.00  0.00    +0.000 S 
ATOM     26  O   UNL     1      -2.248  11.824  23.399  0.00  0.00    +0.000 OA
ATOM     27  O   UNL     1      -0.312  13.364  23.139  0.00  0.00    +0.000 OA
BRANCH  25  28
ATOM     28  N   UNL     1      -2.212  13.430  21.463  0.00  0.00    +0.000 N 
ATOM     29  H   UNL     1      -1.668  14.135  20.954  0.00  0.00    +0.000 HD
BRANCH  28  30
ATOM     30  C   UNL     1      -3.394  12.922  20.850  0.00  0.00    +0.000 A 
ATOM     31  C   UNL     1      -4.610  13.052  21.531  0.00  0.00    +0.000 A 
ATOM     32  C   UNL     1      -5.801  12.616  20.942  0.00  0.00    +0.000 A 
ATOM     33  C   UNL     1      -5.769  12.056  19.673  0.00  0.00    +0.000 A 
ATOM     34  F   UNL     1      -6.909  11.643  19.103  0.00  0.00    +0.000 F 
ATOM     35  C   UNL     1      -4.568  11.923  18.982  0.00  0.00    +0.000 A 
ATOM     36  C   UNL     1      -3.374  12.357  19.572  0.00  0.00    +0.000 A 
ENDBRANCH  28  30
ENDBRANCH  25  28
ENDBRANCH   5  25
TORSDOF 4
ENDMDL
MODEL 9
REMARK VINA RESULT:      -8.4      5.427      9.827
REMARK  Name = 
REMARK  5 active torsions:
REMARK  status: ('A' for Active; 'I' for Inactive)
REMARK    1  A    between atoms: C_1  and  N_2
REMARK    2  A    between atoms: C_5  and  S_6
REMARK    3  A    between atoms: S_6  and  N_9
REMARK    4  A    between atoms: N_9  and  C_10
REMARK    5  A    between atoms: N_22  and  C_23
REMARK                            x       y       z     vdW  Elec       q    Type
REMARK                         _______ _______ _______ _____ _____    ______ ____
ROOT
ATOM      1  C   UNL     1       1.743  10.492  18.008  0.00  0.00    +0.000 C 
ATOM      2  N   UNL     1       1.635   9.482  19.055  0.00  0.00    +0.000 N 
ATOM      3  C   UNL     1       2.109   8.190  18.829  0.00  0.00    +0.000 A 
ATOM      4  O   UNL     1       2.612   7.851  17.776  0.00  0.00    +0.000 OA
ATOM      5  C   UNL     1       1.935   7.233  19.952  0.00  0.00    +0.000 A 
ATOM      6  C   UNL     1       1.417   7.603  21.131  0.00  0.00    +0.000 A 
ATOM      7  C   UNL     1       0.969   8.970  21.314  0.00  0.00    +0.000 A 
ATOM      8  C   UNL     1       0.418   9.447  22.482  0.00  0.00    +0.000 A 
ATOM      9  N   UNL     1      -0.018  10.711  22.645  0.00  0.00    +0.000 NA
ATOM     10  C   UNL     1       0.115  11.530  21.595  0.00  0.00    +0.000 A 
ATOM     11  N   UNL     1      -0.321  12.844  21.738  0.00  0.00    +0.000 N 
ATOM     12  N   UNL     1       0.630  11.142  20.418  0.00  0.00    +0.000 NA
ATOM     13  C   UNL     1       1.063   9.883  20.288  0.00  0.00    +0.000 A 
ATOM     14  H   UNL     1      -0.838  12.995  22.590  0.00  0.00    +0.000 HD
ENDROOT
BRANCH  11  15
ATOM     15  C   UNL     1       0.193  13.967  21.071  0.00  0.00    +0.000 A 
ATOM     16  C   UNL     1       1.386  14.549  21.512  0.00  0.00    +0.000 A 
ATOM     17  C   UNL     1       1.886  15.730  20.952  0.00  0.00    +0.000 A 
ATOM     18  C   UNL     1       1.154  16.308  19.912  0.00  0.00    +0.000 A 
ATOM     19  N   UNL     1       1.401  17.444  19.178  0.00  0.00    +0.000 N 
ATOM     20  C   UNL     1       0.416  17.626  18.244  0.00  0.00    +0.000 A 
ATOM     21  C   UNL     1      -0.501  16.611  18.395  0.00  0.00    +0.000 A 
ATOM     22  C   UNL     1      -0.037  15.764  19.437  0.00  0.00    +0.000 A 
ATOM     23  C   UNL     1      -0.525  14.586  20.032  0.00  0.00    +0.000 A 
ATOM     24  H   UNL     1       2.201  18.046  19.309  0.00  0.00    +0.000 HD
ENDBRANCH  11  15
BRANCH   5  25
ATOM     25  S   UNL     1       2.451   5.592  19.768  0.00  0.00    +0.000 S 
ATOM     26  O   UNL     1       2.289   4.875  21.005  0.00  0.00    +0.000 OA
ATOM     27  O   UNL     1       1.795   5.057  18.575  0.00  0.00    +0.000 OA
BRANCH  25  28
ATOM     28  N   UNL     1       4.118   5.596  19.436  0.00  0.00    +0.000 N 
ATOM     29  H   UNL     1       4.712   5.390  20.246  0.00  0.00    +0.000 HD
BRANCH  28  30
ATOM     30  C   UNL     1       4.608   5.262  18.140  0.00  0.00    +0.000 A 
ATOM     31  C   UNL     1       5.262   6.251  17.396  0.00  0.00    +0.000 A 
ATOM     32  C   UNL     1       5.807   5.952  16.144  0.00  0.00    +0.000 A 
ATOM     33  C   UNL     1       5.696   4.662  15.644  0.00  0.00    +0.000 A 
ATOM     34  F   UNL     1       6.221   4.369  14.447  0.00  0.00    +0.000 F 
ATOM     35  C   UNL     1       5.051   3.667  16.373  0.00  0.00    +0.000 A 
ATOM     36  C   UNL     1       4.504   3.967  17.626  0.00  0.00    +0.000 A 
ENDBRANCH  28  30
ENDBRANCH  25  28
ENDBRANCH   5  25
TORSDOF 4
ENDMDL
