MODEL 1
REMARK VINA RESULT:      -6.4      0.000      0.000
REMARK  Name = 
REMARK  1 active torsions:
REMARK  status: ('A' for Active; 'I' for Inactive)
REMARK    1  A    between atoms: C_2  and  C_3
REMARK                            x       y       z     vdW  Elec       q    Type
REMARK                         _______ _______ _______ _____ _____    ______ ____
ROOT
ATOM      1  C   UNL     1       3.894   7.660  17.117  0.00  0.00    +0.000 C 
ATOM      2  C   UNL     1       4.036   6.354  17.391  0.00  0.00    +0.000 C 
ATOM      3  C   UNL     1       3.218   5.467  18.346  0.00  0.00    +0.000 C 
ATOM      4  N   UNL     1       3.641   4.135  18.495  0.00  0.00    +0.000 N 
ATOM      5  C   UNL     1       4.994   3.772  18.936  0.00  0.00    +0.000 C 
ATOM      6  C   UNL     1       4.927   2.659  19.997  0.00  0.00    +0.000 C 
ATOM      7  N   UNL     1       4.213   1.456  19.523  0.00  0.00    +0.000 NA
ATOM      8  C   UNL     1       2.882   1.838  18.999  0.00  0.00    +0.000 C 
ATOM      9  C   UNL     1       2.893   2.996  17.969  0.00  0.00    +0.000 C 
ATOM     10  N   UNL     1       2.175   5.759  19.084  0.00  0.00    +0.000 NA
ATOM     11  C   UNL     1       1.629   7.007  19.432  0.00  0.00    +0.000 A 
ATOM     12  C   UNL     1       0.849   7.039  21.082  0.00  0.00    +0.000 A 
ATOM     13  C   UNL     1       0.338   8.600  21.876  0.00  0.00    +0.000 A 
ATOM     14  C   UNL     1       0.624  10.204  20.978  0.00  0.00    +0.000 A 
ATOM     15  C   UNL     1       1.398  10.161  19.338  0.00  0.00    +0.000 A 
ATOM     16  C   UNL     1       1.898   8.583  18.571  0.00  0.00    +0.000 A 
ATOM     17  C   UNL     1       3.014   8.766  17.572  0.00  0.00    +0.000 C 
ATOM     18  H   UNL     1       4.087   0.823  20.312  0.00  0.00    +0.000 HD
ENDROOT
BRANCH   2  19
ATOM     19  C   UNL     1       5.055   5.694  16.496  0.00  0.00    +0.000 A 
ATOM     20  C   UNL     1       4.703   4.834  15.437  0.00  0.00    +0.000 A 
ATOM     21  C   UNL     1       5.688   4.288  14.600  0.00  0.00    +0.000 A 
ATOM     22  C   UNL     1       7.035   4.561  14.831  0.00  0.00    +0.000 A 
ATOM     23  C   UNL     1       7.403   5.371  15.895  0.00  0.00    +0.000 A 
ATOM     24  C   UNL     1       6.419   5.932  16.728  0.00  0.00    +0.000 A 
ENDBRANCH   2  19
TORSDOF 1
ENDMDL
MODEL 2
REMARK VINA RESULT:      -6.4      0.087      1.007
REMARK  Name = 
REMARK  1 active torsions:
REMARK  status: ('A' for Active; 'I' for Inactive)
REMARK    1  A    between atoms: C_2  and  C_3
REMARK                            x       y       z     vdW  Elec       q    Type
REMARK                         _______ _______ _______ _____ _____    ______ ____
ROOT
ATOM      1  C   UNL     1       3.930   7.681  17.118  0.00  0.00    +0.000 C 
ATOM      2  C   UNL     1       4.086   6.374  17.381  0.00  0.00    +0.000 C 
ATOM      3  C   UNL     1       3.264   5.467  18.313  0.00  0.00    +0.000 C 
ATOM      4  N   UNL     1       3.702   4.139  18.455  0.00  0.00    +0.000 N 
ATOM      5  C   UNL     1       5.053   3.789  18.913  0.00  0.00    +0.000 C 
ATOM      6  C   UNL     1       4.983   2.664  19.962  0.00  0.00    +0.000 C 
ATOM      7  N   UNL     1       4.293   1.457  19.464  0.00  0.00    +0.000 NA
ATOM      8  C   UNL     1       2.966   1.827  18.922  0.00  0.00    +0.000 C 
ATOM      9  C   UNL     1       2.978   2.996  17.905  0.00  0.00    +0.000 C 
ATOM     10  N   UNL     1       2.205   5.737  19.037  0.00  0.00    +0.000 NA
ATOM     11  C   UNL     1       1.637   6.973  19.389  0.00  0.00    +0.000 A 
ATOM     12  C   UNL     1       0.830   6.978  21.027  0.00  0.00    +0.000 A 
ATOM     13  C   UNL     1       0.285   8.523  21.828  0.00  0.00    +0.000 A 
ATOM     14  C   UNL     1       0.564  10.141  20.952  0.00  0.00    +0.000 A 
ATOM     15  C   UNL     1       1.366  10.125  19.324  0.00  0.00    +0.000 A 
ATOM     16  C   UNL     1       1.899   8.563  18.549  0.00  0.00    +0.000 A 
ATOM     17  C   UNL     1       3.028   8.770  17.570  0.00  0.00    +0.000 C 
ATOM     18  H   UNL     1       4.163   0.814  20.244  0.00  0.00    +0.000 HD
ENDROOT
BRANCH   2  19
ATOM     19  C   UNL     1       5.127   5.738  16.495  0.00  0.00    +0.000 A 
ATOM     20  C   UNL     1       6.512   5.887  16.710  0.00  0.00    +0.000 A 
ATOM     21  C   UNL     1       7.439   5.229  15.887  0.00  0.00    +0.000 A 
ATOM     22  C   UNL     1       7.000   4.449  14.819  0.00  0.00    +0.000 A 
ATOM     23  C   UNL     1       5.642   4.327  14.565  0.00  0.00    +0.000 A 
ATOM     24  C   UNL     1       4.708   4.972  15.396  0.00  0.00    +0.000 A 
ENDBRANCH   2  19
TORSDOF 1
ENDMDL
MODEL 3
REMARK VINA RESULT:      -6.2      9.071     11.773
REMARK  Name = 
REMARK  1 active torsions:
REMARK  status: ('A' for Active; 'I' for Inactive)
REMARK    1  A    between atoms: C_2  and  C_3
REMARK                            x       y       z     vdW  Elec       q    Type
REMARK                         _______ _______ _______ _____ _____    ______ ____
ROOT
ATOM      1  C   UNL     1       9.180  11.616  21.572  0.00  0.00    +0.000 C 
ATOM      2  C   UNL     1       8.407  12.621  22.011  0.00  0.00    +0.000 C 
ATOM      3  C   UNL     1       7.987  13.911  21.285  0.00  0.00    +0.000 C 
ATOM      4  N   UNL     1       7.224  14.835  22.020  0.00  0.00    +0.000 N 
ATOM      5  C   UNL     1       7.681  15.414  23.290  0.00  0.00    +0.000 C 
ATOM      6  C   UNL     1       7.418  16.931  23.306  0.00  0.00    +0.000 C 
ATOM      7  N   UNL     1       5.999  17.271  23.079  0.00  0.00    +0.000 NA
ATOM      8  C   UNL     1       5.518  16.613  21.844  0.00  0.00    +0.000 C 
ATOM      9  C   UNL     1       5.811  15.094  21.756  0.00  0.00    +0.000 C 
ATOM     10  N   UNL     1       8.248  14.317  20.066  0.00  0.00    +0.000 NA
ATOM     11  C   UNL     1       9.182  13.841  19.131  0.00  0.00    +0.000 A 
ATOM     12  C   UNL     1       9.853  15.134  18.030  0.00  0.00    +0.000 A 
ATOM     13  C   UNL     1      11.284  14.826  16.942  0.00  0.00    +0.000 A 
ATOM     14  C   UNL     1      12.083  13.146  16.957  0.00  0.00    +0.000 A 
ATOM     15  C   UNL     1      11.407  11.867  18.052  0.00  0.00    +0.000 A 
ATOM     16  C   UNL     1       9.975  12.207  19.129  0.00  0.00    +0.000 A 
ATOM     17  C   UNL     1       9.949  11.307  20.340  0.00  0.00    +0.000 C 
ATOM     18  H   UNL     1       5.922  18.281  22.966  0.00  0.00    +0.000 HD
ENDROOT
BRANCH   2  19
ATOM     19  C   UNL     1       7.774  12.310  23.344  0.00  0.00    +0.000 A 
ATOM     20  C   UNL     1       6.463  11.810  23.473  0.00  0.00    +0.000 A 
ATOM     21  C   UNL     1       5.940  11.487  24.734  0.00  0.00    +0.000 A 
ATOM     22  C   UNL     1       6.702  11.693  25.883  0.00  0.00    +0.000 A 
ATOM     23  C   UNL     1       7.979  12.225  25.779  0.00  0.00    +0.000 A 
ATOM     24  C   UNL     1       8.512  12.537  24.516  0.00  0.00    +0.000 A 
ENDBRANCH   2  19
TORSDOF 1
ENDMDL
MODEL 4
REMARK VINA RESULT:      -6.2      9.113     11.816
REMARK  Name = 
REMARK  1 active torsions:
REMARK  status: ('A' for Active; 'I' for Inactive)
REMARK    1  A    between atoms: C_2  and  C_3
REMARK                            x       y       z     vdW  Elec       q    Type
REMARK                         _______ _______ _______ _____ _____    ______ ____
ROOT
ATOM      1  C   UNL     1       9.308  11.679  21.554  0.00  0.00    +0.000 C 
ATOM      2  C   UNL     1       8.496  12.656  21.987  0.00  0.00    +0.000 C 
ATOM      3  C   UNL     1       8.015  13.918  21.249  0.00  0.00    +0.000 C 
ATOM      4  N   UNL     1       7.219  14.817  21.979  0.00  0.00    +0.000 N 
ATOM      5  C   UNL     1       7.660  15.432  23.238  0.00  0.00    +0.000 C 
ATOM      6  C   UNL     1       7.333  16.936  23.237  0.00  0.00    +0.000 C 
ATOM      7  N   UNL     1       5.899  17.212  23.018  0.00  0.00    +0.000 NA
ATOM      8  C   UNL     1       5.437  16.518  21.795  0.00  0.00    +0.000 C 
ATOM      9  C   UNL     1       5.794  15.012  21.723  0.00  0.00    +0.000 C 
ATOM     10  N   UNL     1       8.249  14.319  20.023  0.00  0.00    +0.000 NA
ATOM     11  C   UNL     1       9.195  13.872  19.086  0.00  0.00    +0.000 A 
ATOM     12  C   UNL     1       9.801  15.178  17.963  0.00  0.00    +0.000 A 
ATOM     13  C   UNL     1      11.235  14.917  16.866  0.00  0.00    +0.000 A 
ATOM     14  C   UNL     1      12.106  13.274  16.895  0.00  0.00    +0.000 A 
ATOM     15  C   UNL     1      11.494  11.981  18.013  0.00  0.00    +0.000 A 
ATOM     16  C   UNL     1      10.057  12.273  19.097  0.00  0.00    +0.000 A 
ATOM     17  C   UNL     1      10.080  11.389  20.320  0.00  0.00    +0.000 C 
ATOM     18  H   UNL     1       5.778  18.216  22.893  0.00  0.00    +0.000 HD
ENDROOT
BRANCH   2  19
ATOM     19  C   UNL     1       7.888  12.335  23.329  0.00  0.00    +0.000 A 
ATOM     20  C   UNL     1       8.563  12.545  24.548  0.00  0.00    +0.000 A 
ATOM     21  C   UNL     1       7.931  12.279  25.772  0.00  0.00    +0.000 A 
ATOM     22  C   UNL     1       6.636  11.765  25.796  0.00  0.00    +0.000 A 
ATOM     23  C   UNL     1       5.972  11.510  24.605  0.00  0.00    +0.000 A 
ATOM     24  C   UNL     1       6.595  11.789  23.376  0.00  0.00    +0.000 A 
ENDBRANCH   2  19
TORSDOF 1
ENDMDL
MODEL 5
REMARK VINA RESULT:      -6.2      9.444     11.220
REMARK  Name = 
REMARK  1 active torsions:
REMARK  status: ('A' for Active; 'I' for Inactive)
REMARK    1  A    between atoms: C_2  and  C_3
REMARK                            x       y       z     vdW  Elec       q    Type
REMARK                         _______ _______ _______ _____ _____    ______ ____
ROOT
ATOM      1  C   UNL     1       8.791  11.690  22.186  0.00  0.00    +0.000 C 
ATOM      2  C   UNL     1       9.291  12.726  21.495  0.00  0.00    +0.000 C 
ATOM      3  C   UNL     1       9.337  14.216  21.876  0.00  0.00    +0.000 C 
ATOM      4  N   UNL     1       9.859  15.102  20.918  0.00  0.00    +0.000 N 
ATOM      5  C   UNL     1       9.311  15.221  19.560  0.00  0.00    +0.000 C 
ATOM      6  C   UNL     1       9.171  16.705  19.173  0.00  0.00    +0.000 C 
ATOM      7  N   UNL     1      10.445  17.445  19.268  0.00  0.00    +0.000 NA
ATOM      8  C   UNL     1      11.038  17.251  20.610  0.00  0.00    +0.000 C 
ATOM      9  C   UNL     1      11.146  15.775  21.069  0.00  0.00    +0.000 C 
ATOM     10  N   UNL     1       8.939  14.820  22.969  0.00  0.00    +0.000 NA
ATOM     11  C   UNL     1       8.129  14.357  24.020  0.00  0.00    +0.000 A 
ATOM     12  C   UNL     1       7.109  15.656  24.798  0.00  0.00    +0.000 A 
ATOM     13  C   UNL     1       5.771  15.257  25.972  0.00  0.00    +0.000 A 
ATOM     14  C   UNL     1       5.436  13.474  26.385  0.00  0.00    +0.000 A 
ATOM     15  C   UNL     1       6.457  12.191  25.609  0.00  0.00    +0.000 A 
ATOM     16  C   UNL     1       7.787  12.622  24.438  0.00  0.00    +0.000 A 
ATOM     17  C   UNL     1       8.087  11.497  23.478  0.00  0.00    +0.000 C 
ATOM     18  H   UNL     1      10.254  18.437  19.132  0.00  0.00    +0.000 HD
ENDROOT
BRANCH   2  19
ATOM     19  C   UNL     1      10.028  12.280  20.257  0.00  0.00    +0.000 A 
ATOM     20  C   UNL     1       9.376  11.967  19.048  0.00  0.00    +0.000 A 
ATOM     21  C   UNL     1      10.113  11.608  17.909  0.00  0.00    +0.000 A 
ATOM     22  C   UNL     1      11.503  11.518  17.972  0.00  0.00    +0.000 A 
ATOM     23  C   UNL     1      12.158  11.779  19.166  0.00  0.00    +0.000 A 
ATOM     24  C   UNL     1      11.425  12.154  20.306  0.00  0.00    +0.000 A 
ENDBRANCH   2  19
TORSDOF 1
ENDMDL
MODEL 6
REMARK VINA RESULT:      -6.1      7.684     10.095
REMARK  Name = 
REMARK  1 active torsions:
REMARK  status: ('A' for Active; 'I' for Inactive)
REMARK    1  A    between atoms: C_2  and  C_3
REMARK                            x       y       z     vdW  Elec       q    Type
REMARK                         _______ _______ _______ _____ _____    ______ ____
ROOT
ATOM      1  C   UNL     1      -5.334  11.771  19.073  0.00  0.00    +0.000 C 
ATOM      2  C   UNL     1      -4.001  11.739  18.922  0.00  0.00    +0.000 C 
ATOM      3  C   UNL     1      -2.901  12.158  19.914  0.00  0.00    +0.000 C 
ATOM      4  N   UNL     1      -1.574  12.086  19.458  0.00  0.00    +0.000 N 
ATOM      5  C   UNL     1      -1.101  12.800  18.264  0.00  0.00    +0.000 C 
ATOM      6  C   UNL     1       0.249  13.481  18.553  0.00  0.00    +0.000 C 
ATOM      7  N   UNL     1       1.283  12.533  19.015  0.00  0.00    +0.000 NA
ATOM      8  C   UNL     1       0.771  11.754  20.164  0.00  0.00    +0.000 C 
ATOM      9  C   UNL     1      -0.615  11.096  19.942  0.00  0.00    +0.000 C 
ATOM     10  N   UNL     1      -2.998  12.604  21.142  0.00  0.00    +0.000 NA
ATOM     11  C   UNL     1      -4.115  13.077  21.852  0.00  0.00    +0.000 A 
ATOM     12  C   UNL     1      -3.723  14.377  23.072  0.00  0.00    +0.000 A 
ATOM     13  C   UNL     1      -5.027  15.349  23.897  0.00  0.00    +0.000 A 
ATOM     14  C   UNL     1      -6.807  15.007  23.482  0.00  0.00    +0.000 A 
ATOM     15  C   UNL     1      -7.187  13.710  22.270  0.00  0.00    +0.000 A 
ATOM     16  C   UNL     1      -5.860  12.755  21.461  0.00  0.00    +0.000 A 
ATOM     17  C   UNL     1      -6.289  12.208  20.122  0.00  0.00    +0.000 C 
ATOM     18  H   UNL     1       2.099  13.065  19.315  0.00  0.00    +0.000 HD
ENDROOT
BRANCH   2  19
ATOM     19  C   UNL     1      -3.591  11.047  17.646  0.00  0.00    +0.000 A 
ATOM     20  C   UNL     1      -2.848   9.850  17.627  0.00  0.00    +0.000 A 
ATOM     21  C   UNL     1      -2.538   9.220  16.412  0.00  0.00    +0.000 A 
ATOM     22  C   UNL     1      -2.930   9.793  15.204  0.00  0.00    +0.000 A 
ATOM     23  C   UNL     1      -3.624  10.994  15.202  0.00  0.00    +0.000 A 
ATOM     24  C   UNL     1      -3.950  11.622  16.417  0.00  0.00    +0.000 A 
ENDBRANCH   2  19
TORSDOF 1
ENDMDL
MODEL 7
REMARK VINA RESULT:      -6.1      7.656     10.088
REMARK  Name = 
REMARK  1 active torsions:
REMARK  status: ('A' for Active; 'I' for Inactive)
REMARK    1  A    between atoms: C_2  and  C_3
REMARK                            x       y       z     vdW  Elec       q    Type
REMARK                         _______ _______ _______ _____ _____    ______ ____
ROOT
ATOM      1  C   UNL     1      -5.346  11.882  19.137  0.00  0.00    +0.000 C 
ATOM      2  C   UNL     1      -4.018  11.815  18.956  0.00  0.00    +0.000 C 
ATOM      3  C   UNL     1      -2.885  12.198  19.925  0.00  0.00    +0.000 C 
ATOM      4  N   UNL     1      -1.571  12.094  19.439  0.00  0.00    +0.000 N 
ATOM      5  C   UNL     1      -1.106  12.803  18.239  0.00  0.00    +0.000 C 
ATOM      6  C   UNL     1       0.269  13.445  18.500  0.00  0.00    +0.000 C 
ATOM      7  N   UNL     1       1.287  12.467  18.933  0.00  0.00    +0.000 NA
ATOM      8  C   UNL     1       0.780  11.694  20.089  0.00  0.00    +0.000 C 
ATOM      9  C   UNL     1      -0.628  11.076  19.894  0.00  0.00    +0.000 C 
ATOM     10  N   UNL     1      -2.942  12.639  21.158  0.00  0.00    +0.000 NA
ATOM     11  C   UNL     1      -4.030  13.136  21.895  0.00  0.00    +0.000 A 
ATOM     12  C   UNL     1      -3.575  14.418  23.114  0.00  0.00    +0.000 A 
ATOM     13  C   UNL     1      -4.833  15.419  23.975  0.00  0.00    +0.000 A 
ATOM     14  C   UNL     1      -6.631  15.127  23.597  0.00  0.00    +0.000 A 
ATOM     15  C   UNL     1      -7.073  13.849  22.387  0.00  0.00    +0.000 A 
ATOM     16  C   UNL     1      -5.791  12.864  21.542  0.00  0.00    +0.000 A 
ATOM     17  C   UNL     1      -6.265  12.337  20.210  0.00  0.00    +0.000 C 
ATOM     18  H   UNL     1       2.123  12.975  19.218  0.00  0.00    +0.000 HD
ENDROOT
BRANCH   2  19
ATOM     19  C   UNL     1      -3.655  11.122  17.667  0.00  0.00    +0.000 A 
ATOM     20  C   UNL     1      -3.953  11.657  16.398  0.00  0.00    +0.000 A 
ATOM     21  C   UNL     1      -3.546  10.996  15.228  0.00  0.00    +0.000 A 
ATOM     22  C   UNL     1      -2.873   9.778  15.309  0.00  0.00    +0.000 A 
ATOM     23  C   UNL     1      -2.610   9.215  16.548  0.00  0.00    +0.000 A 
ATOM     24  C   UNL     1      -3.003   9.880  17.723  0.00  0.00    +0.000 A 
ENDBRANCH   2  19
TORSDOF 1
ENDMDL
MODEL 8
REMARK VINA RESULT:      -6.0      9.457     11.285
REMARK  Name = 
REMARK  1 active torsions:
REMARK  status: ('A' for Active; 'I' for Inactive)
REMARK    1  A    between atoms: C_2  and  C_3
REMARK                            x       y       z     vdW  Elec       q    Type
REMARK                         _______ _______ _______ _____ _____    ______ ____
ROOT
ATOM      1  C   UNL     1       8.769  11.723  22.230  0.00  0.00    +0.000 C 
ATOM      2  C   UNL     1       9.270  12.771  21.558  0.00  0.00    +0.000 C 
ATOM      3  C   UNL     1       9.309  14.256  21.961  0.00  0.00    +0.000 C 
ATOM      4  N   UNL     1       9.833  15.157  21.019  0.00  0.00    +0.000 N 
ATOM      5  C   UNL     1       9.291  15.295  19.661  0.00  0.00    +0.000 C 
ATOM      6  C   UNL     1       9.149  16.784  19.295  0.00  0.00    +0.000 C 
ATOM      7  N   UNL     1      10.420  17.527  19.407  0.00  0.00    +0.000 NA
ATOM      8  C   UNL     1      11.007  17.314  20.749  0.00  0.00    +0.000 C 
ATOM      9  C   UNL     1      11.118  15.831  21.186  0.00  0.00    +0.000 C 
ATOM     10  N   UNL     1       8.904  14.842  23.062  0.00  0.00    +0.000 NA
ATOM     11  C   UNL     1       8.091  14.360  24.101  0.00  0.00    +0.000 A 
ATOM     12  C   UNL     1       7.064  15.644  24.894  0.00  0.00    +0.000 A 
ATOM     13  C   UNL     1       5.722  15.224  26.056  0.00  0.00    +0.000 A 
ATOM     14  C   UNL     1       5.390  13.434  26.441  0.00  0.00    +0.000 A 
ATOM     15  C   UNL     1       6.418  12.165  25.650  0.00  0.00    +0.000 A 
ATOM     16  C   UNL     1       7.753  12.619  24.492  0.00  0.00    +0.000 A 
ATOM     17  C   UNL     1       8.060  11.509  23.517  0.00  0.00    +0.000 C 
ATOM     18  H   UNL     1      10.226  18.520  19.286  0.00  0.00    +0.000 HD
ENDROOT
BRANCH   2  19
ATOM     19  C   UNL     1      10.013  12.346  20.316  0.00  0.00    +0.000 A 
ATOM     20  C   UNL     1      11.417  12.232  20.264  0.00  0.00    +0.000 A 
ATOM     21  C   UNL     1      12.055  11.780  19.099  0.00  0.00    +0.000 A 
ATOM     22  C   UNL     1      11.308  11.474  17.963  0.00  0.00    +0.000 A 
ATOM     23  C   UNL     1       9.930  11.622  17.982  0.00  0.00    +0.000 A 
ATOM     24  C   UNL     1       9.283  12.060  19.152  0.00  0.00    +0.000 A 
ENDBRANCH   2  19
TORSDOF 1
ENDMDL
MODEL 9
REMARK VINA RESULT:      -5.9      6.786      9.273
REMARK  Name = 
REMARK  1 active torsions:
REMARK  status: ('A' for Active; 'I' for Inactive)
REMARK    1  A    between atoms: C_2  and  C_3
REMARK                            x       y       z     vdW  Elec       q    Type
REMARK                         _______ _______ _______ _____ _____    ______ ____
ROOT
ATOM      1  C   UNL     1      -0.290  14.215  18.685  0.00  0.00    +0.000 C 
ATOM      2  C   UNL     1      -0.566  13.134  19.431  0.00  0.00    +0.000 C 
ATOM      3  C   UNL     1       0.151  12.613  20.689  0.00  0.00    +0.000 C 
ATOM      4  N   UNL     1      -0.312  11.402  21.229  0.00  0.00    +0.000 N 
ATOM      5  C   UNL     1      -0.369  10.154  20.456  0.00  0.00    +0.000 C 
ATOM      6  C   UNL     1       0.183   8.985  21.292  0.00  0.00    +0.000 C 
ATOM      7  N   UNL     1      -0.524   8.813  22.577  0.00  0.00    +0.000 NA
ATOM      8  C   UNL     1      -0.541  10.096  23.315  0.00  0.00    +0.000 C 
ATOM      9  C   UNL     1      -1.035  11.315  22.495  0.00  0.00    +0.000 C 
ATOM     10  N   UNL     1       1.167  13.114  21.350  0.00  0.00    +0.000 NA
ATOM     11  C   UNL     1       2.073  14.127  20.992  0.00  0.00    +0.000 A 
ATOM     12  C   UNL     1       3.749  13.898  21.679  0.00  0.00    +0.000 A 
ATOM     13  C   UNL     1       5.164  14.906  21.124  0.00  0.00    +0.000 A 
ATOM     14  C   UNL     1       4.891  16.201  19.817  0.00  0.00    +0.000 A 
ATOM     15  C   UNL     1       3.221  16.422  19.142  0.00  0.00    +0.000 A 
ATOM     16  C   UNL     1       1.827  15.399  19.719  0.00  0.00    +0.000 A 
ATOM     17  C   UNL     1       0.737  15.286  18.681  0.00  0.00    +0.000 C 
ATOM     18  H   UNL     1      -0.024   8.120  23.131  0.00  0.00    +0.000 HD
ENDROOT
BRANCH   2  19
ATOM     19  C   UNL     1      -1.854  12.470  19.014  0.00  0.00    +0.000 A 
ATOM     20  C   UNL     1      -3.055  12.601  19.741  0.00  0.00    +0.000 A 
ATOM     21  C   UNL     1      -4.239  12.006  19.279  0.00  0.00    +0.000 A 
ATOM     22  C   UNL     1      -4.233  11.243  18.113  0.00  0.00    +0.000 A 
ATOM     23  C   UNL     1      -3.051  11.068  17.408  0.00  0.00    +0.000 A 
ATOM     24  C   UNL     1      -1.865  11.674  17.858  0.00  0.00    +0.000 A 
ENDBRANCH   2  19
TORSDOF 1
ENDMDL
