MODEL 1
REMARK VINA RESULT:      -8.1      0.000      0.000
REMARK  Name = 
REMARK  9 active torsions:
REMARK  status: ('A' for Active; 'I' for Inactive)
REMARK    1  A    between atoms: C_1  and  C_2
REMARK    2  A    between atoms: C_2  and  C_3
REMARK    3  A    between atoms: C_2  and  C_4
REMARK    4  A    between atoms: C_4  and  C_5
REMARK    5  A    between atoms: C_5  and  N_6
REMARK    6  A    between atoms: C_7  and  C_9
REMARK    7  A    between atoms: C_10  and  O_11
REMARK    8  A    between atoms: C_15  and  C_16
REMARK    9  A    between atoms: C_16  and  C_17
REMARK                            x       y       z     vdW  Elec       q    Type
REMARK                         _______ _______ _______ _____ _____    ______ ____
ROOT
ATOM      1  C   UNL     1       5.267   5.259  17.109  0.00  0.00    +0.000 A 
ATOM      2  C   UNL     1       4.637   6.404  16.766  0.00  0.00    +0.000 A 
ATOM      3  C   UNL     1       3.627   7.002  17.662  0.00  0.00    +0.000 A 
ATOM      4  N   UNL     1       3.040   8.165  17.294  0.00  0.00    +0.000 NA
ATOM      5  C   UNL     1       2.159   8.711  18.158  0.00  0.00    +0.000 A 
ATOM      6  C   UNL     1       1.819   8.156  19.389  0.00  0.00    +0.000 A 
ATOM      7  C   UNL     1       2.416   6.936  19.733  0.00  0.00    +0.000 A 
ATOM      8  C   UNL     1       3.334   6.362  18.863  0.00  0.00    +0.000 A 
ATOM      9  N   UNL     1       3.988   5.171  19.200  0.00  0.00    +0.000 N 
ATOM     10  C   UNL     1       4.927   4.581  18.395  0.00  0.00    +0.000 A 
ATOM     11  O   UNL     1       5.468   3.532  18.745  0.00  0.00    +0.000 OA
ATOM     12  H   UNL     1       3.786   4.705  20.074  0.00  0.00    +0.000 HD
ENDROOT
BRANCH   1  14
ATOM     13  N   UNL     1       5.846   4.358  14.910  0.00  0.00    +0.000 N 
ATOM     14  C   UNL     1       6.281   4.718  16.157  0.00  0.00    +0.000 C 
ATOM     15  O   UNL     1       7.456   4.601  16.493  0.00  0.00    +0.000 OA
ATOM     16  H   UNL     1       4.850   4.387  14.703  0.00  0.00    +0.000 HD
BRANCH  13  17
ATOM     17  C   UNL     1       6.770   3.864  13.914  0.00  0.00    +0.000 C 
BRANCH  17  18
ATOM     18  C   UNL     1       6.213   3.990  12.494  0.00  0.00    +0.000 C 
BRANCH  18  20
ATOM     19  C   UNL     1       4.158   3.221  11.222  0.00  0.00    +0.000 C 
ATOM     20  C   UNL     1       5.351   2.785  12.073  0.00  0.00    +0.000 C 
ATOM     21  C   UNL     1       6.182   1.757  11.302  0.00  0.00    +0.000 C 
ENDBRANCH  18  20
ENDBRANCH  17  18
ENDBRANCH  13  17
ENDBRANCH   1  14
BRANCH   2  22
ATOM     22  O   UNL     1       4.875   7.123  15.601  0.00  0.00    +0.000 OA
ATOM     23  H   UNL     1       4.026   7.512  15.291  0.00  0.00    +0.000 HD
ENDBRANCH   2  22
BRANCH   6  24
ATOM     24  C   UNL     1       0.902   8.879  20.332  0.00  0.00    +0.000 C 
BRANCH  24  25
ATOM     25  C   UNL     1       0.430  10.240  19.881  0.00  0.00    +0.000 A 
ATOM     26  C   UNL     1      -0.706  10.365  19.065  0.00  0.00    +0.000 A 
ATOM     27  C   UNL     1      -1.244  11.625  18.796  0.00  0.00    +0.000 A 
ATOM     28  C   UNL     1      -0.638  12.757  19.323  0.00  0.00    +0.000 A 
ATOM     29  F   UNL     1      -1.191  13.959  19.114  0.00  0.00    +0.000 F 
ATOM     30  C   UNL     1       0.521  12.660  20.083  0.00  0.00    +0.000 A 
ATOM     31  C   UNL     1       1.062  11.401  20.354  0.00  0.00    +0.000 A 
ENDBRANCH  24  25
ENDBRANCH   6  24
TORSDOF 7
ENDMDL
MODEL 2
REMARK VINA RESULT:      -8.0      5.187     10.544
REMARK  Name = 
REMARK  9 active torsions:
REMARK  status: ('A' for Active; 'I' for Inactive)
REMARK    1  A    between atoms: C_1  and  C_2
REMARK    2  A    between atoms: C_2  and  C_3
REMARK    3  A    between atoms: C_2  and  C_4
REMARK    4  A    between atoms: C_4  and  C_5
REMARK    5  A    between atoms: C_5  and  N_6
REMARK    6  A    between atoms: C_7  and  C_9
REMARK    7  A    between atoms: C_10  and  O_11
REMARK    8  A    between atoms: C_15  and  C_16
REMARK    9  A    between atoms: C_16  and  C_17
REMARK                            x       y       z     vdW  Elec       q    Type
REMARK                         _______ _______ _______ _____ _____    ______ ____
ROOT
ATOM      1  C   UNL     1       0.084  10.657  21.735  0.00  0.00    +0.000 A 
ATOM      2  C   UNL     1       0.300  10.658  20.401  0.00  0.00    +0.000 A 
ATOM      3  C   UNL     1       1.037   9.551  19.759  0.00  0.00    +0.000 A 
ATOM      4  N   UNL     1       1.207   9.578  18.416  0.00  0.00    +0.000 NA
ATOM      5  C   UNL     1       1.840   8.527  17.854  0.00  0.00    +0.000 A 
ATOM      6  C   UNL     1       2.326   7.430  18.564  0.00  0.00    +0.000 A 
ATOM      7  C   UNL     1       2.165   7.442  19.955  0.00  0.00    +0.000 A 
ATOM      8  C   UNL     1       1.507   8.509  20.553  0.00  0.00    +0.000 A 
ATOM      9  N   UNL     1       1.284   8.526  21.935  0.00  0.00    +0.000 N 
ATOM     10  C   UNL     1       0.610   9.536  22.570  0.00  0.00    +0.000 A 
ATOM     11  O   UNL     1       0.445   9.496  23.789  0.00  0.00    +0.000 OA
ATOM     12  H   UNL     1       1.615   7.768  22.516  0.00  0.00    +0.000 HD
ENDROOT
BRANCH   1  14
ATOM     13  N   UNL     1      -1.879  11.533  22.900  0.00  0.00    +0.000 N 
ATOM     14  C   UNL     1      -0.674  11.805  22.312  0.00  0.00    +0.000 C 
ATOM     15  O   UNL     1      -0.224  12.946  22.251  0.00  0.00    +0.000 OA
ATOM     16  H   UNL     1      -2.255  10.589  22.849  0.00  0.00    +0.000 HD
BRANCH  13  17
ATOM     17  C   UNL     1      -2.657  12.581  23.520  0.00  0.00    +0.000 C 
BRANCH  17  18
ATOM     18  C   UNL     1      -3.801  13.062  22.624  0.00  0.00    +0.000 C 
BRANCH  18  20
ATOM     19  C   UNL     1      -5.180  15.188  22.733  0.00  0.00    +0.000 C 
ATOM     20  C   UNL     1      -3.809  14.588  22.419  0.00  0.00    +0.000 C 
ATOM     21  C   UNL     1      -2.743  15.265  23.281  0.00  0.00    +0.000 C 
ENDBRANCH  18  20
ENDBRANCH  17  18
ENDBRANCH  13  17
ENDBRANCH   1  14
BRANCH   2  22
ATOM     22  O   UNL     1      -0.145  11.642  19.526  0.00  0.00    +0.000 OA
ATOM     23  H   UNL     1      -0.649  11.211  18.797  0.00  0.00    +0.000 HD
ENDBRANCH   2  22
BRANCH   6  24
ATOM     24  C   UNL     1       2.931   6.258  17.849  0.00  0.00    +0.000 C 
BRANCH  24  25
ATOM     25  C   UNL     1       4.423   6.086  18.006  0.00  0.00    +0.000 A 
ATOM     26  C   UNL     1       5.312   6.799  17.185  0.00  0.00    +0.000 A 
ATOM     27  C   UNL     1       6.683   6.776  17.446  0.00  0.00    +0.000 A 
ATOM     28  C   UNL     1       7.167   6.028  18.510  0.00  0.00    +0.000 A 
ATOM     29  F   UNL     1       8.475   6.056  18.796  0.00  0.00    +0.000 F 
ATOM     30  C   UNL     1       6.311   5.267  19.297  0.00  0.00    +0.000 A 
ATOM     31  C   UNL     1       4.939   5.287  19.039  0.00  0.00    +0.000 A 
ENDBRANCH  24  25
ENDBRANCH   6  24
TORSDOF 7
ENDMDL
MODEL 3
REMARK VINA RESULT:      -8.0      5.530     10.935
REMARK  Name = 
REMARK  9 active torsions:
REMARK  status: ('A' for Active; 'I' for Inactive)
REMARK    1  A    between atoms: C_1  and  C_2
REMARK    2  A    between atoms: C_2  and  C_3
REMARK    3  A    between atoms: C_2  and  C_4
REMARK    4  A    between atoms: C_4  and  C_5
REMARK    5  A    between atoms: C_5  and  N_6
REMARK    6  A    between atoms: C_7  and  C_9
REMARK    7  A    between atoms: C_10  and  O_11
REMARK    8  A    between atoms: C_15  and  C_16
REMARK    9  A    between atoms: C_16  and  C_17
REMARK                            x       y       z     vdW  Elec       q    Type
REMARK                         _______ _______ _______ _____ _____    ______ ____
ROOT
ATOM      1  C   UNL     1      -0.915  11.577  20.033  0.00  0.00    +0.000 A 
ATOM      2  C   UNL     1      -0.356  10.537  20.691  0.00  0.00    +0.000 A 
ATOM      3  C   UNL     1       0.526   9.587  19.983  0.00  0.00    +0.000 A 
ATOM      4  N   UNL     1       1.087   8.576  20.686  0.00  0.00    +0.000 NA
ATOM      5  C   UNL     1       1.928   7.756  20.022  0.00  0.00    +0.000 A 
ATOM      6  C   UNL     1       2.247   7.884  18.672  0.00  0.00    +0.000 A 
ATOM      7  C   UNL     1       1.628   8.920  17.959  0.00  0.00    +0.000 A 
ATOM      8  C   UNL     1       0.768   9.782  18.626  0.00  0.00    +0.000 A 
ATOM      9  N   UNL     1       0.174  10.858  17.956  0.00  0.00    +0.000 N 
ATOM     10  C   UNL     1      -0.653  11.758  18.573  0.00  0.00    +0.000 A 
ATOM     11  O   UNL     1      -1.146  12.684  17.930  0.00  0.00    +0.000 OA
ATOM     12  H   UNL     1       0.353  11.009  16.972  0.00  0.00    +0.000 HD
ENDROOT
BRANCH   1  14
ATOM     13  N   UNL     1      -3.061  12.704  20.354  0.00  0.00    +0.000 N 
ATOM     14  C   UNL     1      -1.789  12.499  20.815  0.00  0.00    +0.000 C 
ATOM     15  O   UNL     1      -1.370  13.050  21.829  0.00  0.00    +0.000 OA
ATOM     16  H   UNL     1      -3.339  12.298  19.462  0.00  0.00    +0.000 HD
BRANCH  13  17
ATOM     17  C   UNL     1      -3.986  13.548  21.074  0.00  0.00    +0.000 C 
BRANCH  17  18
ATOM     18  C   UNL     1      -4.853  12.755  22.054  0.00  0.00    +0.000 C 
BRANCH  18  20
ATOM     19  C   UNL     1      -6.342  13.893  23.764  0.00  0.00    +0.000 C 
ATOM     20  C   UNL     1      -4.930  13.398  23.452  0.00  0.00    +0.000 C 
ATOM     21  C   UNL     1      -4.479  12.415  24.535  0.00  0.00    +0.000 C 
ENDBRANCH  18  20
ENDBRANCH  17  18
ENDBRANCH  13  17
ENDBRANCH   1  14
BRANCH   2  22
ATOM     22  O   UNL     1      -0.524  10.273  22.045  0.00  0.00    +0.000 OA
ATOM     23  H   UNL     1       0.358  10.086  22.441  0.00  0.00    +0.000 HD
ENDBRANCH   2  22
BRANCH   6  24
ATOM     24  C   UNL     1       3.267   6.987  18.034  0.00  0.00    +0.000 C 
BRANCH  24  25
ATOM     25  C   UNL     1       3.129   5.513  18.330  0.00  0.00    +0.000 A 
ATOM     26  C   UNL     1       2.026   4.790  17.846  0.00  0.00    +0.000 A 
ATOM     27  C   UNL     1       1.988   3.400  17.966  0.00  0.00    +0.000 A 
ATOM     28  C   UNL     1       3.037   2.736  18.586  0.00  0.00    +0.000 A 
ATOM     29  F   UNL     1       3.026   1.398  18.647  0.00  0.00    +0.000 F 
ATOM     30  C   UNL     1       4.107   3.437  19.127  0.00  0.00    +0.000 A 
ATOM     31  C   UNL     1       4.149   4.827  19.008  0.00  0.00    +0.000 A 
ENDBRANCH  24  25
ENDBRANCH   6  24
TORSDOF 7
ENDMDL
MODEL 4
REMARK VINA RESULT:      -7.9      0.642      1.114
REMARK  Name = 
REMARK  9 active torsions:
REMARK  status: ('A' for Active; 'I' for Inactive)
REMARK    1  A    between atoms: C_1  and  C_2
REMARK    2  A    between atoms: C_2  and  C_3
REMARK    3  A    between atoms: C_2  and  C_4
REMARK    4  A    between atoms: C_4  and  C_5
REMARK    5  A    between atoms: C_5  and  N_6
REMARK    6  A    between atoms: C_7  and  C_9
REMARK    7  A    between atoms: C_10  and  O_11
REMARK    8  A    between atoms: C_15  and  C_16
REMARK    9  A    between atoms: C_16  and  C_17
REMARK                            x       y       z     vdW  Elec       q    Type
REMARK                         _______ _______ _______ _____ _____    ______ ____
ROOT
ATOM      1  C   UNL     1       4.971   5.428  17.627  0.00  0.00    +0.000 A 
ATOM      2  C   UNL     1       4.324   6.525  17.173  0.00  0.00    +0.000 A 
ATOM      3  C   UNL     1       3.313   7.200  18.011  0.00  0.00    +0.000 A 
ATOM      4  N   UNL     1       2.709   8.312  17.529  0.00  0.00    +0.000 NA
ATOM      5  C   UNL     1       1.828   8.934  18.339  0.00  0.00    +0.000 A 
ATOM      6  C   UNL     1       1.503   8.505  19.624  0.00  0.00    +0.000 A 
ATOM      7  C   UNL     1       2.117   7.335  20.087  0.00  0.00    +0.000 A 
ATOM      8  C   UNL     1       3.037   6.685  19.274  0.00  0.00    +0.000 A 
ATOM      9  N   UNL     1       3.708   5.542  19.727  0.00  0.00    +0.000 N 
ATOM     10  C   UNL     1       4.648   4.884  18.980  0.00  0.00    +0.000 A 
ATOM     11  O   UNL     1       5.204   3.883  19.432  0.00  0.00    +0.000 OA
ATOM     12  H   UNL     1       3.517   5.168  20.646  0.00  0.00    +0.000 HD
ENDROOT
BRANCH   1  14
ATOM     13  N   UNL     1       5.538   4.268  15.551  0.00  0.00    +0.000 N 
ATOM     14  C   UNL     1       5.985   4.804  16.728  0.00  0.00    +0.000 C 
ATOM     15  O   UNL     1       7.170   4.774  17.046  0.00  0.00    +0.000 OA
ATOM     16  H   UNL     1       4.537   4.234  15.367  0.00  0.00    +0.000 HD
BRANCH  13  17
ATOM     17  C   UNL     1       6.459   3.681  14.604  0.00  0.00    +0.000 C 
BRANCH  17  18
ATOM     18  C   UNL     1       6.138   4.078  13.161  0.00  0.00    +0.000 C 
BRANCH  18  20
ATOM     19  C   UNL     1       4.449   3.288  11.442  0.00  0.00    +0.000 C 
ATOM     20  C   UNL     1       5.650   2.897  12.302  0.00  0.00    +0.000 C 
ATOM     21  C   UNL     1       6.771   2.366  11.407  0.00  0.00    +0.000 C 
ENDBRANCH  18  20
ENDBRANCH  17  18
ENDBRANCH  13  17
ENDBRANCH   1  14
BRANCH   2  22
ATOM     22  O   UNL     1       4.545   7.122  15.938  0.00  0.00    +0.000 OA
ATOM     23  H   UNL     1       3.722   7.053  15.402  0.00  0.00    +0.000 HD
ENDBRANCH   2  22
BRANCH   6  24
ATOM     24  C   UNL     1       0.584   9.312  20.495  0.00  0.00    +0.000 C 
BRANCH  24  25
ATOM     25  C   UNL     1       0.205  10.676  19.971  0.00  0.00    +0.000 A 
ATOM     26  C   UNL     1       1.031  11.786  20.214  0.00  0.00    +0.000 A 
ATOM     27  C   UNL     1       0.776  13.005  19.584  0.00  0.00    +0.000 A 
ATOM     28  C   UNL     1      -0.313  13.122  18.731  0.00  0.00    +0.000 A 
ATOM     29  F   UNL     1      -0.521  14.274  18.081  0.00  0.00    +0.000 F 
ATOM     30  C   UNL     1      -1.177  12.054  18.524  0.00  0.00    +0.000 A 
ATOM     31  C   UNL     1      -0.925  10.833  19.153  0.00  0.00    +0.000 A 
ENDBRANCH  24  25
ENDBRANCH   6  24
TORSDOF 7
ENDMDL
MODEL 5
REMARK VINA RESULT:      -7.9      5.319     10.898
REMARK  Name = 
REMARK  9 active torsions:
REMARK  status: ('A' for Active; 'I' for Inactive)
REMARK    1  A    between atoms: C_1  and  C_2
REMARK    2  A    between atoms: C_2  and  C_3
REMARK    3  A    between atoms: C_2  and  C_4
REMARK    4  A    between atoms: C_4  and  C_5
REMARK    5  A    between atoms: C_5  and  N_6
REMARK    6  A    between atoms: C_7  and  C_9
REMARK    7  A    between atoms: C_10  and  O_11
REMARK    8  A    between atoms: C_15  and  C_16
REMARK    9  A    between atoms: C_16  and  C_17
REMARK                            x       y       z     vdW  Elec       q    Type
REMARK                         _______ _______ _______ _____ _____    ______ ____
ROOT
ATOM      1  C   UNL     1      -0.242  11.203  20.811  0.00  0.00    +0.000 A 
ATOM      2  C   UNL     1       0.254  10.018  21.231  0.00  0.00    +0.000 A 
ATOM      3  C   UNL     1       0.979   9.134  20.296  0.00  0.00    +0.000 A 
ATOM      4  N   UNL     1       1.483   7.969  20.765  0.00  0.00    +0.000 NA
ATOM      5  C   UNL     1       2.184   7.208  19.898  0.00  0.00    +0.000 A 
ATOM      6  C   UNL     1       2.414   7.544  18.566  0.00  0.00    +0.000 A 
ATOM      7  C   UNL     1       1.854   8.740  18.097  0.00  0.00    +0.000 A 
ATOM      8  C   UNL     1       1.139   9.543  18.976  0.00  0.00    +0.000 A 
ATOM      9  N   UNL     1       0.611  10.769  18.553  0.00  0.00    +0.000 N 
ATOM     10  C   UNL     1      -0.072  11.615  19.386  0.00  0.00    +0.000 A 
ATOM     11  O   UNL     1      -0.513  12.681  18.955  0.00  0.00    +0.000 OA
ATOM     12  H   UNL     1       0.731  11.075  17.596  0.00  0.00    +0.000 HD
ENDROOT
BRANCH   1  14
ATOM     13  N   UNL     1      -2.116  12.654  21.414  0.00  0.00    +0.000 N 
ATOM     14  C   UNL     1      -0.957  12.046  21.813  0.00  0.00    +0.000 C 
ATOM     15  O   UNL     1      -0.510  12.184  22.949  0.00  0.00    +0.000 OA
ATOM     16  H   UNL     1      -2.404  12.586  20.440  0.00  0.00    +0.000 HD
BRANCH  13  17
ATOM     17  C   UNL     1      -2.892  13.454  22.334  0.00  0.00    +0.000 C 
BRANCH  17  18
ATOM     18  C   UNL     1      -4.398  13.312  22.098  0.00  0.00    +0.000 C 
BRANCH  18  20
ATOM     19  C   UNL     1      -4.229  12.640  24.538  0.00  0.00    +0.000 C 
ATOM     20  C   UNL     1      -5.160  12.809  23.337  0.00  0.00    +0.000 C 
ATOM     21  C   UNL     1      -6.303  13.757  23.703  0.00  0.00    +0.000 C 
ENDBRANCH  18  20
ENDBRANCH  17  18
ENDBRANCH  13  17
ENDBRANCH   1  14
BRANCH   2  22
ATOM     22  O   UNL     1       0.160   9.535  22.531  0.00  0.00    +0.000 OA
ATOM     23  H   UNL     1       0.985   9.040  22.743  0.00  0.00    +0.000 HD
ENDBRANCH   2  22
BRANCH   6  24
ATOM     24  C   UNL     1       3.287   6.687  17.697  0.00  0.00    +0.000 C 
BRANCH  24  25
ATOM     25  C   UNL     1       3.282   5.209  18.007  0.00  0.00    +0.000 A 
ATOM     26  C   UNL     1       2.231   4.392  17.562  0.00  0.00    +0.000 A 
ATOM     27  C   UNL     1       2.313   3.005  17.693  0.00  0.00    +0.000 A 
ATOM     28  C   UNL     1       3.433   2.437  18.286  0.00  0.00    +0.000 A 
ATOM     29  F   UNL     1       3.537   1.103  18.356  0.00  0.00    +0.000 F 
ATOM     30  C   UNL     1       4.456   3.231  18.788  0.00  0.00    +0.000 A 
ATOM     31  C   UNL     1       4.377   4.619  18.658  0.00  0.00    +0.000 A 
ENDBRANCH  24  25
ENDBRANCH   6  24
TORSDOF 7
ENDMDL
MODEL 6
REMARK VINA RESULT:      -7.9      1.168      1.454
REMARK  Name = 
REMARK  9 active torsions:
REMARK  status: ('A' for Active; 'I' for Inactive)
REMARK    1  A    between atoms: C_1  and  C_2
REMARK    2  A    between atoms: C_2  and  C_3
REMARK    3  A    between atoms: C_2  and  C_4
REMARK    4  A    between atoms: C_4  and  C_5
REMARK    5  A    between atoms: C_5  and  N_6
REMARK    6  A    between atoms: C_7  and  C_9
REMARK    7  A    between atoms: C_10  and  O_11
REMARK    8  A    between atoms: C_15  and  C_16
REMARK    9  A    between atoms: C_16  and  C_17
REMARK                            x       y       z     vdW  Elec       q    Type
REMARK                         _______ _______ _______ _____ _____    ______ ____
ROOT
ATOM      1  C   UNL     1       4.728   5.443  17.559  0.00  0.00    +0.000 A 
ATOM      2  C   UNL     1       4.280   6.617  17.061  0.00  0.00    +0.000 A 
ATOM      3  C   UNL     1       3.274   7.409  17.796  0.00  0.00    +0.000 A 
ATOM      4  N   UNL     1       2.873   8.592  17.275  0.00  0.00    +0.000 NA
ATOM      5  C   UNL     1       1.991   9.316  17.996  0.00  0.00    +0.000 A 
ATOM      6  C   UNL     1       1.472   8.922  19.227  0.00  0.00    +0.000 A 
ATOM      7  C   UNL     1       1.878   7.679  19.729  0.00  0.00    +0.000 A 
ATOM      8  C   UNL     1       2.794   6.923  19.009  0.00  0.00    +0.000 A 
ATOM      9  N   UNL     1       3.260   5.701  19.508  0.00  0.00    +0.000 N 
ATOM     10  C   UNL     1       4.188   4.933  18.855  0.00  0.00    +0.000 A 
ATOM     11  O   UNL     1       4.559   3.866  19.344  0.00  0.00    +0.000 OA
ATOM     12  H   UNL     1       2.921   5.347  20.392  0.00  0.00    +0.000 HD
ENDROOT
BRANCH   1  14
ATOM     13  N   UNL     1       5.423   4.359  15.480  0.00  0.00    +0.000 N 
ATOM     14  C   UNL     1       5.749   4.701  16.764  0.00  0.00    +0.000 C 
ATOM     15  O   UNL     1       6.836   4.410  17.257  0.00  0.00    +0.000 OA
ATOM     16  H   UNL     1       4.480   4.540  15.142  0.00  0.00    +0.000 HD
BRANCH  13  17
ATOM     17  C   UNL     1       6.369   3.676  14.629  0.00  0.00    +0.000 C 
BRANCH  17  18
ATOM     18  C   UNL     1       6.187   4.037  13.152  0.00  0.00    +0.000 C 
BRANCH  18  20
ATOM     19  C   UNL     1       4.458   3.303  11.448  0.00  0.00    +0.000 C 
ATOM     20  C   UNL     1       5.647   2.870  12.306  0.00  0.00    +0.000 C 
ATOM     21  C   UNL     1       6.742   2.288  11.409  0.00  0.00    +0.000 C 
ENDBRANCH  18  20
ENDBRANCH  17  18
ENDBRANCH  13  17
ENDBRANCH   1  14
BRANCH   2  22
ATOM     22  O   UNL     1       4.712   7.190  15.871  0.00  0.00    +0.000 OA
ATOM     23  H   UNL     1       5.614   6.853  15.667  0.00  0.00    +0.000 HD
ENDBRANCH   2  22
BRANCH   6  24
ATOM     24  C   UNL     1       0.570   9.832  20.008  0.00  0.00    +0.000 C 
BRANCH  24  25
ATOM     25  C   UNL     1      -0.569  10.456  19.237  0.00  0.00    +0.000 A 
ATOM     26  C   UNL     1      -1.034   9.864  18.052  0.00  0.00    +0.000 A 
ATOM     27  C   UNL     1      -2.195  10.336  17.438  0.00  0.00    +0.000 A 
ATOM     28  C   UNL     1      -2.877  11.410  17.993  0.00  0.00    +0.000 A 
ATOM     29  F   UNL     1      -4.024  11.823  17.437  0.00  0.00    +0.000 F 
ATOM     30  C   UNL     1      -2.400  12.049  19.131  0.00  0.00    +0.000 A 
ATOM     31  C   UNL     1      -1.239  11.579  19.748  0.00  0.00    +0.000 A 
ENDBRANCH  24  25
ENDBRANCH   6  24
TORSDOF 7
ENDMDL
MODEL 7
REMARK VINA RESULT:      -7.9      5.424     10.543
REMARK  Name = 
REMARK  9 active torsions:
REMARK  status: ('A' for Active; 'I' for Inactive)
REMARK    1  A    between atoms: C_1  and  C_2
REMARK    2  A    between atoms: C_2  and  C_3
REMARK    3  A    between atoms: C_2  and  C_4
REMARK    4  A    between atoms: C_4  and  C_5
REMARK    5  A    between atoms: C_5  and  N_6
REMARK    6  A    between atoms: C_7  and  C_9
REMARK    7  A    between atoms: C_10  and  O_11
REMARK    8  A    between atoms: C_15  and  C_16
REMARK    9  A    between atoms: C_16  and  C_17
REMARK                            x       y       z     vdW  Elec       q    Type
REMARK                         _______ _______ _______ _____ _____    ______ ____
ROOT
ATOM      1  C   UNL     1       0.142  10.770  21.605  0.00  0.00    +0.000 A 
ATOM      2  C   UNL     1       0.402  10.781  20.278  0.00  0.00    +0.000 A 
ATOM      3  C   UNL     1       1.137   9.666  19.648  0.00  0.00    +0.000 A 
ATOM      4  N   UNL     1       1.351   9.704  18.312  0.00  0.00    +0.000 NA
ATOM      5  C   UNL     1       1.981   8.646  17.759  0.00  0.00    +0.000 A 
ATOM      6  C   UNL     1       2.420   7.532  18.472  0.00  0.00    +0.000 A 
ATOM      7  C   UNL     1       2.214   7.532  19.857  0.00  0.00    +0.000 A 
ATOM      8  C   UNL     1       1.558   8.606  20.446  0.00  0.00    +0.000 A 
ATOM      9  N   UNL     1       1.290   8.613  21.820  0.00  0.00    +0.000 N 
ATOM     10  C   UNL     1       0.617   9.629  22.444  0.00  0.00    +0.000 A 
ATOM     11  O   UNL     1       0.411   9.579  23.657  0.00  0.00    +0.000 OA
ATOM     12  H   UNL     1       1.587   7.841  22.403  0.00  0.00    +0.000 HD
ENDROOT
BRANCH   1  14
ATOM     13  N   UNL     1      -1.749  11.654  22.878  0.00  0.00    +0.000 N 
ATOM     14  C   UNL     1      -0.611  11.927  22.170  0.00  0.00    +0.000 C 
ATOM     15  O   UNL     1      -0.216  13.077  21.995  0.00  0.00    +0.000 OA
ATOM     16  H   UNL     1      -2.089  10.695  22.923  0.00  0.00    +0.000 HD
BRANCH  13  17
ATOM     17  C   UNL     1      -2.514  12.713  23.494  0.00  0.00    +0.000 C 
BRANCH  17  18
ATOM     18  C   UNL     1      -3.950  12.285  23.808  0.00  0.00    +0.000 C 
BRANCH  18  20
ATOM     19  C   UNL     1      -6.086  13.652  23.748  0.00  0.00    +0.000 C 
ATOM     20  C   UNL     1      -4.997  12.976  22.915  0.00  0.00    +0.000 C 
ATOM     21  C   UNL     1      -4.341  14.006  21.994  0.00  0.00    +0.000 C 
ENDBRANCH  18  20
ENDBRANCH  17  18
ENDBRANCH  13  17
ENDBRANCH   1  14
BRANCH   2  22
ATOM     22  O   UNL     1       0.006  11.783  19.401  0.00  0.00    +0.000 OA
ATOM     23  H   UNL     1      -0.958  11.688  19.227  0.00  0.00    +0.000 HD
ENDBRANCH   2  22
BRANCH   6  24
ATOM     24  C   UNL     1       3.025   6.355  17.764  0.00  0.00    +0.000 C 
BRANCH  24  25
ATOM     25  C   UNL     1       2.699   4.998  18.339  0.00  0.00    +0.000 A 
ATOM     26  C   UNL     1       3.523   4.424  19.320  0.00  0.00    +0.000 A 
ATOM     27  C   UNL     1       3.128   3.258  19.977  0.00  0.00    +0.000 A 
ATOM     28  C   UNL     1       1.924   2.654  19.640  0.00  0.00    +0.000 A 
ATOM     29  F   UNL     1       1.519   1.569  20.313  0.00  0.00    +0.000 F 
ATOM     30  C   UNL     1       1.123   3.171  18.630  0.00  0.00    +0.000 A 
ATOM     31  C   UNL     1       1.515   4.338  17.971  0.00  0.00    +0.000 A 
ENDBRANCH  24  25
ENDBRANCH   6  24
TORSDOF 7
ENDMDL
MODEL 8
REMARK VINA RESULT:      -7.9      5.173     10.328
REMARK  Name = 
REMARK  9 active torsions:
REMARK  status: ('A' for Active; 'I' for Inactive)
REMARK    1  A    between atoms: C_1  and  C_2
REMARK    2  A    between atoms: C_2  and  C_3
REMARK    3  A    between atoms: C_2  and  C_4
REMARK    4  A    between atoms: C_4  and  C_5
REMARK    5  A    between atoms: C_5  and  N_6
REMARK    6  A    between atoms: C_7  and  C_9
REMARK    7  A    between atoms: C_10  and  O_11
REMARK    8  A    between atoms: C_15  and  C_16
REMARK    9  A    between atoms: C_16  and  C_17
REMARK                            x       y       z     vdW  Elec       q    Type
REMARK                         _______ _______ _______ _____ _____    ______ ____
ROOT
ATOM      1  C   UNL     1       0.007  10.727  21.549  0.00  0.00    +0.000 A 
ATOM      2  C   UNL     1       0.257  10.678  20.221  0.00  0.00    +0.000 A 
ATOM      3  C   UNL     1       1.014   9.552  19.641  0.00  0.00    +0.000 A 
ATOM      4  N   UNL     1       1.217   9.528  18.303  0.00  0.00    +0.000 NA
ATOM      5  C   UNL     1       1.869   8.459  17.798  0.00  0.00    +0.000 A 
ATOM      6  C   UNL     1       2.341   7.394  18.561  0.00  0.00    +0.000 A 
ATOM      7  C   UNL     1       2.146   7.458  19.947  0.00  0.00    +0.000 A 
ATOM      8  C   UNL     1       1.468   8.544  20.487  0.00  0.00    +0.000 A 
ATOM      9  N   UNL     1       1.211   8.613  21.861  0.00  0.00    +0.000 N 
ATOM     10  C   UNL     1       0.517   9.642  22.440  0.00  0.00    +0.000 A 
ATOM     11  O   UNL     1       0.322   9.648  23.655  0.00  0.00    +0.000 OA
ATOM     12  H   UNL     1       1.531   7.879  22.479  0.00  0.00    +0.000 HD
ENDROOT
BRANCH   1  14
ATOM     13  N   UNL     1      -2.039  12.066  21.580  0.00  0.00    +0.000 N 
ATOM     14  C   UNL     1      -0.770  11.893  22.062  0.00  0.00    +0.000 C 
ATOM     15  O   UNL     1      -0.276  12.662  22.882  0.00  0.00    +0.000 OA
ATOM     16  H   UNL     1      -2.376  11.459  20.836  0.00  0.00    +0.000 HD
BRANCH  13  17
ATOM     17  C   UNL     1      -2.874  13.145  22.056  0.00  0.00    +0.000 C 
BRANCH  17  18
ATOM     18  C   UNL     1      -4.028  13.451  21.098  0.00  0.00    +0.000 C 
BRANCH  18  20
ATOM     19  C   UNL     1      -6.252  12.231  21.075  0.00  0.00    +0.000 C 
ATOM     20  C   UNL     1      -5.414  13.314  21.755  0.00  0.00    +0.000 C 
ATOM     21  C   UNL     1      -5.287  13.003  23.247  0.00  0.00    +0.000 C 
ENDBRANCH  18  20
ENDBRANCH  17  18
ENDBRANCH  13  17
ENDBRANCH   1  14
BRANCH   2  22
ATOM     22  O   UNL     1      -0.171  11.625  19.298  0.00  0.00    +0.000 OA
ATOM     23  H   UNL     1      -0.994  11.297  18.868  0.00  0.00    +0.000 HD
ENDBRANCH   2  22
BRANCH   6  24
ATOM     24  C   UNL     1       2.970   6.198  17.907  0.00  0.00    +0.000 C 
BRANCH  24  25
ATOM     25  C   UNL     1       4.469   6.080  18.046  0.00  0.00    +0.000 A 
ATOM     26  C   UNL     1       5.322   6.808  17.201  0.00  0.00    +0.000 A 
ATOM     27  C   UNL     1       6.696   6.837  17.443  0.00  0.00    +0.000 A 
ATOM     28  C   UNL     1       7.219   6.123  18.513  0.00  0.00    +0.000 A 
ATOM     29  F   UNL     1       8.530   6.201  18.780  0.00  0.00    +0.000 F 
ATOM     30  C   UNL     1       6.400   5.347  19.324  0.00  0.00    +0.000 A 
ATOM     31  C   UNL     1       5.025   5.317  19.085  0.00  0.00    +0.000 A 
ENDBRANCH  24  25
ENDBRANCH   6  24
TORSDOF 7
ENDMDL
MODEL 9
REMARK VINA RESULT:      -7.9      5.509     10.363
REMARK  Name = 
REMARK  9 active torsions:
REMARK  status: ('A' for Active; 'I' for Inactive)
REMARK    1  A    between atoms: C_1  and  C_2
REMARK    2  A    between atoms: C_2  and  C_3
REMARK    3  A    between atoms: C_2  and  C_4
REMARK    4  A    between atoms: C_4  and  C_5
REMARK    5  A    between atoms: C_5  and  N_6
REMARK    6  A    between atoms: C_7  and  C_9
REMARK    7  A    between atoms: C_10  and  O_11
REMARK    8  A    between atoms: C_15  and  C_16
REMARK    9  A    between atoms: C_16  and  C_17
REMARK                            x       y       z     vdW  Elec       q    Type
REMARK                         _______ _______ _______ _____ _____    ______ ____
ROOT
ATOM      1  C   UNL     1      -0.125  10.592  21.927  0.00  0.00    +0.000 A 
ATOM      2  C   UNL     1       0.024  10.662  20.586  0.00  0.00    +0.000 A 
ATOM      3  C   UNL     1       0.856   9.673  19.871  0.00  0.00    +0.000 A 
ATOM      4  N   UNL     1       0.956   9.762  18.525  0.00  0.00    +0.000 NA
ATOM      5  C   UNL     1       1.682   8.813  17.897  0.00  0.00    +0.000 A 
ATOM      6  C   UNL     1       2.328   7.761  18.543  0.00  0.00    +0.000 A 
ATOM      7  C   UNL     1       2.234   7.709  19.940  0.00  0.00    +0.000 A 
ATOM      8  C   UNL     1       1.483   8.670  20.605  0.00  0.00    +0.000 A 
ATOM      9  N   UNL     1       1.326   8.616  21.995  0.00  0.00    +0.000 N 
ATOM     10  C   UNL     1       0.569   9.517  22.697  0.00  0.00    +0.000 A 
ATOM     11  O   UNL     1       0.469   9.418  23.920  0.00  0.00    +0.000 OA
ATOM     12  H   UNL     1       1.773   7.885  22.533  0.00  0.00    +0.000 HD
ENDROOT
BRANCH   1  14
ATOM     13  N   UNL     1      -0.608  12.931  22.453  0.00  0.00    +0.000 N 
ATOM     14  C   UNL     1      -0.986  11.622  22.580  0.00  0.00    +0.000 C 
ATOM     15  O   UNL     1      -1.989  11.294  23.208  0.00  0.00    +0.000 OA
ATOM     16  H   UNL     1       0.277  13.152  22.002  0.00  0.00    +0.000 HD
BRANCH  13  17
ATOM     17  C   UNL     1      -1.407  13.994  23.019  0.00  0.00    +0.000 C 
BRANCH  17  18
ATOM     18  C   UNL     1      -2.144  14.799  21.946  0.00  0.00    +0.000 C 
BRANCH  18  20
ATOM     19  C   UNL     1      -3.815  13.284  20.786  0.00  0.00    +0.000 C 
ATOM     20  C   UNL     1      -3.627  14.407  21.806  0.00  0.00    +0.000 C 
ATOM     21  C   UNL     1      -4.213  13.981  23.153  0.00  0.00    +0.000 C 
ENDBRANCH  18  20
ENDBRANCH  17  18
ENDBRANCH  13  17
ENDBRANCH   1  14
BRANCH   2  22
ATOM     22  O   UNL     1      -0.576  11.612  19.769  0.00  0.00    +0.000 OA
ATOM     23  H   UNL     1      -0.966  12.315  20.337  0.00  0.00    +0.000 HD
ENDBRANCH   2  22
BRANCH   6  24
ATOM     24  C   UNL     1       3.033   6.694  17.759  0.00  0.00    +0.000 C 
BRANCH  24  25
ATOM     25  C   UNL     1       2.765   5.271  18.188  0.00  0.00    +0.000 A 
ATOM     26  C   UNL     1       3.644   4.615  19.063  0.00  0.00    +0.000 A 
ATOM     27  C   UNL     1       3.307   3.371  19.598  0.00  0.00    +0.000 A 
ATOM     28  C   UNL     1       2.104   2.774  19.244  0.00  0.00    +0.000 A 
ATOM     29  F   UNL     1       1.755   1.609  19.805  0.00  0.00    +0.000 F 
ATOM     30  C   UNL     1       1.248   3.379  18.332  0.00  0.00    +0.000 A 
ATOM     31  C   UNL     1       1.583   4.624  17.795  0.00  0.00    +0.000 A 
ENDBRANCH  24  25
ENDBRANCH   6  24
TORSDOF 7
ENDMDL
