MODEL 1
REMARK VINA RESULT:      -8.2      0.000      0.000
REMARK  Name = 
REMARK  8 active torsions:
REMARK  status: ('A' for Active; 'I' for Inactive)
REMARK    1  A    between atoms: O_1  and  C_2
REMARK    2  A    between atoms: C_6  and  C_7
REMARK    3  A    between atoms: C_7  and  N_8
REMARK    4  A    between atoms: N_8  and  C_9
REMARK    5  A    between atoms: C_15  and  N_16
REMARK    6  A    between atoms: N_16  and  C_17
REMARK    7  A    between atoms: C_17  and  C_18
REMARK    8  A    between atoms: C_22  and  O_23
REMARK                            x       y       z     vdW  Elec       q    Type
REMARK                         _______ _______ _______ _____ _____    ______ ____
ROOT
ATOM      1  C   UNL     1       2.385   8.165  18.440  0.00  0.00    +0.000 A 
ATOM      2  C   UNL     1       1.728   9.225  17.772  0.00  0.00    +0.000 A 
ATOM      3  C   UNL     1       0.767  10.012  18.403  0.00  0.00    +0.000 A 
ATOM      4  C   UNL     1       0.451   9.749  19.720  0.00  0.00    +0.000 A 
ATOM      5  F   UNL     1      -0.457  10.510  20.348  0.00  0.00    +0.000 F 
ATOM      6  C   UNL     1       1.043   8.693  20.400  0.00  0.00    +0.000 A 
ATOM      7  C   UNL     1       1.959   7.836  19.761  0.00  0.00    +0.000 A 
ENDROOT
BRANCH   1   8
ATOM      8  N   UNL     1       3.307   7.440  17.672  0.00  0.00    +0.000 N 
ATOM      9  H   UNL     1       3.137   7.528  16.675  0.00  0.00    +0.000 HD
BRANCH   8  10
ATOM     10  C   UNL     1       4.741   7.406  17.942  0.00  0.00    +0.000 C 
BRANCH  10  15
ATOM     11  C   UNL     1       7.170   4.601  17.096  0.00  0.00    +0.000 A 
ATOM     12  C   UNL     1       6.708   4.149  15.865  0.00  0.00    +0.000 A 
ATOM     13  C   UNL     1       5.601   4.762  15.285  0.00  0.00    +0.000 A 
ATOM     14  C   UNL     1       4.968   5.819  15.940  0.00  0.00    +0.000 A 
ATOM     15  C   UNL     1       5.421   6.276  17.190  0.00  0.00    +0.000 A 
ATOM     16  C   UNL     1       6.538   5.649  17.762  0.00  0.00    +0.000 A 
BRANCH  11  17
ATOM     17  O   UNL     1       8.259   4.034  17.692  0.00  0.00    +0.000 OA
ATOM     18  H   UNL     1       8.725   4.725  18.192  0.00  0.00    +0.000 HD
ENDBRANCH  11  17
ENDBRANCH  10  15
ENDBRANCH   8  10
ENDBRANCH   1   8
BRANCH   7  19
ATOM     19  N   UNL     1       2.512   6.729  20.450  0.00  0.00    +0.000 N 
ATOM     20  H   UNL     1       3.429   6.546  20.049  0.00  0.00    +0.000 HD
BRANCH  19  21
ATOM     21  C   UNL     1       1.754   5.480  20.459  0.00  0.00    +0.000 C 
BRANCH  21  22
ATOM     22  C   UNL     1       2.347   4.454  19.517  0.00  0.00    +0.000 A 
ATOM     23  C   UNL     1       1.928   4.321  18.184  0.00  0.00    +0.000 A 
ATOM     24  C   UNL     1       2.570   3.425  17.322  0.00  0.00    +0.000 A 
ATOM     25  C   UNL     1       3.647   2.664  17.772  0.00  0.00    +0.000 A 
ATOM     26  C   UNL     1       4.071   2.804  19.092  0.00  0.00    +0.000 A 
ATOM     27  C   UNL     1       3.434   3.684  19.957  0.00  0.00    +0.000 A 
BRANCH  26  28
ATOM     28  O   UNL     1       5.133   2.099  19.576  0.00  0.00    +0.000 OA
ATOM     29  H   UNL     1       5.468   1.523  18.871  0.00  0.00    +0.000 HD
ENDBRANCH  26  28
ENDBRANCH  21  22
ENDBRANCH  19  21
ENDBRANCH   7  19
TORSDOF 8
ENDMDL
MODEL 2
REMARK VINA RESULT:      -8.2      1.469      1.903
REMARK  Name = 
REMARK  8 active torsions:
REMARK  status: ('A' for Active; 'I' for Inactive)
REMARK    1  A    between atoms: O_1  and  C_2
REMARK    2  A    between atoms: C_6  and  C_7
REMARK    3  A    between atoms: C_7  and  N_8
REMARK    4  A    between atoms: N_8  and  C_9
REMARK    5  A    between atoms: C_15  and  N_16
REMARK    6  A    between atoms: N_16  and  C_17
REMARK    7  A    between atoms: C_17  and  C_18
REMARK    8  A    between atoms: C_22  and  O_23
REMARK                            x       y       z     vdW  Elec       q    Type
REMARK                         _______ _______ _______ _____ _____    ______ ____
ROOT
ATOM      1  C   UNL     1       2.777   6.809  18.637  0.00  0.00    +0.000 A 
ATOM      2  C   UNL     1       2.560   7.895  17.758  0.00  0.00    +0.000 A 
ATOM      3  C   UNL     1       1.870   9.039  18.155  0.00  0.00    +0.000 A 
ATOM      4  C   UNL     1       1.388   9.112  19.446  0.00  0.00    +0.000 A 
ATOM      5  F   UNL     1       0.740  10.214  19.850  0.00  0.00    +0.000 F 
ATOM      6  C   UNL     1       1.545   8.051  20.328  0.00  0.00    +0.000 A 
ATOM      7  C   UNL     1       2.170   6.855  19.926  0.00  0.00    +0.000 A 
ENDROOT
BRANCH   1   8
ATOM      8  N   UNL     1       3.460   5.712  18.092  0.00  0.00    +0.000 N 
ATOM      9  H   UNL     1       2.844   4.930  17.894  0.00  0.00    +0.000 HD
BRANCH   8  10
ATOM     10  C   UNL     1       4.487   5.825  17.060  0.00  0.00    +0.000 C 
BRANCH  10  15
ATOM     11  C   UNL     1       7.567   5.960  19.290  0.00  0.00    +0.000 A 
ATOM     12  C   UNL     1       8.292   7.020  18.757  0.00  0.00    +0.000 A 
ATOM     13  C   UNL     1       7.781   7.715  17.666  0.00  0.00    +0.000 A 
ATOM     14  C   UNL     1       6.550   7.347  17.119  0.00  0.00    +0.000 A 
ATOM     15  C   UNL     1       5.815   6.270  17.645  0.00  0.00    +0.000 A 
ATOM     16  C   UNL     1       6.343   5.578  18.745  0.00  0.00    +0.000 A 
BRANCH  11  17
ATOM     17  O   UNL     1       8.029   5.260  20.367  0.00  0.00    +0.000 OA
ATOM     18  H   UNL     1       8.451   4.448  20.042  0.00  0.00    +0.000 HD
ENDBRANCH  11  17
ENDBRANCH  10  15
ENDBRANCH   8  10
ENDBRANCH   1   8
BRANCH   7  19
ATOM     19  N   UNL     1       2.272   5.760  20.819  0.00  0.00    +0.000 N 
ATOM     20  H   UNL     1       3.230   5.419  20.777  0.00  0.00    +0.000 HD
BRANCH  19  21
ATOM     21  C   UNL     1       1.369   4.629  20.622  0.00  0.00    +0.000 C 
BRANCH  21  22
ATOM     22  C   UNL     1       2.031   3.506  19.853  0.00  0.00    +0.000 A 
ATOM     23  C   UNL     1       1.511   3.004  18.650  0.00  0.00    +0.000 A 
ATOM     24  C   UNL     1       2.207   2.032  17.924  0.00  0.00    +0.000 A 
ATOM     25  C   UNL     1       3.439   1.561  18.377  0.00  0.00    +0.000 A 
ATOM     26  C   UNL     1       3.962   2.068  19.565  0.00  0.00    +0.000 A 
ATOM     27  C   UNL     1       3.273   3.026  20.297  0.00  0.00    +0.000 A 
BRANCH  26  28
ATOM     28  O   UNL     1       5.172   1.658  20.040  0.00  0.00    +0.000 OA
ATOM     29  H   UNL     1       5.389   2.183  20.826  0.00  0.00    +0.000 HD
ENDBRANCH  26  28
ENDBRANCH  21  22
ENDBRANCH  19  21
ENDBRANCH   7  19
TORSDOF 8
ENDMDL
MODEL 3
REMARK VINA RESULT:      -8.1      0.542      3.558
REMARK  Name = 
REMARK  8 active torsions:
REMARK  status: ('A' for Active; 'I' for Inactive)
REMARK    1  A    between atoms: O_1  and  C_2
REMARK    2  A    between atoms: C_6  and  C_7
REMARK    3  A    between atoms: C_7  and  N_8
REMARK    4  A    between atoms: N_8  and  C_9
REMARK    5  A    between atoms: C_15  and  N_16
REMARK    6  A    between atoms: N_16  and  C_17
REMARK    7  A    between atoms: C_17  and  C_18
REMARK    8  A    between atoms: C_22  and  O_23
REMARK                            x       y       z     vdW  Elec       q    Type
REMARK                         _______ _______ _______ _____ _____    ______ ____
ROOT
ATOM      1  C   UNL     1       1.861   7.689  19.937  0.00  0.00    +0.000 A 
ATOM      2  C   UNL     1       1.149   8.612  20.737  0.00  0.00    +0.000 A 
ATOM      3  C   UNL     1       0.698   9.830  20.234  0.00  0.00    +0.000 A 
ATOM      4  C   UNL     1       0.954  10.142  18.915  0.00  0.00    +0.000 A 
ATOM      5  F   UNL     1       0.510  11.302  18.410  0.00  0.00    +0.000 F 
ATOM      6  C   UNL     1       1.685   9.281  18.106  0.00  0.00    +0.000 A 
ATOM      7  C   UNL     1       2.217   8.081  18.613  0.00  0.00    +0.000 A 
ENDROOT
BRANCH   1   8
ATOM      8  N   UNL     1       2.279   6.517  20.584  0.00  0.00    +0.000 N 
ATOM      9  H   UNL     1       2.557   6.683  21.547  0.00  0.00    +0.000 HD
BRANCH   8  10
ATOM     10  C   UNL     1       1.590   5.235  20.468  0.00  0.00    +0.000 C 
BRANCH  10  15
ATOM     11  C   UNL     1       4.091   2.693  19.140  0.00  0.00    +0.000 A 
ATOM     12  C   UNL     1       3.688   2.519  17.821  0.00  0.00    +0.000 A 
ATOM     13  C   UNL     1       2.598   3.239  17.340  0.00  0.00    +0.000 A 
ATOM     14  C   UNL     1       1.923   4.125  18.180  0.00  0.00    +0.000 A 
ATOM     15  C   UNL     1       2.316   4.299  19.519  0.00  0.00    +0.000 A 
ATOM     16  C   UNL     1       3.416   3.567  19.989  0.00  0.00    +0.000 A 
BRANCH  11  17
ATOM     17  O   UNL     1       5.161   2.014  19.646  0.00  0.00    +0.000 OA
ATOM     18  H   UNL     1       5.879   2.651  19.798  0.00  0.00    +0.000 HD
ENDBRANCH  11  17
ENDBRANCH  10  15
ENDBRANCH   8  10
ENDBRANCH   1   8
BRANCH   7  19
ATOM     19  N   UNL     1       3.008   7.240  17.792  0.00  0.00    +0.000 N 
ATOM     20  H   UNL     1       2.763   6.278  18.013  0.00  0.00    +0.000 HD
BRANCH  19  21
ATOM     21  C   UNL     1       4.460   7.376  17.871  0.00  0.00    +0.000 C 
BRANCH  21  22
ATOM     22  C   UNL     1       5.173   6.226  17.192  0.00  0.00    +0.000 A 
ATOM     23  C   UNL     1       4.898   5.841  15.870  0.00  0.00    +0.000 A 
ATOM     24  C   UNL     1       5.648   4.836  15.251  0.00  0.00    +0.000 A 
ATOM     25  C   UNL     1       6.692   4.213  15.934  0.00  0.00    +0.000 A 
ATOM     26  C   UNL     1       6.973   4.602  17.242  0.00  0.00    +0.000 A 
ATOM     27  C   UNL     1       6.227   5.593  17.867  0.00  0.00    +0.000 A 
BRANCH  26  28
ATOM     28  O   UNL     1       7.996   4.041  17.946  0.00  0.00    +0.000 OA
ATOM     29  H   UNL     1       7.625   3.390  18.562  0.00  0.00    +0.000 HD
ENDBRANCH  26  28
ENDBRANCH  21  22
ENDBRANCH  19  21
ENDBRANCH   7  19
TORSDOF 8
ENDMDL
MODEL 4
REMARK VINA RESULT:      -8.0      3.099      6.629
REMARK  Name = 
REMARK  8 active torsions:
REMARK  status: ('A' for Active; 'I' for Inactive)
REMARK    1  A    between atoms: O_1  and  C_2
REMARK    2  A    between atoms: C_6  and  C_7
REMARK    3  A    between atoms: C_7  and  N_8
REMARK    4  A    between atoms: N_8  and  C_9
REMARK    5  A    between atoms: C_15  and  N_16
REMARK    6  A    between atoms: N_16  and  C_17
REMARK    7  A    between atoms: C_17  and  C_18
REMARK    8  A    between atoms: C_22  and  O_23
REMARK                            x       y       z     vdW  Elec       q    Type
REMARK                         _______ _______ _______ _____ _____    ______ ____
ROOT
ATOM      1  C   UNL     1       2.241   5.506  19.930  0.00  0.00    +0.000 A 
ATOM      2  C   UNL     1       1.425   4.752  20.805  0.00  0.00    +0.000 A 
ATOM      3  C   UNL     1       1.130   3.412  20.568  0.00  0.00    +0.000 A 
ATOM      4  C   UNL     1       1.652   2.803  19.445  0.00  0.00    +0.000 A 
ATOM      5  F   UNL     1       1.394   1.508  19.212  0.00  0.00    +0.000 F 
ATOM      6  C   UNL     1       2.425   3.519  18.539  0.00  0.00    +0.000 A 
ATOM      7  C   UNL     1       2.672   4.892  18.717  0.00  0.00    +0.000 A 
ENDROOT
BRANCH   1   8
ATOM      8  N   UNL     1       2.428   6.851  20.280  0.00  0.00    +0.000 N 
ATOM      9  H   UNL     1       3.375   7.041  20.598  0.00  0.00    +0.000 HD
BRANCH   8  10
ATOM     10  C   UNL     1       1.919   7.973  19.497  0.00  0.00    +0.000 C 
BRANCH  10  15
ATOM     11  C   UNL     1       0.376   9.663  22.537  0.00  0.00    +0.000 A 
ATOM     12  C   UNL     1      -0.484  10.598  21.972  0.00  0.00    +0.000 A 
ATOM     13  C   UNL     1      -0.581  10.684  20.586  0.00  0.00    +0.000 A 
ATOM     14  C   UNL     1       0.179   9.835  19.780  0.00  0.00    +0.000 A 
ATOM     15  C   UNL     1       1.059   8.894  20.343  0.00  0.00    +0.000 A 
ATOM     16  C   UNL     1       1.146   8.819  21.740  0.00  0.00    +0.000 A 
BRANCH  11  17
ATOM     17  O   UNL     1       0.491   9.539  23.891  0.00  0.00    +0.000 OA
ATOM     18  H   UNL     1       0.317  10.408  24.290  0.00  0.00    +0.000 HD
ENDBRANCH  11  17
ENDBRANCH  10  15
ENDBRANCH   8  10
ENDBRANCH   1   8
BRANCH   7  19
ATOM     19  N   UNL     1       3.414   5.622  17.756  0.00  0.00    +0.000 N 
ATOM     20  H   UNL     1       2.777   5.873  17.004  0.00  0.00    +0.000 HD
BRANCH  19  21
ATOM     21  C   UNL     1       4.591   4.984  17.171  0.00  0.00    +0.000 C 
BRANCH  21  22
ATOM     22  C   UNL     1       5.876   5.639  17.635  0.00  0.00    +0.000 A 
ATOM     23  C   UNL     1       6.433   6.753  16.989  0.00  0.00    +0.000 A 
ATOM     24  C   UNL     1       7.568   7.384  17.508  0.00  0.00    +0.000 A 
ATOM     25  C   UNL     1       8.152   6.923  18.688  0.00  0.00    +0.000 A 
ATOM     26  C   UNL     1       7.593   5.825  19.337  0.00  0.00    +0.000 A 
ATOM     27  C   UNL     1       6.471   5.187  18.822  0.00  0.00    +0.000 A 
BRANCH  26  28
ATOM     28  O   UNL     1       8.112   5.349  20.504  0.00  0.00    +0.000 OA
ATOM     29  H   UNL     1       7.424   4.844  20.964  0.00  0.00    +0.000 HD
ENDBRANCH  26  28
ENDBRANCH  21  22
ENDBRANCH  19  21
ENDBRANCH   7  19
TORSDOF 8
ENDMDL
MODEL 5
REMARK VINA RESULT:      -7.9      1.243      4.005
REMARK  Name = 
REMARK  8 active torsions:
REMARK  status: ('A' for Active; 'I' for Inactive)
REMARK    1  A    between atoms: O_1  and  C_2
REMARK    2  A    between atoms: C_6  and  C_7
REMARK    3  A    between atoms: C_7  and  N_8
REMARK    4  A    between atoms: N_8  and  C_9
REMARK    5  A    between atoms: C_15  and  N_16
REMARK    6  A    between atoms: N_16  and  C_17
REMARK    7  A    between atoms: C_17  and  C_18
REMARK    8  A    between atoms: C_22  and  O_23
REMARK                            x       y       z     vdW  Elec       q    Type
REMARK                         _______ _______ _______ _____ _____    ______ ____
ROOT
ATOM      1  C   UNL     1       2.036   6.884  20.112  0.00  0.00    +0.000 A 
ATOM      2  C   UNL     1       1.167   7.922  20.519  0.00  0.00    +0.000 A 
ATOM      3  C   UNL     1       1.012   9.089  19.775  0.00  0.00    +0.000 A 
ATOM      4  C   UNL     1       1.729   9.233  18.604  0.00  0.00    +0.000 A 
ATOM      5  F   UNL     1       1.576  10.341  17.866  0.00  0.00    +0.000 F 
ATOM      6  C   UNL     1       2.623   8.254  18.190  0.00  0.00    +0.000 A 
ATOM      7  C   UNL     1       2.854   7.102  18.965  0.00  0.00    +0.000 A 
ENDROOT
BRANCH   1   8
ATOM      8  N   UNL     1       2.113   5.781  20.975  0.00  0.00    +0.000 N 
ATOM      9  H   UNL     1       2.137   6.054  21.953  0.00  0.00    +0.000 HD
BRANCH   8  10
ATOM     10  C   UNL     1       1.330   4.560  20.806  0.00  0.00    +0.000 C 
BRANCH  10  15
ATOM     11  C   UNL     1       3.986   2.165  19.508  0.00  0.00    +0.000 A 
ATOM     12  C   UNL     1       3.419   1.674  18.338  0.00  0.00    +0.000 A 
ATOM     13  C   UNL     1       2.161   2.126  17.948  0.00  0.00    +0.000 A 
ATOM     14  C   UNL     1       1.486   3.065  18.729  0.00  0.00    +0.000 A 
ATOM     15  C   UNL     1       2.047   3.559  19.919  0.00  0.00    +0.000 A 
ATOM     16  C   UNL     1       3.314   3.094  20.300  0.00  0.00    +0.000 A 
BRANCH  11  17
ATOM     17  O   UNL     1       5.221   1.755  19.919  0.00  0.00    +0.000 OA
ATOM     18  H   UNL     1       5.486   0.997  19.371  0.00  0.00    +0.000 HD
ENDBRANCH  11  17
ENDBRANCH  10  15
ENDBRANCH   8  10
ENDBRANCH   1   8
BRANCH   7  19
ATOM     19  N   UNL     1       3.811   6.140  18.558  0.00  0.00    +0.000 N 
ATOM     20  H   UNL     1       4.717   6.603  18.529  0.00  0.00    +0.000 HD
BRANCH  19  21
ATOM     21  C   UNL     1       3.598   5.458  17.284  0.00  0.00    +0.000 C 
BRANCH  21  22
ATOM     22  C   UNL     1       4.907   5.103  16.610  0.00  0.00    +0.000 A 
ATOM     23  C   UNL     1       5.122   5.284  15.235  0.00  0.00    +0.000 A 
ATOM     24  C   UNL     1       6.378   5.032  14.671  0.00  0.00    +0.000 A 
ATOM     25  C   UNL     1       7.439   4.615  15.474  0.00  0.00    +0.000 A 
ATOM     26  C   UNL     1       7.229   4.447  16.841  0.00  0.00    +0.000 A 
ATOM     27  C   UNL     1       5.983   4.685  17.406  0.00  0.00    +0.000 A 
BRANCH  26  28
ATOM     28  O   UNL     1       8.239   4.061  17.672  0.00  0.00    +0.000 OA
ATOM     29  H   UNL     1       9.079   4.373  17.302  0.00  0.00    +0.000 HD
ENDBRANCH  26  28
ENDBRANCH  21  22
ENDBRANCH  19  21
ENDBRANCH   7  19
TORSDOF 8
ENDMDL
MODEL 6
REMARK VINA RESULT:      -7.8      2.885      5.378
REMARK  Name = 
REMARK  8 active torsions:
REMARK  status: ('A' for Active; 'I' for Inactive)
REMARK    1  A    between atoms: O_1  and  C_2
REMARK    2  A    between atoms: C_6  and  C_7
REMARK    3  A    between atoms: C_7  and  N_8
REMARK    4  A    between atoms: N_8  and  C_9
REMARK    5  A    between atoms: C_15  and  N_16
REMARK    6  A    between atoms: N_16  and  C_17
REMARK    7  A    between atoms: C_17  and  C_18
REMARK    8  A    between atoms: C_22  and  O_23
REMARK                            x       y       z     vdW  Elec       q    Type
REMARK                         _______ _______ _______ _____ _____    ______ ____
ROOT
ATOM      1  C   UNL     1       2.706   4.456  18.750  0.00  0.00    +0.000 A 
ATOM      2  C   UNL     1       2.595   3.046  18.753  0.00  0.00    +0.000 A 
ATOM      3  C   UNL     1       2.029   2.353  19.820  0.00  0.00    +0.000 A 
ATOM      4  C   UNL     1       1.560   3.065  20.904  0.00  0.00    +0.000 A 
ATOM      5  F   UNL     1       0.994   2.415  21.930  0.00  0.00    +0.000 F 
ATOM      6  C   UNL     1       1.687   4.447  20.959  0.00  0.00    +0.000 A 
ATOM      7  C   UNL     1       2.325   5.163  19.929  0.00  0.00    +0.000 A 
ENDROOT
BRANCH   1   8
ATOM      8  N   UNL     1       3.325   5.016  17.624  0.00  0.00    +0.000 N 
ATOM      9  H   UNL     1       3.294   6.032  17.628  0.00  0.00    +0.000 HD
BRANCH   8  10
ATOM     10  C   UNL     1       4.596   4.548  17.077  0.00  0.00    +0.000 C 
BRANCH  10  15
ATOM     11  C   UNL     1       7.421   5.725  19.338  0.00  0.00    +0.000 A 
ATOM     12  C   UNL     1       7.950   6.805  18.640  0.00  0.00    +0.000 A 
ATOM     13  C   UNL     1       7.385   7.173  17.423  0.00  0.00    +0.000 A 
ATOM     14  C   UNL     1       6.297   6.461  16.917  0.00  0.00    +0.000 A 
ATOM     15  C   UNL     1       5.762   5.361  17.610  0.00  0.00    +0.000 A 
ATOM     16  C   UNL     1       6.342   5.002  18.835  0.00  0.00    +0.000 A 
BRANCH  11  17
ATOM     17  O   UNL     1       7.940   5.339  20.540  0.00  0.00    +0.000 OA
ATOM     18  H   UNL     1       8.614   4.660  20.375  0.00  0.00    +0.000 HD
ENDBRANCH  11  17
ENDBRANCH  10  15
ENDBRANCH   8  10
ENDBRANCH   1   8
BRANCH   7  19
ATOM     19  N   UNL     1       2.498   6.565  20.025  0.00  0.00    +0.000 N 
ATOM     20  H   UNL     1       3.462   6.737  20.298  0.00  0.00    +0.000 HD
BRANCH  19  21
ATOM     21  C   UNL     1       1.622   7.303  20.932  0.00  0.00    +0.000 C 
BRANCH  21  22
ATOM     22  C   UNL     1       1.169   8.618  20.335  0.00  0.00    +0.000 A 
ATOM     23  C   UNL     1       0.335   9.513  21.022  0.00  0.00    +0.000 A 
ATOM     24  C   UNL     1       0.021  10.760  20.471  0.00  0.00    +0.000 A 
ATOM     25  C   UNL     1       0.549  11.138  19.237  0.00  0.00    +0.000 A 
ATOM     26  C   UNL     1       1.387  10.255  18.560  0.00  0.00    +0.000 A 
ATOM     27  C   UNL     1       1.696   9.012  19.095  0.00  0.00    +0.000 A 
BRANCH  26  28
ATOM     28  O   UNL     1       1.946  10.584  17.360  0.00  0.00    +0.000 OA
ATOM     29  H   UNL     1       1.244  10.620  16.693  0.00  0.00    +0.000 HD
ENDBRANCH  26  28
ENDBRANCH  21  22
ENDBRANCH  19  21
ENDBRANCH   7  19
TORSDOF 8
ENDMDL
MODEL 7
REMARK VINA RESULT:      -7.8      2.963      5.449
REMARK  Name = 
REMARK  8 active torsions:
REMARK  status: ('A' for Active; 'I' for Inactive)
REMARK    1  A    between atoms: O_1  and  C_2
REMARK    2  A    between atoms: C_6  and  C_7
REMARK    3  A    between atoms: C_7  and  N_8
REMARK    4  A    between atoms: N_8  and  C_9
REMARK    5  A    between atoms: C_15  and  N_16
REMARK    6  A    between atoms: N_16  and  C_17
REMARK    7  A    between atoms: C_17  and  C_18
REMARK    8  A    between atoms: C_22  and  O_23
REMARK                            x       y       z     vdW  Elec       q    Type
REMARK                         _______ _______ _______ _____ _____    ______ ____
ROOT
ATOM      1  C   UNL     1       2.658   5.226  18.736  0.00  0.00    +0.000 A 
ATOM      2  C   UNL     1       2.520   3.834  18.534  0.00  0.00    +0.000 A 
ATOM      3  C   UNL     1       1.873   3.015  19.457  0.00  0.00    +0.000 A 
ATOM      4  C   UNL     1       1.349   3.583  20.600  0.00  0.00    +0.000 A 
ATOM      5  F   UNL     1       0.706   2.813  21.488  0.00  0.00    +0.000 F 
ATOM      6  C   UNL     1       1.499   4.940  20.856  0.00  0.00    +0.000 A 
ATOM      7  C   UNL     1       2.215   5.773  19.976  0.00  0.00    +0.000 A 
ENDROOT
BRANCH   1   8
ATOM      8  N   UNL     1       3.358   5.920  17.739  0.00  0.00    +0.000 N 
ATOM      9  H   UNL     1       3.491   6.901  17.967  0.00  0.00    +0.000 HD
BRANCH   8  10
ATOM     10  C   UNL     1       4.537   5.393  17.057  0.00  0.00    +0.000 C 
BRANCH  10  15
ATOM     11  C   UNL     1       7.545   5.913  19.329  0.00  0.00    +0.000 A 
ATOM     12  C   UNL     1       8.206   6.981  18.732  0.00  0.00    +0.000 A 
ATOM     13  C   UNL     1       7.674   7.555  17.581  0.00  0.00    +0.000 A 
ATOM     14  C   UNL     1       6.486   7.059  17.041  0.00  0.00    +0.000 A 
ATOM     15  C   UNL     1       5.816   5.974  17.632  0.00  0.00    +0.000 A 
ATOM     16  C   UNL     1       6.365   5.405  18.790  0.00  0.00    +0.000 A 
BRANCH  11  17
ATOM     17  O   UNL     1       8.029   5.330  20.464  0.00  0.00    +0.000 OA
ATOM     18  H   UNL     1       7.536   4.507  20.615  0.00  0.00    +0.000 HD
ENDBRANCH  11  17
ENDBRANCH  10  15
ENDBRANCH   8  10
ENDBRANCH   1   8
BRANCH   7  19
ATOM     19  N   UNL     1       2.408   7.144  20.278  0.00  0.00    +0.000 N 
ATOM     20  H   UNL     1       2.200   7.272  21.266  0.00  0.00    +0.000 HD
BRANCH  19  21
ATOM     21  C   UNL     1       1.645   8.127  19.514  0.00  0.00    +0.000 C 
BRANCH  21  22
ATOM     22  C   UNL     1       0.952   9.128  20.415  0.00  0.00    +0.000 A 
ATOM     23  C   UNL     1       0.307  10.271  19.920  0.00  0.00    +0.000 A 
ATOM     24  C   UNL     1      -0.403  11.117  20.779  0.00  0.00    +0.000 A 
ATOM     25  C   UNL     1      -0.494  10.823  22.139  0.00  0.00    +0.000 A 
ATOM     26  C   UNL     1       0.135   9.682  22.629  0.00  0.00    +0.000 A 
ATOM     27  C   UNL     1       0.850   8.842  21.785  0.00  0.00    +0.000 A 
BRANCH  26  28
ATOM     28  O   UNL     1       0.059   9.338  23.947  0.00  0.00    +0.000 OA
ATOM     29  H   UNL     1      -0.336   8.455  24.012  0.00  0.00    +0.000 HD
ENDBRANCH  26  28
ENDBRANCH  21  22
ENDBRANCH  19  21
ENDBRANCH   7  19
TORSDOF 8
ENDMDL
MODEL 8
REMARK VINA RESULT:      -7.8      1.498      1.744
REMARK  Name = 
REMARK  8 active torsions:
REMARK  status: ('A' for Active; 'I' for Inactive)
REMARK    1  A    between atoms: O_1  and  C_2
REMARK    2  A    between atoms: C_6  and  C_7
REMARK    3  A    between atoms: C_7  and  N_8
REMARK    4  A    between atoms: N_8  and  C_9
REMARK    5  A    between atoms: C_15  and  N_16
REMARK    6  A    between atoms: N_16  and  C_17
REMARK    7  A    between atoms: C_17  and  C_18
REMARK    8  A    between atoms: C_22  and  O_23
REMARK                            x       y       z     vdW  Elec       q    Type
REMARK                         _______ _______ _______ _____ _____    ______ ____
ROOT
ATOM      1  C   UNL     1       3.365   6.612  18.788  0.00  0.00    +0.000 A 
ATOM      2  C   UNL     1       3.245   7.567  17.751  0.00  0.00    +0.000 A 
ATOM      3  C   UNL     1       2.351   8.632  17.830  0.00  0.00    +0.000 A 
ATOM      4  C   UNL     1       1.562   8.759  18.955  0.00  0.00    +0.000 A 
ATOM      5  F   UNL     1       0.711   9.790  19.055  0.00  0.00    +0.000 F 
ATOM      6  C   UNL     1       1.621   7.820  19.977  0.00  0.00    +0.000 A 
ATOM      7  C   UNL     1       2.460   6.694  19.886  0.00  0.00    +0.000 A 
ENDROOT
BRANCH   1   8
ATOM      8  N   UNL     1       4.284   5.578  18.559  0.00  0.00    +0.000 N 
ATOM      9  H   UNL     1       3.865   4.784  18.082  0.00  0.00    +0.000 HD
BRANCH   8  10
ATOM     10  C   UNL     1       5.649   5.792  18.087  0.00  0.00    +0.000 C 
BRANCH  10  15
ATOM     11  C   UNL     1       7.160   5.109  14.662  0.00  0.00    +0.000 A 
ATOM     12  C   UNL     1       6.321   4.130  14.141  0.00  0.00    +0.000 A 
ATOM     13  C   UNL     1       5.241   3.684  14.897  0.00  0.00    +0.000 A 
ATOM     14  C   UNL     1       5.009   4.222  16.164  0.00  0.00    +0.000 A 
ATOM     15  C   UNL     1       5.857   5.204  16.703  0.00  0.00    +0.000 A 
ATOM     16  C   UNL     1       6.941   5.644  15.930  0.00  0.00    +0.000 A 
BRANCH  11  17
ATOM     17  O   UNL     1       8.222   5.581  13.948  0.00  0.00    +0.000 OA
ATOM     18  H   UNL     1       8.791   6.088  14.550  0.00  0.00    +0.000 HD
ENDBRANCH  11  17
ENDBRANCH  10  15
ENDBRANCH   8  10
ENDBRANCH   1   8
BRANCH   7  19
ATOM     19  N   UNL     1       2.467   5.716  20.910  0.00  0.00    +0.000 N 
ATOM     20  H   UNL     1       3.420   5.370  20.996  0.00  0.00    +0.000 HD
BRANCH  19  21
ATOM     21  C   UNL     1       1.570   4.571  20.771  0.00  0.00    +0.000 C 
BRANCH  21  22
ATOM     22  C   UNL     1       2.161   3.496  19.883  0.00  0.00    +0.000 A 
ATOM     23  C   UNL     1       1.627   3.175  18.626  0.00  0.00    +0.000 A 
ATOM     24  C   UNL     1       2.262   2.243  17.799  0.00  0.00    +0.000 A 
ATOM     25  C   UNL     1       3.448   1.633  18.206  0.00  0.00    +0.000 A 
ATOM     26  C   UNL     1       3.986   1.960  19.448  0.00  0.00    +0.000 A 
ATOM     27  C   UNL     1       3.356   2.877  20.280  0.00  0.00    +0.000 A 
BRANCH  26  28
ATOM     28  O   UNL     1       5.154   1.408  19.885  0.00  0.00    +0.000 OA
ATOM     29  H   UNL     1       5.460   1.907  20.658  0.00  0.00    +0.000 HD
ENDBRANCH  26  28
ENDBRANCH  21  22
ENDBRANCH  19  21
ENDBRANCH   7  19
TORSDOF 8
ENDMDL
MODEL 9
REMARK VINA RESULT:      -7.7      1.157      4.063
REMARK  Name = 
REMARK  8 active torsions:
REMARK  status: ('A' for Active; 'I' for Inactive)
REMARK    1  A    between atoms: O_1  and  C_2
REMARK    2  A    between atoms: C_6  and  C_7
REMARK    3  A    between atoms: C_7  and  N_8
REMARK    4  A    between atoms: N_8  and  C_9
REMARK    5  A    between atoms: C_15  and  N_16
REMARK    6  A    between atoms: N_16  and  C_17
REMARK    7  A    between atoms: C_17  and  C_18
REMARK    8  A    between atoms: C_22  and  O_23
REMARK                            x       y       z     vdW  Elec       q    Type
REMARK                         _______ _______ _______ _____ _____    ______ ____
ROOT
ATOM      1  C   UNL     1       1.947   7.188  20.121  0.00  0.00    +0.000 A 
ATOM      2  C   UNL     1       1.229   8.135  20.888  0.00  0.00    +0.000 A 
ATOM      3  C   UNL     1       0.825   9.358  20.359  0.00  0.00    +0.000 A 
ATOM      4  C   UNL     1       1.133   9.651  19.046  0.00  0.00    +0.000 A 
ATOM      5  F   UNL     1       0.734  10.816  18.516  0.00  0.00    +0.000 F 
ATOM      6  C   UNL     1       1.872   8.766  18.271  0.00  0.00    +0.000 A 
ATOM      7  C   UNL     1       2.357   7.558  18.807  0.00  0.00    +0.000 A 
ENDROOT
BRANCH   1   8
ATOM      8  N   UNL     1       2.314   6.013  20.793  0.00  0.00    +0.000 N 
ATOM      9  H   UNL     1       2.614   6.189  21.747  0.00  0.00    +0.000 HD
BRANCH   8  10
ATOM     10  C   UNL     1       1.560   4.765  20.718  0.00  0.00    +0.000 C 
BRANCH  10  15
ATOM     11  C   UNL     1       3.997   2.148  19.416  0.00  0.00    +0.000 A 
ATOM     12  C   UNL     1       3.507   1.871  18.145  0.00  0.00    +0.000 A 
ATOM     13  C   UNL     1       2.377   2.543  17.688  0.00  0.00    +0.000 A 
ATOM     14  C   UNL     1       1.750   3.485  18.504  0.00  0.00    +0.000 A 
ATOM     15  C   UNL     1       2.231   3.765  19.794  0.00  0.00    +0.000 A 
ATOM     16  C   UNL     1       3.371   3.080  20.241  0.00  0.00    +0.000 A 
BRANCH  11  17
ATOM     17  O   UNL     1       5.109   1.520  19.897  0.00  0.00    +0.000 OA
ATOM     18  H   UNL     1       4.973   1.346  20.843  0.00  0.00    +0.000 HD
ENDBRANCH  11  17
ENDBRANCH  10  15
ENDBRANCH   8  10
ENDBRANCH   1   8
BRANCH   7  19
ATOM     19  N   UNL     1       3.157   6.692  18.022  0.00  0.00    +0.000 N 
ATOM     20  H   UNL     1       3.596   6.026  18.653  0.00  0.00    +0.000 HD
BRANCH  19  21
ATOM     21  C   UNL     1       4.194   7.289  17.184  0.00  0.00    +0.000 C 
BRANCH  21  22
ATOM     22  C   UNL     1       5.334   6.326  16.925  0.00  0.00    +0.000 A 
ATOM     23  C   UNL     1       6.288   6.005  17.903  0.00  0.00    +0.000 A 
ATOM     24  C   UNL     1       7.267   5.037  17.651  0.00  0.00    +0.000 A 
ATOM     25  C   UNL     1       7.296   4.365  16.430  0.00  0.00    +0.000 A 
ATOM     26  C   UNL     1       6.341   4.674  15.464  0.00  0.00    +0.000 A 
ATOM     27  C   UNL     1       5.372   5.640  15.702  0.00  0.00    +0.000 A 
BRANCH  26  28
ATOM     28  O   UNL     1       6.312   4.031  14.262  0.00  0.00    +0.000 OA
ATOM     29  H   UNL     1       6.011   4.657  13.585  0.00  0.00    +0.000 HD
ENDBRANCH  26  28
ENDBRANCH  21  22
ENDBRANCH  19  21
ENDBRANCH   7  19
TORSDOF 8
ENDMDL
