MODEL 1
REMARK VINA RESULT:      -6.6      0.000      0.000
REMARK  Name = 
REMARK  18 active torsions:
REMARK  status: ('A' for Active; 'I' for Inactive)
REMARK    1  A    between atoms: C_1  and  C_2
REMARK    2  A    between atoms: C_2  and  C_3
REMARK    3  A    between atoms: C_3  and  C_4
REMARK    4  A    between atoms: C_4  and  C_5
REMARK    5  A    between atoms: C_5  and  C_6
REMARK    6  A    between atoms: C_6  and  C_7
REMARK    7  A    between atoms: C_7  and  C_8
REMARK    8  A    between atoms: C_8  and  C_9
REMARK    9  A    between atoms: C_12  and  C_13
REMARK   10  A    between atoms: C_16  and  C_17
REMARK   11  A    between atoms: C_17  and  N_18
REMARK   12  A    between atoms: C_17  and  C_19
REMARK   13  A    between atoms: C_17  and  C_21
REMARK   14  A    between atoms: C_19  and  O_20
REMARK   15  A    between atoms: C_21  and  O_22
REMARK   16  A    between atoms: O_22  and  P_23
REMARK   17  A    between atoms: P_23  and  O_24
REMARK   18  A    between atoms: P_23  and  O_25
REMARK                            x       y       z     vdW  Elec       q    Type
REMARK                         _______ _______ _______ _____ _____    ______ ____
ROOT
ATOM      1  C   UNL     1       1.220   8.711  20.366  0.00  0.00    +0.000 A 
ATOM      2  C   UNL     1       0.409   8.802  21.481  0.00  0.00    +0.000 A 
ATOM      3  N   UNL     1      -0.001  10.072  21.594  0.00  0.00    +0.000 N 
ATOM      4  C   UNL     1       0.575  10.743  20.570  0.00  0.00    +0.000 A 
ATOM      5  N   UNL     1       1.324   9.928  19.799  0.00  0.00    +0.000 NA
ATOM      6  H   UNL     1      -0.627  10.446  22.342  0.00  0.00    +0.000 HD
ENDROOT
BRANCH   1  10
ATOM      7  C   UNL     1       3.354   5.293  18.887  0.00  0.00    +0.000 A 
ATOM      8  C   UNL     1       2.642   5.207  20.094  0.00  0.00    +0.000 A 
ATOM      9  C   UNL     1       1.925   6.308  20.571  0.00  0.00    +0.000 A 
ATOM     10  C   UNL     1       1.922   7.517  19.853  0.00  0.00    +0.000 A 
ATOM     11  C   UNL     1       2.622   7.592  18.638  0.00  0.00    +0.000 A 
ATOM     12  C   UNL     1       3.331   6.490  18.158  0.00  0.00    +0.000 A 
BRANCH   7  13
ATOM     13  C   UNL     1       4.155   4.117  18.392  0.00  0.00    +0.000 C 
BRANCH  13  14
ATOM     14  C   UNL     1       3.789   3.747  16.952  0.00  0.00    +0.000 C 
BRANCH  14  15
ATOM     15  C   UNL     1       4.723   4.443  15.960  0.00  0.00    +0.000 C 
BRANCH  15  16
ATOM     16  C   UNL     1       6.092   3.755  15.929  0.00  0.00    +0.000 C 
BRANCH  16  17
ATOM     17  C   UNL     1       7.210   4.750  16.253  0.00  0.00    +0.000 C 
BRANCH  17  18
ATOM     18  C   UNL     1       7.622   4.659  17.727  0.00  0.00    +0.000 C 
BRANCH  18  20
ATOM     19  C   UNL     1       7.031   7.100  17.431  0.00  0.00    +0.000 C 
ATOM     20  C   UNL     1       7.440   6.013  18.421  0.00  0.00    +0.000 C 
ENDBRANCH  18  20
ENDBRANCH  17  18
ENDBRANCH  16  17
ENDBRANCH  15  16
ENDBRANCH  14  15
ENDBRANCH  13  14
ENDBRANCH   7  13
ENDBRANCH   1  10
BRANCH   4  21
ATOM     21  C   UNL     1       0.395  12.231  20.287  0.00  0.00    +0.000 C 
BRANCH  21  22
ATOM     22  N   UNL     1       0.367  12.958  21.564  0.00  0.00    +0.000 NA
ATOM     23  H   UNL     1       1.115  13.691  21.578  0.00  0.00    +0.000 HD
ATOM     24  H   UNL     1       0.554  12.304  22.358  0.00  0.00    +0.000 HD
ENDBRANCH  21  22
BRANCH  21  25
ATOM     25  C   UNL     1      -0.936  12.501  19.512  0.00  0.00    +0.000 C 
BRANCH  25  26
ATOM     26  O   UNL     1      -1.676  11.312  19.404  0.00  0.00    +0.000 OA
BRANCH  26  27
ATOM     27  P   UNL     1      -2.190  11.079  17.769  0.00  0.00    +0.000 P 
ATOM     28  S   UNL     1      -2.754  10.822  15.975  0.00  0.00    +0.000 S 
BRANCH  27  29
ATOM     29  O   UNL     1      -0.776  10.111  17.478  0.00  0.00    +0.000 OA
ATOM     30  H   UNL     1      -0.335  10.021  18.362  0.00  0.00    +0.000 HD
ENDBRANCH  27  29
BRANCH  27  31
ATOM     31  O   UNL     1      -1.407  12.563  17.322  0.00  0.00    +0.000 OA
ATOM     32  H   UNL     1      -0.643  12.651  17.948  0.00  0.00    +0.000 HD
ENDBRANCH  27  31
ENDBRANCH  26  27
ENDBRANCH  25  26
ENDBRANCH  21  25
BRANCH  21  33
ATOM     33  C   UNL     1       1.577  12.773  19.444  0.00  0.00    +0.000 C 
BRANCH  33  34
ATOM     34  O   UNL     1       1.413  12.487  18.078  0.00  0.00    +0.000 OA
ATOM     35  H   UNL     1       0.439  12.518  17.890  0.00  0.00    +0.000 HD
ENDBRANCH  33  34
ENDBRANCH  21  33
ENDBRANCH   4  21
TORSDOF 17
ENDMDL
MODEL 2
REMARK VINA RESULT:      -6.6      1.604      3.014
REMARK  Name = 
REMARK  18 active torsions:
REMARK  status: ('A' for Active; 'I' for Inactive)
REMARK    1  A    between atoms: C_1  and  C_2
REMARK    2  A    between atoms: C_2  and  C_3
REMARK    3  A    between atoms: C_3  and  C_4
REMARK    4  A    between atoms: C_4  and  C_5
REMARK    5  A    between atoms: C_5  and  C_6
REMARK    6  A    between atoms: C_6  and  C_7
REMARK    7  A    between atoms: C_7  and  C_8
REMARK    8  A    between atoms: C_8  and  C_9
REMARK    9  A    between atoms: C_12  and  C_13
REMARK   10  A    between atoms: C_16  and  C_17
REMARK   11  A    between atoms: C_17  and  N_18
REMARK   12  A    between atoms: C_17  and  C_19
REMARK   13  A    between atoms: C_17  and  C_21
REMARK   14  A    between atoms: C_19  and  O_20
REMARK   15  A    between atoms: C_21  and  O_22
REMARK   16  A    between atoms: O_22  and  P_23
REMARK   17  A    between atoms: P_23  and  O_24
REMARK   18  A    between atoms: P_23  and  O_25
REMARK                            x       y       z     vdW  Elec       q    Type
REMARK                         _______ _______ _______ _____ _____    ______ ____
ROOT
ATOM      1  C   UNL     1       0.860   9.185  19.890  0.00  0.00    +0.000 A 
ATOM      2  C   UNL     1       0.280   9.171  21.145  0.00  0.00    +0.000 A 
ATOM      3  N   UNL     1      -0.502  10.253  21.253  0.00  0.00    +0.000 N 
ATOM      4  C   UNL     1      -0.380  10.922  20.083  0.00  0.00    +0.000 A 
ATOM      5  N   UNL     1       0.446  10.283  19.229  0.00  0.00    +0.000 NA
ATOM      6  H   UNL     1      -1.071  10.511  22.091  0.00  0.00    +0.000 HD
ENDROOT
BRANCH   1  10
ATOM      7  C   UNL     1       3.715   6.430  18.253  0.00  0.00    +0.000 A 
ATOM      8  C   UNL     1       3.105   6.157  19.488  0.00  0.00    +0.000 A 
ATOM      9  C   UNL     1       2.156   7.037  20.017  0.00  0.00    +0.000 A 
ATOM     10  C   UNL     1       1.815   8.212  19.323  0.00  0.00    +0.000 A 
ATOM     11  C   UNL     1       2.416   8.472  18.081  0.00  0.00    +0.000 A 
ATOM     12  C   UNL     1       3.357   7.588  17.550  0.00  0.00    +0.000 A 
BRANCH   7  13
ATOM     13  C   UNL     1       4.762   5.499  17.701  0.00  0.00    +0.000 C 
BRANCH  13  14
ATOM     14  C   UNL     1       4.591   4.073  18.233  0.00  0.00    +0.000 C 
BRANCH  14  15
ATOM     15  C   UNL     1       3.912   3.183  17.188  0.00  0.00    +0.000 C 
BRANCH  15  16
ATOM     16  C   UNL     1       2.410   3.069  17.465  0.00  0.00    +0.000 C 
BRANCH  16  17
ATOM     17  C   UNL     1       2.151   2.275  18.749  0.00  0.00    +0.000 C 
BRANCH  17  18
ATOM     18  C   UNL     1       0.830   2.696  19.404  0.00  0.00    +0.000 C 
BRANCH  18  20
ATOM     19  C   UNL     1       2.243   2.913  21.489  0.00  0.00    +0.000 C 
ATOM     20  C   UNL     1       1.096   3.506  20.677  0.00  0.00    +0.000 C 
ENDBRANCH  18  20
ENDBRANCH  17  18
ENDBRANCH  16  17
ENDBRANCH  15  16
ENDBRANCH  14  15
ENDBRANCH  13  14
ENDBRANCH   7  13
ENDBRANCH   1  10
BRANCH   4  21
ATOM     21  C   UNL     1      -1.095  12.225  19.742  0.00  0.00    +0.000 C 
BRANCH  21  22
ATOM     22  N   UNL     1      -1.327  12.979  20.981  0.00  0.00    +0.000 NA
ATOM     23  H   UNL     1      -2.355  13.080  21.155  0.00  0.00    +0.000 HD
ATOM     24  H   UNL     1      -0.927  13.942  20.900  0.00  0.00    +0.000 HD
ENDBRANCH  21  22
BRANCH  21  25
ATOM     25  C   UNL     1      -2.466  11.949  19.042  0.00  0.00    +0.000 C 
BRANCH  25  26
ATOM     26  O   UNL     1      -2.624  10.570  18.826  0.00  0.00    +0.000 OA
BRANCH  26  27
ATOM     27  P   UNL     1      -2.953  10.263  17.156  0.00  0.00    +0.000 P 
ATOM     28  S   UNL     1      -3.313   9.927  15.324  0.00  0.00    +0.000 S 
BRANCH  27  29
ATOM     29  O   UNL     1      -1.251  10.364  16.818  0.00  0.00    +0.000 OA
ATOM     30  H   UNL     1      -0.895   9.455  16.993  0.00  0.00    +0.000 HD
ENDBRANCH  27  29
BRANCH  27  31
ATOM     31  O   UNL     1      -3.219  11.962  16.908  0.00  0.00    +0.000 OA
ATOM     32  H   UNL     1      -3.084  12.378  17.797  0.00  0.00    +0.000 HD
ENDBRANCH  27  31
ENDBRANCH  26  27
ENDBRANCH  25  26
ENDBRANCH  21  25
BRANCH  21  33
ATOM     33  C   UNL     1      -0.224  13.093  18.798  0.00  0.00    +0.000 C 
BRANCH  33  34
ATOM     34  O   UNL     1      -0.780  13.178  17.511  0.00  0.00    +0.000 OA
ATOM     35  H   UNL     1      -0.846  12.251  17.162  0.00  0.00    +0.000 HD
ENDBRANCH  33  34
ENDBRANCH  21  33
ENDBRANCH   4  21
TORSDOF 17
ENDMDL
MODEL 3
REMARK VINA RESULT:      -6.4      0.559      1.114
REMARK  Name = 
REMARK  18 active torsions:
REMARK  status: ('A' for Active; 'I' for Inactive)
REMARK    1  A    between atoms: C_1  and  C_2
REMARK    2  A    between atoms: C_2  and  C_3
REMARK    3  A    between atoms: C_3  and  C_4
REMARK    4  A    between atoms: C_4  and  C_5
REMARK    5  A    between atoms: C_5  and  C_6
REMARK    6  A    between atoms: C_6  and  C_7
REMARK    7  A    between atoms: C_7  and  C_8
REMARK    8  A    between atoms: C_8  and  C_9
REMARK    9  A    between atoms: C_12  and  C_13
REMARK   10  A    between atoms: C_16  and  C_17
REMARK   11  A    between atoms: C_17  and  N_18
REMARK   12  A    between atoms: C_17  and  C_19
REMARK   13  A    between atoms: C_17  and  C_21
REMARK   14  A    between atoms: C_19  and  O_20
REMARK   15  A    between atoms: C_21  and  O_22
REMARK   16  A    between atoms: O_22  and  P_23
REMARK   17  A    between atoms: P_23  and  O_24
REMARK   18  A    between atoms: P_23  and  O_25
REMARK                            x       y       z     vdW  Elec       q    Type
REMARK                         _______ _______ _______ _____ _____    ______ ____
ROOT
ATOM      1  C   UNL     1       1.329   8.649  20.454  0.00  0.00    +0.000 A 
ATOM      2  C   UNL     1       0.844   8.861  21.731  0.00  0.00    +0.000 A 
ATOM      3  N   UNL     1       0.517  10.156  21.841  0.00  0.00    +0.000 N 
ATOM      4  C   UNL     1       0.820  10.720  20.649  0.00  0.00    +0.000 A 
ATOM      5  N   UNL     1       1.314   9.814  19.781  0.00  0.00    +0.000 NA
ATOM      6  H   UNL     1       0.121  10.614  22.693  0.00  0.00    +0.000 HD
ENDROOT
BRANCH   1  10
ATOM      7  C   UNL     1       2.696   4.946  18.767  0.00  0.00    +0.000 A 
ATOM      8  C   UNL     1       2.898   6.150  18.074  0.00  0.00    +0.000 A 
ATOM      9  C   UNL     1       2.478   7.363  18.627  0.00  0.00    +0.000 A 
ATOM     10  C   UNL     1       1.834   7.386  19.877  0.00  0.00    +0.000 A 
ATOM     11  C   UNL     1       1.649   6.182  20.574  0.00  0.00    +0.000 A 
ATOM     12  C   UNL     1       2.077   4.972  20.025  0.00  0.00    +0.000 A 
BRANCH   7  13
ATOM     13  C   UNL     1       3.119   3.636  18.155  0.00  0.00    +0.000 C 
BRANCH  13  14
ATOM     14  C   UNL     1       4.586   3.662  17.717  0.00  0.00    +0.000 C 
BRANCH  14  15
ATOM     15  C   UNL     1       4.710   4.134  16.266  0.00  0.00    +0.000 C 
BRANCH  15  16
ATOM     16  C   UNL     1       6.078   3.760  15.689  0.00  0.00    +0.000 C 
BRANCH  16  17
ATOM     17  C   UNL     1       7.158   4.733  16.171  0.00  0.00    +0.000 C 
BRANCH  17  18
ATOM     18  C   UNL     1       6.558   6.102  16.511  0.00  0.00    +0.000 C 
BRANCH  18  20
ATOM     19  C   UNL     1       7.778   8.028  17.606  0.00  0.00    +0.000 C 
ATOM     20  C   UNL     1       7.163   6.646  17.810  0.00  0.00    +0.000 C 
ENDBRANCH  18  20
ENDBRANCH  17  18
ENDBRANCH  16  17
ENDBRANCH  15  16
ENDBRANCH  14  15
ENDBRANCH  13  14
ENDBRANCH   7  13
ENDBRANCH   1  10
BRANCH   4  21
ATOM     21  C   UNL     1       0.615  12.191  20.300  0.00  0.00    +0.000 C 
BRANCH  21  22
ATOM     22  N   UNL     1       0.721  12.990  21.529  0.00  0.00    +0.000 NA
ATOM     23  H   UNL     1      -0.230  13.295  21.843  0.00  0.00    +0.000 HD
ATOM     24  H   UNL     1       1.285  13.853  21.353  0.00  0.00    +0.000 HD
ENDBRANCH  21  22
BRANCH  21  25
ATOM     25  C   UNL     1      -0.787  12.427  19.651  0.00  0.00    +0.000 C 
BRANCH  25  26
ATOM     26  O   UNL     1      -1.471  11.206  19.532  0.00  0.00    +0.000 OA
BRANCH  26  27
ATOM     27  P   UNL     1      -2.056  11.006  17.917  0.00  0.00    +0.000 P 
ATOM     28  S   UNL     1      -2.697  10.787  16.144  0.00  0.00    +0.000 S 
BRANCH  27  29
ATOM     29  O   UNL     1      -0.604  10.140  17.514  0.00  0.00    +0.000 OA
ATOM     30  H   UNL     1      -0.194  10.650  16.769  0.00  0.00    +0.000 HD
ENDBRANCH  27  29
BRANCH  27  31
ATOM     31  O   UNL     1      -1.387  12.553  17.495  0.00  0.00    +0.000 OA
ATOM     32  H   UNL     1      -1.694  12.724  16.568  0.00  0.00    +0.000 HD
ENDBRANCH  27  31
ENDBRANCH  26  27
ENDBRANCH  25  26
ENDBRANCH  21  25
BRANCH  21  33
ATOM     33  C   UNL     1       1.707  12.673  19.310  0.00  0.00    +0.000 C 
BRANCH  33  34
ATOM     34  O   UNL     1       1.484  12.180  18.014  0.00  0.00    +0.000 OA
ATOM     35  H   UNL     1       2.323  12.320  17.502  0.00  0.00    +0.000 HD
ENDBRANCH  33  34
ENDBRANCH  21  33
ENDBRANCH   4  21
TORSDOF 17
ENDMDL
MODEL 4
REMARK VINA RESULT:      -6.3      5.317      8.974
REMARK  Name = 
REMARK  18 active torsions:
REMARK  status: ('A' for Active; 'I' for Inactive)
REMARK    1  A    between atoms: C_1  and  C_2
REMARK    2  A    between atoms: C_2  and  C_3
REMARK    3  A    between atoms: C_3  and  C_4
REMARK    4  A    between atoms: C_4  and  C_5
REMARK    5  A    between atoms: C_5  and  C_6
REMARK    6  A    between atoms: C_6  and  C_7
REMARK    7  A    between atoms: C_7  and  C_8
REMARK    8  A    between atoms: C_8  and  C_9
REMARK    9  A    between atoms: C_12  and  C_13
REMARK   10  A    between atoms: C_16  and  C_17
REMARK   11  A    between atoms: C_17  and  N_18
REMARK   12  A    between atoms: C_17  and  C_19
REMARK   13  A    between atoms: C_17  and  C_21
REMARK   14  A    between atoms: C_19  and  O_20
REMARK   15  A    between atoms: C_21  and  O_22
REMARK   16  A    between atoms: O_22  and  P_23
REMARK   17  A    between atoms: P_23  and  O_24
REMARK   18  A    between atoms: P_23  and  O_25
REMARK                            x       y       z     vdW  Elec       q    Type
REMARK                         _______ _______ _______ _____ _____    ______ ____
ROOT
ATOM      1  C   UNL     1       2.213   5.922  20.049  0.00  0.00    +0.000 A 
ATOM      2  C   UNL     1       1.943   4.929  20.972  0.00  0.00    +0.000 A 
ATOM      3  N   UNL     1       2.518   3.797  20.544  0.00  0.00    +0.000 N 
ATOM      4  C   UNL     1       3.111   4.102  19.366  0.00  0.00    +0.000 A 
ATOM      5  N   UNL     1       2.942   5.400  19.045  0.00  0.00    +0.000 NA
ATOM      6  H   UNL     1       2.487   2.875  21.034  0.00  0.00    +0.000 HD
ENDROOT
BRANCH   1  10
ATOM      7  C   UNL     1       0.846   9.991  20.063  0.00  0.00    +0.000 A 
ATOM      8  C   UNL     1       0.702   9.199  21.213  0.00  0.00    +0.000 A 
ATOM      9  C   UNL     1       1.166   7.880  21.225  0.00  0.00    +0.000 A 
ATOM     10  C   UNL     1       1.768   7.331  20.079  0.00  0.00    +0.000 A 
ATOM     11  C   UNL     1       1.924   8.132  18.937  0.00  0.00    +0.000 A 
ATOM     12  C   UNL     1       1.468   9.451  18.929  0.00  0.00    +0.000 A 
BRANCH   7  13
ATOM     13  C   UNL     1       0.314  11.400  20.040  0.00  0.00    +0.000 C 
BRANCH  13  14
ATOM     14  C   UNL     1      -1.200  11.438  20.265  0.00  0.00    +0.000 C 
BRANCH  14  15
ATOM     15  C   UNL     1      -1.889  12.268  19.178  0.00  0.00    +0.000 C 
BRANCH  15  16
ATOM     16  C   UNL     1      -1.516  11.753  17.785  0.00  0.00    +0.000 C 
BRANCH  16  17
ATOM     17  C   UNL     1      -2.054  10.336  17.565  0.00  0.00    +0.000 C 
BRANCH  17  18
ATOM     18  C   UNL     1      -3.566  10.350  17.313  0.00  0.00    +0.000 C 
BRANCH  18  20
ATOM     19  C   UNL     1      -3.019  10.083  14.859  0.00  0.00    +0.000 C 
ATOM     20  C   UNL     1      -3.869  10.822  15.887  0.00  0.00    +0.000 C 
ENDBRANCH  18  20
ENDBRANCH  17  18
ENDBRANCH  16  17
ENDBRANCH  15  16
ENDBRANCH  14  15
ENDBRANCH  13  14
ENDBRANCH   7  13
ENDBRANCH   1  10
BRANCH   4  21
ATOM     21  C   UNL     1       3.898   3.120  18.503  0.00  0.00    +0.000 C 
BRANCH  21  22
ATOM     22  N   UNL     1       5.071   2.659  19.257  0.00  0.00    +0.000 NA
ATOM     23  H   UNL     1       4.825   2.532  20.267  0.00  0.00    +0.000 HD
ATOM     24  H   UNL     1       5.837   3.370  19.208  0.00  0.00    +0.000 HD
ENDBRANCH  21  22
BRANCH  21  25
ATOM     25  C   UNL     1       4.371   3.791  17.172  0.00  0.00    +0.000 C 
BRANCH  25  26
ATOM     26  O   UNL     1       5.765   3.672  17.046  0.00  0.00    +0.000 OA
BRANCH  26  27
ATOM     27  P   UNL     1       6.513   5.219  17.241  0.00  0.00    +0.000 P 
ATOM     28  S   UNL     1       7.334   6.917  17.454  0.00  0.00    +0.000 S 
BRANCH  27  29
ATOM     29  O   UNL     1       7.868   4.665  16.304  0.00  0.00    +0.000 OA
ATOM     30  H   UNL     1       7.628   3.748  16.016  0.00  0.00    +0.000 HD
ENDBRANCH  27  29
BRANCH  27  31
ATOM     31  O   UNL     1       7.192   4.689  18.749  0.00  0.00    +0.000 OA
ATOM     32  H   UNL     1       7.339   3.715  18.639  0.00  0.00    +0.000 HD
ENDBRANCH  27  31
ENDBRANCH  26  27
ENDBRANCH  25  26
ENDBRANCH  21  25
BRANCH  21  33
ATOM     33  C   UNL     1       3.028   1.885  18.153  0.00  0.00    +0.000 C 
BRANCH  33  34
ATOM     34  O   UNL     1       1.677   2.232  17.989  0.00  0.00    +0.000 OA
ATOM     35  H   UNL     1       1.563   3.141  18.370  0.00  0.00    +0.000 HD
ENDBRANCH  33  34
ENDBRANCH  21  33
ENDBRANCH   4  21
TORSDOF 17
ENDMDL
MODEL 5
REMARK VINA RESULT:      -6.2      1.298      2.029
REMARK  Name = 
REMARK  18 active torsions:
REMARK  status: ('A' for Active; 'I' for Inactive)
REMARK    1  A    between atoms: C_1  and  C_2
REMARK    2  A    between atoms: C_2  and  C_3
REMARK    3  A    between atoms: C_3  and  C_4
REMARK    4  A    between atoms: C_4  and  C_5
REMARK    5  A    between atoms: C_5  and  C_6
REMARK    6  A    between atoms: C_6  and  C_7
REMARK    7  A    between atoms: C_7  and  C_8
REMARK    8  A    between atoms: C_8  and  C_9
REMARK    9  A    between atoms: C_12  and  C_13
REMARK   10  A    between atoms: C_16  and  C_17
REMARK   11  A    between atoms: C_17  and  N_18
REMARK   12  A    between atoms: C_17  and  C_19
REMARK   13  A    between atoms: C_17  and  C_21
REMARK   14  A    between atoms: C_19  and  O_20
REMARK   15  A    between atoms: C_21  and  O_22
REMARK   16  A    between atoms: O_22  and  P_23
REMARK   17  A    between atoms: P_23  and  O_24
REMARK   18  A    between atoms: P_23  and  O_25
REMARK                            x       y       z     vdW  Elec       q    Type
REMARK                         _______ _______ _______ _____ _____    ______ ____
ROOT
ATOM      1  C   UNL     1       1.853   8.166  19.476  0.00  0.00    +0.000 A 
ATOM      2  C   UNL     1       1.307   7.957  20.728  0.00  0.00    +0.000 A 
ATOM      3  N   UNL     1       0.708   9.091  21.115  0.00  0.00    +0.000 N 
ATOM      4  C   UNL     1       0.907   9.979  20.114  0.00  0.00    +0.000 A 
ATOM      5  N   UNL     1       1.602   9.433  19.095  0.00  0.00    +0.000 NA
ATOM      6  H   UNL     1       0.206   9.237  22.019  0.00  0.00    +0.000 HD
ENDROOT
BRANCH   1  10
ATOM      7  C   UNL     1       4.201   5.436  17.141  0.00  0.00    +0.000 A 
ATOM      8  C   UNL     1       3.311   4.945  18.109  0.00  0.00    +0.000 A 
ATOM      9  C   UNL     1       2.525   5.826  18.857  0.00  0.00    +0.000 A 
ATOM     10  C   UNL     1       2.630   7.214  18.657  0.00  0.00    +0.000 A 
ATOM     11  C   UNL     1       3.510   7.699  17.676  0.00  0.00    +0.000 A 
ATOM     12  C   UNL     1       4.288   6.818  16.923  0.00  0.00    +0.000 A 
BRANCH   7  13
ATOM     13  C   UNL     1       5.073   4.488  16.359  0.00  0.00    +0.000 C 
BRANCH  13  14
ATOM     14  C   UNL     1       6.223   3.943  17.211  0.00  0.00    +0.000 C 
BRANCH  14  15
ATOM     15  C   UNL     1       7.359   4.964  17.305  0.00  0.00    +0.000 C 
BRANCH  15  16
ATOM     16  C   UNL     1       7.557   5.425  18.753  0.00  0.00    +0.000 C 
BRANCH  16  17
ATOM     17  C   UNL     1       8.062   6.870  18.801  0.00  0.00    +0.000 C 
BRANCH  17  18
ATOM     18  C   UNL     1       7.649   7.644  17.543  0.00  0.00    +0.000 C 
BRANCH  18  20
ATOM     19  C   UNL     1       8.949   9.401  18.813  0.00  0.00    +0.000 C 
ATOM     20  C   UNL     1       7.916   9.142  17.721  0.00  0.00    +0.000 C 
ENDBRANCH  18  20
ENDBRANCH  17  18
ENDBRANCH  16  17
ENDBRANCH  15  16
ENDBRANCH  14  15
ENDBRANCH  13  14
ENDBRANCH   7  13
ENDBRANCH   1  10
BRANCH   4  21
ATOM     21  C   UNL     1       0.398  11.417  20.106  0.00  0.00    +0.000 C 
BRANCH  21  22
ATOM     22  N   UNL     1       0.578  11.993  21.446  0.00  0.00    +0.000 NA
ATOM     23  H   UNL     1       0.789  11.236  22.138  0.00  0.00    +0.000 HD
ATOM     24  H   UNL     1      -0.300  12.467  21.757  0.00  0.00    +0.000 HD
ENDBRANCH  21  22
BRANCH  21  25
ATOM     25  C   UNL     1      -1.115  11.478  19.717  0.00  0.00    +0.000 C 
BRANCH  25  26
ATOM     26  O   UNL     1      -1.402  10.494  18.757  0.00  0.00    +0.000 OA
BRANCH  26  27
ATOM     27  P   UNL     1      -2.843  10.907  17.893  0.00  0.00    +0.000 P 
ATOM     28  S   UNL     1      -4.422  11.361  16.946  0.00  0.00    +0.000 S 
BRANCH  27  29
ATOM     29  O   UNL     1      -1.872  11.660  16.664  0.00  0.00    +0.000 OA
ATOM     30  H   UNL     1      -1.392  10.916  16.218  0.00  0.00    +0.000 HD
ENDBRANCH  27  29
BRANCH  27  31
ATOM     31  O   UNL     1      -2.978  12.359  18.837  0.00  0.00    +0.000 OA
ATOM     32  H   UNL     1      -3.581  12.125  19.588  0.00  0.00    +0.000 HD
ENDBRANCH  27  31
ENDBRANCH  26  27
ENDBRANCH  25  26
ENDBRANCH  21  25
BRANCH  21  33
ATOM     33  C   UNL     1       1.204  12.274  19.095  0.00  0.00    +0.000 C 
BRANCH  33  34
ATOM     34  O   UNL     1       0.371  12.838  18.114  0.00  0.00    +0.000 OA
ATOM     35  H   UNL     1       0.884  13.570  17.684  0.00  0.00    +0.000 HD
ENDBRANCH  33  34
ENDBRANCH  21  33
ENDBRANCH   4  21
TORSDOF 17
ENDMDL
MODEL 6
REMARK VINA RESULT:      -6.1      7.206      8.822
REMARK  Name = 
REMARK  18 active torsions:
REMARK  status: ('A' for Active; 'I' for Inactive)
REMARK    1  A    between atoms: C_1  and  C_2
REMARK    2  A    between atoms: C_2  and  C_3
REMARK    3  A    between atoms: C_3  and  C_4
REMARK    4  A    between atoms: C_4  and  C_5
REMARK    5  A    between atoms: C_5  and  C_6
REMARK    6  A    between atoms: C_6  and  C_7
REMARK    7  A    between atoms: C_7  and  C_8
REMARK    8  A    between atoms: C_8  and  C_9
REMARK    9  A    between atoms: C_12  and  C_13
REMARK   10  A    between atoms: C_16  and  C_17
REMARK   11  A    between atoms: C_17  and  N_18
REMARK   12  A    between atoms: C_17  and  C_19
REMARK   13  A    between atoms: C_17  and  C_21
REMARK   14  A    between atoms: C_19  and  O_20
REMARK   15  A    between atoms: C_21  and  O_22
REMARK   16  A    between atoms: O_22  and  P_23
REMARK   17  A    between atoms: P_23  and  O_24
REMARK   18  A    between atoms: P_23  and  O_25
REMARK                            x       y       z     vdW  Elec       q    Type
REMARK                         _______ _______ _______ _____ _____    ______ ____
ROOT
ATOM      1  C   UNL     1       8.537   9.590  18.261  0.00  0.00    +0.000 A 
ATOM      2  C   UNL     1       8.195  10.728  17.556  0.00  0.00    +0.000 A 
ATOM      3  N   UNL     1       8.946  11.740  18.011  0.00  0.00    +0.000 N 
ATOM      4  C   UNL     1       9.718  11.220  18.993  0.00  0.00    +0.000 A 
ATOM      5  N   UNL     1       9.490   9.902  19.160  0.00  0.00    +0.000 NA
ATOM      6  H   UNL     1       8.911  12.726  17.667  0.00  0.00    +0.000 HD
ENDROOT
BRANCH   1  10
ATOM      7  C   UNL     1       6.823   5.665  17.973  0.00  0.00    +0.000 A 
ATOM      8  C   UNL     1       6.386   6.686  17.114  0.00  0.00    +0.000 A 
ATOM      9  C   UNL     1       6.956   7.961  17.185  0.00  0.00    +0.000 A 
ATOM     10  C   UNL     1       7.962   8.236  18.128  0.00  0.00    +0.000 A 
ATOM     11  C   UNL     1       8.407   7.207  18.973  0.00  0.00    +0.000 A 
ATOM     12  C   UNL     1       7.844   5.932  18.896  0.00  0.00    +0.000 A 
BRANCH   7  13
ATOM     13  C   UNL     1       6.184   4.302  17.919  0.00  0.00    +0.000 C 
BRANCH  13  14
ATOM     14  C   UNL     1       4.934   4.227  18.800  0.00  0.00    +0.000 C 
BRANCH  14  15
ATOM     15  C   UNL     1       3.879   3.317  18.166  0.00  0.00    +0.000 C 
BRANCH  15  16
ATOM     16  C   UNL     1       2.845   4.141  17.392  0.00  0.00    +0.000 C 
BRANCH  16  17
ATOM     17  C   UNL     1       1.446   3.962  17.991  0.00  0.00    +0.000 C 
BRANCH  17  18
ATOM     18  C   UNL     1       1.446   2.891  19.087  0.00  0.00    +0.000 C 
BRANCH  18  20
ATOM     19  C   UNL     1       1.830   2.966  21.585  0.00  0.00    +0.000 C 
ATOM     20  C   UNL     1       0.991   3.488  20.423  0.00  0.00    +0.000 C 
ENDBRANCH  18  20
ENDBRANCH  17  18
ENDBRANCH  16  17
ENDBRANCH  15  16
ENDBRANCH  14  15
ENDBRANCH  13  14
ENDBRANCH   7  13
ENDBRANCH   1  10
BRANCH   4  21
ATOM     21  C   UNL     1      10.744  12.003  19.806  0.00  0.00    +0.000 C 
BRANCH  21  22
ATOM     22  N   UNL     1      10.666  11.575  21.209  0.00  0.00    +0.000 NA
ATOM     23  H   UNL     1      10.396  10.565  21.264  0.00  0.00    +0.000 HD
ATOM     24  H   UNL     1       9.934  12.124  21.716  0.00  0.00    +0.000 HD
ENDBRANCH  21  22
BRANCH  21  25
ATOM     25  C   UNL     1      10.476  13.542  19.720  0.00  0.00    +0.000 C 
BRANCH  25  26
ATOM     26  O   UNL     1      11.608  14.196  19.205  0.00  0.00    +0.000 OA
BRANCH  26  27
ATOM     27  P   UNL     1      11.128  15.395  18.055  0.00  0.00    +0.000 P 
ATOM     28  S   UNL     1      10.602  16.711  16.793  0.00  0.00    +0.000 S 
BRANCH  27  29
ATOM     29  O   UNL     1       9.520  14.736  18.059  0.00  0.00    +0.000 OA
ATOM     30  H   UNL     1       9.634  13.769  17.871  0.00  0.00    +0.000 HD
ENDBRANCH  27  29
BRANCH  27  31
ATOM     31  O   UNL     1      11.672  14.363  16.768  0.00  0.00    +0.000 OA
ATOM     32  H   UNL     1      12.338  13.758  17.185  0.00  0.00    +0.000 HD
ENDBRANCH  27  31
ENDBRANCH  26  27
ENDBRANCH  25  26
ENDBRANCH  21  25
BRANCH  21  33
ATOM     33  C   UNL     1      12.178  11.721  19.289  0.00  0.00    +0.000 C 
BRANCH  33  34
ATOM     34  O   UNL     1      12.198  11.519  17.899  0.00  0.00    +0.000 OA
ATOM     35  H   UNL     1      12.906  12.109  17.530  0.00  0.00    +0.000 HD
ENDBRANCH  33  34
ENDBRANCH  21  33
ENDBRANCH   4  21
TORSDOF 17
ENDMDL
MODEL 7
REMARK VINA RESULT:      -6.1      5.261      9.242
REMARK  Name = 
REMARK  18 active torsions:
REMARK  status: ('A' for Active; 'I' for Inactive)
REMARK    1  A    between atoms: C_1  and  C_2
REMARK    2  A    between atoms: C_2  and  C_3
REMARK    3  A    between atoms: C_3  and  C_4
REMARK    4  A    between atoms: C_4  and  C_5
REMARK    5  A    between atoms: C_5  and  C_6
REMARK    6  A    between atoms: C_6  and  C_7
REMARK    7  A    between atoms: C_7  and  C_8
REMARK    8  A    between atoms: C_8  and  C_9
REMARK    9  A    between atoms: C_12  and  C_13
REMARK   10  A    between atoms: C_16  and  C_17
REMARK   11  A    between atoms: C_17  and  N_18
REMARK   12  A    between atoms: C_17  and  C_19
REMARK   13  A    between atoms: C_17  and  C_21
REMARK   14  A    between atoms: C_19  and  O_20
REMARK   15  A    between atoms: C_21  and  O_22
REMARK   16  A    between atoms: O_22  and  P_23
REMARK   17  A    between atoms: P_23  and  O_24
REMARK   18  A    between atoms: P_23  and  O_25
REMARK                            x       y       z     vdW  Elec       q    Type
REMARK                         _______ _______ _______ _____ _____    ______ ____
ROOT
ATOM      1  C   UNL     1       2.338   6.333  19.756  0.00  0.00    +0.000 A 
ATOM      2  C   UNL     1       1.998   5.331  20.645  0.00  0.00    +0.000 A 
ATOM      3  N   UNL     1       2.632   4.211  20.271  0.00  0.00    +0.000 N 
ATOM      4  C   UNL     1       3.330   4.531  19.157  0.00  0.00    +0.000 A 
ATOM      5  N   UNL     1       3.171   5.829  18.825  0.00  0.00    +0.000 NA
ATOM      6  H   UNL     1       2.570   3.286  20.753  0.00  0.00    +0.000 HD
ENDROOT
BRANCH   1  10
ATOM      7  C   UNL     1       0.890  10.372  19.667  0.00  0.00    +0.000 A 
ATOM      8  C   UNL     1       0.874   9.648  20.869  0.00  0.00    +0.000 A 
ATOM      9  C   UNL     1       1.366   8.340  20.912  0.00  0.00    +0.000 A 
ATOM     10  C   UNL     1       1.868   7.733  19.747  0.00  0.00    +0.000 A 
ATOM     11  C   UNL     1       1.897   8.468  18.551  0.00  0.00    +0.000 A 
ATOM     12  C   UNL     1       1.413   9.776  18.511  0.00  0.00    +0.000 A 
BRANCH   7  13
ATOM     13  C   UNL     1       0.328  11.769  19.614  0.00  0.00    +0.000 C 
BRANCH  13  14
ATOM     14  C   UNL     1      -1.203  11.765  19.640  0.00  0.00    +0.000 C 
BRANCH  14  15
ATOM     15  C   UNL     1      -1.770  11.929  18.227  0.00  0.00    +0.000 C 
BRANCH  15  16
ATOM     16  C   UNL     1      -2.779  10.819  17.914  0.00  0.00    +0.000 C 
BRANCH  16  17
ATOM     17  C   UNL     1      -3.573  11.147  16.646  0.00  0.00    +0.000 C 
BRANCH  17  18
ATOM     18  C   UNL     1      -5.029  11.492  16.979  0.00  0.00    +0.000 C 
BRANCH  18  20
ATOM     19  C   UNL     1      -6.702  10.555  18.628  0.00  0.00    +0.000 C 
ATOM     20  C   UNL     1      -5.329  11.197  18.452  0.00  0.00    +0.000 C 
ENDBRANCH  18  20
ENDBRANCH  17  18
ENDBRANCH  16  17
ENDBRANCH  15  16
ENDBRANCH  14  15
ENDBRANCH  13  14
ENDBRANCH   7  13
ENDBRANCH   1  10
BRANCH   4  21
ATOM     21  C   UNL     1       4.215   3.568  18.372  0.00  0.00    +0.000 C 
BRANCH  21  22
ATOM     22  N   UNL     1       5.304   3.105  19.242  0.00  0.00    +0.000 NA
ATOM     23  H   UNL     1       6.002   2.558  18.685  0.00  0.00    +0.000 HD
ATOM     24  H   UNL     1       4.931   2.473  19.987  0.00  0.00    +0.000 HD
ENDBRANCH  21  22
BRANCH  21  25
ATOM     25  C   UNL     1       4.823   4.261  17.109  0.00  0.00    +0.000 C 
BRANCH  25  26
ATOM     26  O   UNL     1       6.225   4.234  17.177  0.00  0.00    +0.000 OA
BRANCH  26  27
ATOM     27  P   UNL     1       6.843   5.841  17.344  0.00  0.00    +0.000 P 
ATOM     28  S   UNL     1       7.521   7.604  17.526  0.00  0.00    +0.000 S 
BRANCH  27  29
ATOM     29  O   UNL     1       5.316   6.469  16.803  0.00  0.00    +0.000 OA
ATOM     30  H   UNL     1       5.519   7.363  16.426  0.00  0.00    +0.000 HD
ENDBRANCH  27  29
BRANCH  27  31
ATOM     31  O   UNL     1       7.501   5.742  15.739  0.00  0.00    +0.000 OA
ATOM     32  H   UNL     1       7.035   6.450  15.224  0.00  0.00    +0.000 HD
ENDBRANCH  27  31
ENDBRANCH  26  27
ENDBRANCH  25  26
ENDBRANCH  21  25
BRANCH  21  33
ATOM     33  C   UNL     1       3.399   2.331  17.913  0.00  0.00    +0.000 C 
BRANCH  33  34
ATOM     34  O   UNL     1       4.060   1.131  18.220  0.00  0.00    +0.000 OA
ATOM     35  H   UNL     1       4.387   0.752  17.363  0.00  0.00    +0.000 HD
ENDBRANCH  33  34
ENDBRANCH  21  33
ENDBRANCH   4  21
TORSDOF 17
ENDMDL
MODEL 8
REMARK VINA RESULT:      -6.0      2.951      4.334
REMARK  Name = 
REMARK  18 active torsions:
REMARK  status: ('A' for Active; 'I' for Inactive)
REMARK    1  A    between atoms: C_1  and  C_2
REMARK    2  A    between atoms: C_2  and  C_3
REMARK    3  A    between atoms: C_3  and  C_4
REMARK    4  A    between atoms: C_4  and  C_5
REMARK    5  A    between atoms: C_5  and  C_6
REMARK    6  A    between atoms: C_6  and  C_7
REMARK    7  A    between atoms: C_7  and  C_8
REMARK    8  A    between atoms: C_8  and  C_9
REMARK    9  A    between atoms: C_12  and  C_13
REMARK   10  A    between atoms: C_16  and  C_17
REMARK   11  A    between atoms: C_17  and  N_18
REMARK   12  A    between atoms: C_17  and  C_19
REMARK   13  A    between atoms: C_17  and  C_21
REMARK   14  A    between atoms: C_19  and  O_20
REMARK   15  A    between atoms: C_21  and  O_22
REMARK   16  A    between atoms: O_22  and  P_23
REMARK   17  A    between atoms: P_23  and  O_24
REMARK   18  A    between atoms: P_23  and  O_25
REMARK                            x       y       z     vdW  Elec       q    Type
REMARK                         _______ _______ _______ _____ _____    ______ ____
ROOT
ATOM      1  C   UNL     1       1.697   9.176  18.855  0.00  0.00    +0.000 A 
ATOM      2  C   UNL     1       1.488  10.206  17.957  0.00  0.00    +0.000 A 
ATOM      3  N   UNL     1       0.676  11.102  18.535  0.00  0.00    +0.000 N 
ATOM      4  C   UNL     1       0.384  10.606  19.760  0.00  0.00    +0.000 A 
ATOM      5  N   UNL     1       1.003   9.428  19.980  0.00  0.00    +0.000 NA
ATOM      6  H   UNL     1       0.341  11.990  18.099  0.00  0.00    +0.000 HD
ENDROOT
BRANCH   1  10
ATOM      7  C   UNL     1       4.124   5.681  18.293  0.00  0.00    +0.000 A 
ATOM      8  C   UNL     1       3.268   5.770  19.403  0.00  0.00    +0.000 A 
ATOM      9  C   UNL     1       2.457   6.894  19.580  0.00  0.00    +0.000 A 
ATOM     10  C   UNL     1       2.501   7.953  18.656  0.00  0.00    +0.000 A 
ATOM     11  C   UNL     1       3.346   7.852  17.540  0.00  0.00    +0.000 A 
ATOM     12  C   UNL     1       4.150   6.725  17.358  0.00  0.00    +0.000 A 
BRANCH   7  13
ATOM     13  C   UNL     1       5.024   4.484  18.121  0.00  0.00    +0.000 C 
BRANCH  13  14
ATOM     14  C   UNL     1       4.424   3.459  17.156  0.00  0.00    +0.000 C 
BRANCH  14  15
ATOM     15  C   UNL     1       3.717   2.340  17.924  0.00  0.00    +0.000 C 
BRANCH  15  16
ATOM     16  C   UNL     1       2.196   2.464  17.788  0.00  0.00    +0.000 C 
BRANCH  16  17
ATOM     17  C   UNL     1       1.493   1.972  19.056  0.00  0.00    +0.000 C 
BRANCH  17  18
ATOM     18  C   UNL     1       0.625   3.075  19.672  0.00  0.00    +0.000 C 
BRANCH  18  20
ATOM     19  C   UNL     1       2.186   2.623  21.608  0.00  0.00    +0.000 C 
ATOM     20  C   UNL     1       1.297   3.654  20.921  0.00  0.00    +0.000 C 
ENDBRANCH  18  20
ENDBRANCH  17  18
ENDBRANCH  16  17
ENDBRANCH  15  16
ENDBRANCH  14  15
ENDBRANCH  13  14
ENDBRANCH   7  13
ENDBRANCH   1  10
BRANCH   4  21
ATOM     21  C   UNL     1      -0.513  11.288  20.788  0.00  0.00    +0.000 C 
BRANCH  21  22
ATOM     22  N   UNL     1      -1.800  11.612  20.158  0.00  0.00    +0.000 NA
ATOM     23  H   UNL     1      -1.773  11.370  19.139  0.00  0.00    +0.000 HD
ATOM     24  H   UNL     1      -1.993  12.636  20.233  0.00  0.00    +0.000 HD
ENDBRANCH  21  22
BRANCH  21  25
ATOM     25  C   UNL     1       0.143  12.601  21.326  0.00  0.00    +0.000 C 
BRANCH  25  26
ATOM     26  O   UNL     1       1.541  12.510  21.233  0.00  0.00    +0.000 OA
BRANCH  26  27
ATOM     27  P   UNL     1       2.206  14.034  20.753  0.00  0.00    +0.000 P 
ATOM     28  S   UNL     1       2.935  15.704  20.226  0.00  0.00    +0.000 S 
BRANCH  27  29
ATOM     29  O   UNL     1       2.670  13.334  19.231  0.00  0.00    +0.000 OA
ATOM     30  H   UNL     1       2.004  12.621  19.057  0.00  0.00    +0.000 HD
ENDBRANCH  27  29
BRANCH  27  31
ATOM     31  O   UNL     1       3.701  13.614  21.531  0.00  0.00    +0.000 OA
ATOM     32  H   UNL     1       3.438  13.219  22.401  0.00  0.00    +0.000 HD
ENDBRANCH  27  31
ENDBRANCH  26  27
ENDBRANCH  25  26
ENDBRANCH  21  25
BRANCH  21  33
ATOM     33  C   UNL     1      -0.782  10.342  21.987  0.00  0.00    +0.000 C 
BRANCH  33  34
ATOM     34  O   UNL     1      -0.101  10.762  23.142  0.00  0.00    +0.000 OA
ATOM     35  H   UNL     1      -0.082  11.754  23.122  0.00  0.00    +0.000 HD
ENDBRANCH  33  34
ENDBRANCH  21  33
ENDBRANCH   4  21
TORSDOF 17
ENDMDL
MODEL 9
REMARK VINA RESULT:      -6.0      3.520      4.548
REMARK  Name = 
REMARK  18 active torsions:
REMARK  status: ('A' for Active; 'I' for Inactive)
REMARK    1  A    between atoms: C_1  and  C_2
REMARK    2  A    between atoms: C_2  and  C_3
REMARK    3  A    between atoms: C_3  and  C_4
REMARK    4  A    between atoms: C_4  and  C_5
REMARK    5  A    between atoms: C_5  and  C_6
REMARK    6  A    between atoms: C_6  and  C_7
REMARK    7  A    between atoms: C_7  and  C_8
REMARK    8  A    between atoms: C_8  and  C_9
REMARK    9  A    between atoms: C_12  and  C_13
REMARK   10  A    between atoms: C_16  and  C_17
REMARK   11  A    between atoms: C_17  and  N_18
REMARK   12  A    between atoms: C_17  and  C_19
REMARK   13  A    between atoms: C_17  and  C_21
REMARK   14  A    between atoms: C_19  and  O_20
REMARK   15  A    between atoms: C_21  and  O_22
REMARK   16  A    between atoms: O_22  and  P_23
REMARK   17  A    between atoms: P_23  and  O_24
REMARK   18  A    between atoms: P_23  and  O_25
REMARK                            x       y       z     vdW  Elec       q    Type
REMARK                         _______ _______ _______ _____ _____    ______ ____
ROOT
ATOM      1  C   UNL     1       0.574  10.213  19.693  0.00  0.00    +0.000 A 
ATOM      2  C   UNL     1       0.033  11.219  18.915  0.00  0.00    +0.000 A 
ATOM      3  N   UNL     1      -0.671  12.030  19.717  0.00  0.00    +0.000 N 
ATOM      4  C   UNL     1      -0.570  11.506  20.960  0.00  0.00    +0.000 A 
ATOM      5  N   UNL     1       0.194  10.395  20.972  0.00  0.00    +0.000 NA
ATOM      6  H   UNL     1      -1.194  12.882  19.413  0.00  0.00    +0.000 HD
ENDROOT
BRANCH   1  10
ATOM      7  C   UNL     1       3.073   6.970  18.401  0.00  0.00    +0.000 A 
ATOM      8  C   UNL     1       2.493   6.943  19.680  0.00  0.00    +0.000 A 
ATOM      9  C   UNL     1       1.659   7.983  20.099  0.00  0.00    +0.000 A 
ATOM     10  C   UNL     1       1.404   9.074  19.250  0.00  0.00    +0.000 A 
ATOM     11  C   UNL     1       1.973   9.089  17.966  0.00  0.00    +0.000 A 
ATOM     12  C   UNL     1       2.799   8.046  17.544  0.00  0.00    +0.000 A 
BRANCH   7  13
ATOM     13  C   UNL     1       3.999   5.866  17.963  0.00  0.00    +0.000 C 
BRANCH  13  14
ATOM     14  C   UNL     1       4.649   5.164  19.159  0.00  0.00    +0.000 C 
BRANCH  14  15
ATOM     15  C   UNL     1       4.797   3.664  18.891  0.00  0.00    +0.000 C 
BRANCH  15  16
ATOM     16  C   UNL     1       3.666   3.159  17.990  0.00  0.00    +0.000 C 
BRANCH  16  17
ATOM     17  C   UNL     1       2.536   2.548  18.824  0.00  0.00    +0.000 C 
BRANCH  17  18
ATOM     18  C   UNL     1       1.322   3.481  18.882  0.00  0.00    +0.000 C 
BRANCH  18  20
ATOM     19  C   UNL     1       2.013   3.517  21.315  0.00  0.00    +0.000 C 
ATOM     20  C   UNL     1       0.857   3.669  20.330  0.00  0.00    +0.000 C 
ENDBRANCH  18  20
ENDBRANCH  17  18
ENDBRANCH  16  17
ENDBRANCH  15  16
ENDBRANCH  14  15
ENDBRANCH  13  14
ENDBRANCH   7  13
ENDBRANCH   1  10
BRANCH   4  21
ATOM     21  C   UNL     1      -1.211  12.096  22.213  0.00  0.00    +0.000 C 
BRANCH  21  22
ATOM     22  N   UNL     1      -1.071  11.136  23.316  0.00  0.00    +0.000 NA
ATOM     23  H   UNL     1      -1.185  10.158  22.959  0.00  0.00    +0.000 HD
ATOM     24  H   UNL     1      -1.815  11.297  24.034  0.00  0.00    +0.000 HD
ENDBRANCH  21  22
BRANCH  21  25
ATOM     25  C   UNL     1      -2.728  12.398  21.981  0.00  0.00    +0.000 C 
BRANCH  25  26
ATOM     26  O   UNL     1      -3.454  12.123  23.151  0.00  0.00    +0.000 OA
BRANCH  26  27
ATOM     27  P   UNL     1      -4.696  13.306  23.373  0.00  0.00    +0.000 P 
ATOM     28  S   UNL     1      -6.058  14.604  23.616  0.00  0.00    +0.000 S 
BRANCH  27  29
ATOM     29  O   UNL     1      -3.775  14.430  22.420  0.00  0.00    +0.000 OA
ATOM     30  H   UNL     1      -3.096  14.803  23.039  0.00  0.00    +0.000 HD
ENDBRANCH  27  29
BRANCH  27  31
ATOM     31  O   UNL     1      -3.954  13.789  24.868  0.00  0.00    +0.000 OA
ATOM     32  H   UNL     1      -4.508  14.540  25.201  0.00  0.00    +0.000 HD
ENDBRANCH  27  31
ENDBRANCH  26  27
ENDBRANCH  25  26
ENDBRANCH  21  25
BRANCH  21  33
ATOM     33  C   UNL     1      -0.500  13.413  22.620  0.00  0.00    +0.000 C 
BRANCH  33  34
ATOM     34  O   UNL     1      -1.063  13.968  23.781  0.00  0.00    +0.000 OA
ATOM     35  H   UNL     1      -1.408  14.865  23.535  0.00  0.00    +0.000 HD
ENDBRANCH  33  34
ENDBRANCH  21  33
ENDBRANCH   4  21
TORSDOF 17
ENDMDL
