MODEL 1
REMARK VINA RESULT:      -7.6      0.000      0.000
REMARK  Name = 
REMARK  13 active torsions:
REMARK  status: ('A' for Active; 'I' for Inactive)
REMARK    1  A    between atoms: C_1  and  O_2
REMARK    2  A    between atoms: O_2  and  C_3
REMARK    3  A    between atoms: C_6  and  N_7
REMARK    4  A    between atoms: N_10  and  C_11
REMARK    5  A    between atoms: C_11  and  C_12
REMARK    6  A    between atoms: C_12  and  O_13
REMARK    7  A    between atoms: C_12  and  C_14
REMARK    8  A    between atoms: C_14  and  O_15
REMARK    9  A    between atoms: O_15  and  C_16
REMARK   10  A    between atoms: C_19  and  C_20
REMARK   11  A    between atoms: C_20  and  C_21
REMARK   12  A    between atoms: C_20  and  C_22
REMARK   13  A    between atoms: C_23  and  C_24
REMARK                            x       y       z     vdW  Elec       q    Type
REMARK                         _______ _______ _______ _____ _____    ______ ____
ROOT
ATOM      1  C   UNL     1       2.339   2.740  20.488  0.00  0.00    +0.000 C 
ENDROOT
BRANCH   1   5
ATOM      2  N   UNL     1       4.446   4.054  17.931  0.00  0.00    +0.000 N 
ATOM      3  C   UNL     1       3.020   3.790  17.682  0.00  0.00    +0.000 C 
ATOM      4  C   UNL     1       2.609   2.355  18.097  0.00  0.00    +0.000 C 
ATOM      5  N   UNL     1       3.047   1.946  19.458  0.00  0.00    +0.000 NA
ATOM      6  C   UNL     1       4.521   2.122  19.492  0.00  0.00    +0.000 C 
ATOM      7  C   UNL     1       5.001   3.565  19.208  0.00  0.00    +0.000 C 
BRANCH   2  11
ATOM      8  C   UNL     1       7.097   5.097  14.816  0.00  0.00    +0.000 A 
ATOM      9  C   UNL     1       6.004   4.265  14.575  0.00  0.00    +0.000 A 
ATOM     10  C   UNL     1       5.122   3.937  15.610  0.00  0.00    +0.000 A 
ATOM     11  C   UNL     1       5.317   4.407  16.918  0.00  0.00    +0.000 A 
ATOM     12  C   UNL     1       6.429   5.226  17.139  0.00  0.00    +0.000 A 
ATOM     13  C   UNL     1       7.310   5.568  16.108  0.00  0.00    +0.000 A 
BRANCH   8  15
ATOM     14  C   UNL     1       7.461   4.780  12.512  0.00  0.00    +0.000 C 
ATOM     15  O   UNL     1       7.898   5.348  13.742  0.00  0.00    +0.000 OA
ENDBRANCH   8  15
ENDBRANCH   2  11
ENDBRANCH   1   5
BRANCH   1  16
ATOM     16  C   UNL     1       1.464   3.920  19.994  0.00  0.00    +0.000 C 
BRANCH  16  17
ATOM     17  O   UNL     1       0.067   3.638  20.180  0.00  0.00    +0.000 OA
ATOM     18  H   UNL     1      -0.096   3.483  21.125  0.00  0.00    +0.000 HD
ENDBRANCH  16  17
BRANCH  16  19
ATOM     19  C   UNL     1       1.833   5.181  20.797  0.00  0.00    +0.000 C 
BRANCH  19  20
ATOM     20  O   UNL     1       2.382   6.160  19.913  0.00  0.00    +0.000 OA
BRANCH  20  21
ATOM     21  C   UNL     1       1.856   7.419  19.999  0.00  0.00    +0.000 A 
ATOM     22  C   UNL     1       2.044   8.219  18.882  0.00  0.00    +0.000 A 
ATOM     23  C   UNL     1       1.533   9.519  18.852  0.00  0.00    +0.000 A 
ATOM     24  C   UNL     1       0.818  10.064  19.941  0.00  0.00    +0.000 A 
ATOM     25  C   UNL     1       0.658   9.262  21.091  0.00  0.00    +0.000 A 
ATOM     26  C   UNL     1      -0.049   9.669  22.354  0.00  0.00    +0.000 C 
ATOM     27  C   UNL     1       1.170   7.945  21.092  0.00  0.00    +0.000 A 
BRANCH  24  28
ATOM     28  C   UNL     1       0.252  11.467  19.747  0.00  0.00    +0.000 C 
ATOM     29  C   UNL     1       1.101  12.319  18.801  0.00  0.00    +0.000 C 
ATOM     30  C   UNL     1      -1.236  11.496  19.390  0.00  0.00    +0.000 C 
ENDBRANCH  24  28
ENDBRANCH  20  21
ENDBRANCH  19  20
ENDBRANCH  16  19
ENDBRANCH   1  16
TORSDOF 9
ENDMDL
MODEL 2
REMARK VINA RESULT:      -7.5      0.683      1.584
REMARK  Name = 
REMARK  13 active torsions:
REMARK  status: ('A' for Active; 'I' for Inactive)
REMARK    1  A    between atoms: C_1  and  O_2
REMARK    2  A    between atoms: O_2  and  C_3
REMARK    3  A    between atoms: C_6  and  N_7
REMARK    4  A    between atoms: N_10  and  C_11
REMARK    5  A    between atoms: C_11  and  C_12
REMARK    6  A    between atoms: C_12  and  O_13
REMARK    7  A    between atoms: C_12  and  C_14
REMARK    8  A    between atoms: C_14  and  O_15
REMARK    9  A    between atoms: O_15  and  C_16
REMARK   10  A    between atoms: C_19  and  C_20
REMARK   11  A    between atoms: C_20  and  C_21
REMARK   12  A    between atoms: C_20  and  C_22
REMARK   13  A    between atoms: C_23  and  C_24
REMARK                            x       y       z     vdW  Elec       q    Type
REMARK                         _______ _______ _______ _____ _____    ______ ____
ROOT
ATOM      1  C   UNL     1       2.308   2.692  20.458  0.00  0.00    +0.000 C 
ENDROOT
BRANCH   1   5
ATOM      2  N   UNL     1       4.426   3.996  17.906  0.00  0.00    +0.000 N 
ATOM      3  C   UNL     1       3.050   3.567  17.608  0.00  0.00    +0.000 C 
ATOM      4  C   UNL     1       2.757   2.138  18.128  0.00  0.00    +0.000 C 
ATOM      5  N   UNL     1       3.151   1.891  19.541  0.00  0.00    +0.000 NA
ATOM      6  C   UNL     1       4.596   2.220  19.634  0.00  0.00    +0.000 C 
ATOM      7  C   UNL     1       4.949   3.676  19.248  0.00  0.00    +0.000 C 
BRANCH   2  11
ATOM      8  C   UNL     1       7.126   5.055  14.839  0.00  0.00    +0.000 A 
ATOM      9  C   UNL     1       5.797   4.750  14.546  0.00  0.00    +0.000 A 
ATOM     10  C   UNL     1       4.906   4.414  15.570  0.00  0.00    +0.000 A 
ATOM     11  C   UNL     1       5.317   4.351  16.910  0.00  0.00    +0.000 A 
ATOM     12  C   UNL     1       6.658   4.644  17.178  0.00  0.00    +0.000 A 
ATOM     13  C   UNL     1       7.554   4.991  16.161  0.00  0.00    +0.000 A 
BRANCH   8  15
ATOM     14  C   UNL     1       7.472   4.835  12.520  0.00  0.00    +0.000 C 
ATOM     15  O   UNL     1       7.912   5.361  13.768  0.00  0.00    +0.000 OA
ENDBRANCH   8  15
ENDBRANCH   2  11
ENDBRANCH   1   5
BRANCH   1  16
ATOM     16  C   UNL     1       1.182   3.546  19.821  0.00  0.00    +0.000 C 
BRANCH  16  17
ATOM     17  O   UNL     1      -0.056   2.818  19.783  0.00  0.00    +0.000 OA
ATOM     18  H   UNL     1       0.104   1.912  20.094  0.00  0.00    +0.000 HD
ENDBRANCH  16  17
BRANCH  16  19
ATOM     19  C   UNL     1       0.991   4.820  20.663  0.00  0.00    +0.000 C 
BRANCH  19  20
ATOM     20  O   UNL     1       2.048   5.738  20.377  0.00  0.00    +0.000 OA
BRANCH  20  21
ATOM     21  C   UNL     1       1.687   7.045  20.199  0.00  0.00    +0.000 A 
ATOM     22  C   UNL     1       0.944   7.601  21.231  0.00  0.00    +0.000 A 
ATOM     23  C   UNL     1       0.536   8.935  21.165  0.00  0.00    +0.000 A 
ATOM     24  C   UNL     1       0.854   9.759  20.063  0.00  0.00    +0.000 A 
ATOM     25  C   UNL     1       1.578   9.182  18.998  0.00  0.00    +0.000 A 
ATOM     26  C   UNL     1       1.992   9.885  17.734  0.00  0.00    +0.000 C 
ATOM     27  C   UNL     1       1.994   7.834  19.094  0.00  0.00    +0.000 A 
BRANCH  24  28
ATOM     28  C   UNL     1       0.410  11.215  20.152  0.00  0.00    +0.000 C 
ATOM     29  C   UNL     1      -0.868  11.391  20.975  0.00  0.00    +0.000 C 
ATOM     30  C   UNL     1       1.519  12.181  20.575  0.00  0.00    +0.000 C 
ENDBRANCH  24  28
ENDBRANCH  20  21
ENDBRANCH  19  20
ENDBRANCH  16  19
ENDBRANCH   1  16
TORSDOF 9
ENDMDL
MODEL 3
REMARK VINA RESULT:      -7.3      0.946      1.148
REMARK  Name = 
REMARK  13 active torsions:
REMARK  status: ('A' for Active; 'I' for Inactive)
REMARK    1  A    between atoms: C_1  and  O_2
REMARK    2  A    between atoms: O_2  and  C_3
REMARK    3  A    between atoms: C_6  and  N_7
REMARK    4  A    between atoms: N_10  and  C_11
REMARK    5  A    between atoms: C_11  and  C_12
REMARK    6  A    between atoms: C_12  and  O_13
REMARK    7  A    between atoms: C_12  and  C_14
REMARK    8  A    between atoms: C_14  and  O_15
REMARK    9  A    between atoms: O_15  and  C_16
REMARK   10  A    between atoms: C_19  and  C_20
REMARK   11  A    between atoms: C_20  and  C_21
REMARK   12  A    between atoms: C_20  and  C_22
REMARK   13  A    between atoms: C_23  and  C_24
REMARK                            x       y       z     vdW  Elec       q    Type
REMARK                         _______ _______ _______ _____ _____    ______ ____
ROOT
ATOM      1  C   UNL     1       1.786   3.001  19.810  0.00  0.00    +0.000 C 
ENDROOT
BRANCH   1   5
ATOM      2  N   UNL     1       4.153   4.162  17.413  0.00  0.00    +0.000 N 
ATOM      3  C   UNL     1       2.986   3.363  17.006  0.00  0.00    +0.000 C 
ATOM      4  C   UNL     1       2.852   2.060  17.832  0.00  0.00    +0.000 C 
ATOM      5  N   UNL     1       2.950   2.238  19.305  0.00  0.00    +0.000 NA
ATOM      6  C   UNL     1       4.248   2.912  19.558  0.00  0.00    +0.000 C 
ATOM      7  C   UNL     1       4.404   4.285  18.862  0.00  0.00    +0.000 C 
BRANCH   2  11
ATOM      8  C   UNL     1       7.242   5.112  14.697  0.00  0.00    +0.000 A 
ATOM      9  C   UNL     1       6.116   4.404  14.279  0.00  0.00    +0.000 A 
ATOM     10  C   UNL     1       5.091   4.106  15.182  0.00  0.00    +0.000 A 
ATOM     11  C   UNL     1       5.167   4.484  16.531  0.00  0.00    +0.000 A 
ATOM     12  C   UNL     1       6.314   5.179  16.931  0.00  0.00    +0.000 A 
ATOM     13  C   UNL     1       7.339   5.490  16.033  0.00  0.00    +0.000 A 
BRANCH   8  15
ATOM     14  C   UNL     1       7.730   5.224  12.396  0.00  0.00    +0.000 C 
ATOM     15  O   UNL     1       8.185   5.343  13.740  0.00  0.00    +0.000 OA
ENDBRANCH   8  15
ENDBRANCH   2  11
ENDBRANCH   1   5
BRANCH   1  16
ATOM     16  C   UNL     1       1.766   3.347  21.320  0.00  0.00    +0.000 C 
BRANCH  16  17
ATOM     17  O   UNL     1       2.759   2.592  22.034  0.00  0.00    +0.000 OA
ATOM     18  H   UNL     1       2.365   2.259  22.857  0.00  0.00    +0.000 HD
ENDBRANCH  16  17
BRANCH  16  19
ATOM     19  C   UNL     1       2.061   4.849  21.488  0.00  0.00    +0.000 C 
BRANCH  19  20
ATOM     20  O   UNL     1       2.322   5.425  20.207  0.00  0.00    +0.000 OA
BRANCH  20  21
ATOM     21  C   UNL     1       1.930   6.723  20.033  0.00  0.00    +0.000 A 
ATOM     22  C   UNL     1       2.264   7.286  18.810  0.00  0.00    +0.000 A 
ATOM     23  C   UNL     1       1.898   8.601  18.516  0.00  0.00    +0.000 A 
ATOM     24  C   UNL     1       1.187   9.401  19.438  0.00  0.00    +0.000 A 
ATOM     25  C   UNL     1       0.879   8.840  20.695  0.00  0.00    +0.000 A 
ATOM     26  C   UNL     1       0.151   9.535  21.813  0.00  0.00    +0.000 C 
ATOM     27  C   UNL     1       1.246   7.502  20.964  0.00  0.00    +0.000 A 
BRANCH  24  28
ATOM     28  C   UNL     1       0.786  10.793  18.961  0.00  0.00    +0.000 C 
ATOM     29  C   UNL     1      -0.726  10.942  18.782  0.00  0.00    +0.000 C 
ATOM     30  C   UNL     1       1.396  11.933  19.782  0.00  0.00    +0.000 C 
ENDBRANCH  24  28
ENDBRANCH  20  21
ENDBRANCH  19  20
ENDBRANCH  16  19
ENDBRANCH   1  16
TORSDOF 9
ENDMDL
MODEL 4
REMARK VINA RESULT:      -7.0      3.751      6.849
REMARK  Name = 
REMARK  13 active torsions:
REMARK  status: ('A' for Active; 'I' for Inactive)
REMARK    1  A    between atoms: C_1  and  O_2
REMARK    2  A    between atoms: O_2  and  C_3
REMARK    3  A    between atoms: C_6  and  N_7
REMARK    4  A    between atoms: N_10  and  C_11
REMARK    5  A    between atoms: C_11  and  C_12
REMARK    6  A    between atoms: C_12  and  O_13
REMARK    7  A    between atoms: C_12  and  C_14
REMARK    8  A    between atoms: C_14  and  O_15
REMARK    9  A    between atoms: O_15  and  C_16
REMARK   10  A    between atoms: C_19  and  C_20
REMARK   11  A    between atoms: C_20  and  C_21
REMARK   12  A    between atoms: C_20  and  C_22
REMARK   13  A    between atoms: C_23  and  C_24
REMARK                            x       y       z     vdW  Elec       q    Type
REMARK                         _______ _______ _______ _____ _____    ______ ____
ROOT
ATOM      1  C   UNL     1       1.145  11.340  19.715  0.00  0.00    +0.000 C 
ENDROOT
BRANCH   1   5
ATOM      2  N   UNL     1       2.336   8.050  19.038  0.00  0.00    +0.000 N 
ATOM      3  C   UNL     1       2.140   9.028  17.955  0.00  0.00    +0.000 C 
ATOM      4  C   UNL     1       0.730   9.669  17.992  0.00  0.00    +0.000 C 
ATOM      5  N   UNL     1       0.309  10.182  19.322  0.00  0.00    +0.000 NA
ATOM      6  C   UNL     1       0.414   9.038  20.263  0.00  0.00    +0.000 C 
ATOM      7  C   UNL     1       1.829   8.424  20.372  0.00  0.00    +0.000 C 
BRANCH   2  11
ATOM      8  C   UNL     1       3.265   4.013  18.229  0.00  0.00    +0.000 A 
ATOM      9  C   UNL     1       3.768   5.036  17.426  0.00  0.00    +0.000 A 
ATOM     10  C   UNL     1       3.467   6.372  17.710  0.00  0.00    +0.000 A 
ATOM     11  C   UNL     1       2.639   6.726  18.786  0.00  0.00    +0.000 A 
ATOM     12  C   UNL     1       2.131   5.682  19.567  0.00  0.00    +0.000 A 
ATOM     13  C   UNL     1       2.435   4.344  19.297  0.00  0.00    +0.000 A 
BRANCH   8  15
ATOM     14  C   UNL     1       3.011   1.706  18.625  0.00  0.00    +0.000 C 
ATOM     15  O   UNL     1       3.611   2.747  17.860  0.00  0.00    +0.000 OA
ENDBRANCH   8  15
ENDBRANCH   2  11
ENDBRANCH   1   5
BRANCH   1  16
ATOM     16  C   UNL     1       0.583  12.279  20.812  0.00  0.00    +0.000 C 
BRANCH  16  17
ATOM     17  O   UNL     1       1.643  12.986  21.477  0.00  0.00    +0.000 OA
ATOM     18  H   UNL     1       2.329  13.205  20.825  0.00  0.00    +0.000 HD
ENDBRANCH  16  17
BRANCH  16  19
ATOM     19  C   UNL     1      -0.365  13.298  20.154  0.00  0.00    +0.000 C 
BRANCH  19  20
ATOM     20  O   UNL     1      -1.627  13.270  20.823  0.00  0.00    +0.000 OA
BRANCH  20  21
ATOM     21  C   UNL     1      -2.671  12.726  20.127  0.00  0.00    +0.000 A 
ATOM     22  C   UNL     1      -3.933  13.049  20.602  0.00  0.00    +0.000 A 
ATOM     23  C   UNL     1      -5.074  12.564  19.957  0.00  0.00    +0.000 A 
ATOM     24  C   UNL     1      -4.990  11.736  18.817  0.00  0.00    +0.000 A 
ATOM     25  C   UNL     1      -3.705  11.378  18.357  0.00  0.00    +0.000 A 
ATOM     26  C   UNL     1      -3.410  10.492  17.177  0.00  0.00    +0.000 C 
ATOM     27  C   UNL     1      -2.566  11.894  19.015  0.00  0.00    +0.000 A 
BRANCH  24  28
ATOM     28  C   UNL     1      -6.312  11.337  18.169  0.00  0.00    +0.000 C 
ATOM     29  C   UNL     1      -6.965  10.136  18.855  0.00  0.00    +0.000 C 
ATOM     30  C   UNL     1      -7.285  12.502  17.969  0.00  0.00    +0.000 C 
ENDBRANCH  24  28
ENDBRANCH  20  21
ENDBRANCH  19  20
ENDBRANCH  16  19
ENDBRANCH   1  16
TORSDOF 9
ENDMDL
MODEL 5
REMARK VINA RESULT:      -6.9      4.526     10.755
REMARK  Name = 
REMARK  13 active torsions:
REMARK  status: ('A' for Active; 'I' for Inactive)
REMARK    1  A    between atoms: C_1  and  O_2
REMARK    2  A    between atoms: O_2  and  C_3
REMARK    3  A    between atoms: C_6  and  N_7
REMARK    4  A    between atoms: N_10  and  C_11
REMARK    5  A    between atoms: C_11  and  C_12
REMARK    6  A    between atoms: C_12  and  O_13
REMARK    7  A    between atoms: C_12  and  C_14
REMARK    8  A    between atoms: C_14  and  O_15
REMARK    9  A    between atoms: O_15  and  C_16
REMARK   10  A    between atoms: C_19  and  C_20
REMARK   11  A    between atoms: C_20  and  C_21
REMARK   12  A    between atoms: C_20  and  C_22
REMARK   13  A    between atoms: C_23  and  C_24
REMARK                            x       y       z     vdW  Elec       q    Type
REMARK                         _______ _______ _______ _____ _____    ______ ____
ROOT
ATOM      1  C   UNL     1       0.594  10.150  19.087  0.00  0.00    +0.000 C 
ENDROOT
BRANCH   1   5
ATOM      2  N   UNL     1      -1.236  12.062  21.473  0.00  0.00    +0.000 N 
ATOM      3  C   UNL     1      -0.948  12.593  20.131  0.00  0.00    +0.000 C 
ATOM      4  C   UNL     1       0.555  12.488  19.770  0.00  0.00    +0.000 C 
ATOM      5  N   UNL     1       1.167  11.155  20.012  0.00  0.00    +0.000 NA
ATOM      6  C   UNL     1       0.927  10.840  21.443  0.00  0.00    +0.000 C 
ATOM      7  C   UNL     1      -0.566  10.803  21.850  0.00  0.00    +0.000 C 
BRANCH   2  11
ATOM      8  C   UNL     1      -2.916  14.450  24.522  0.00  0.00    +0.000 A 
ATOM      9  C   UNL     1      -1.642  14.720  24.025  0.00  0.00    +0.000 A 
ATOM     10  C   UNL     1      -1.099  13.933  23.004  0.00  0.00    +0.000 A 
ATOM     11  C   UNL     1      -1.798  12.842  22.466  0.00  0.00    +0.000 A 
ATOM     12  C   UNL     1      -3.068  12.580  22.993  0.00  0.00    +0.000 A 
ATOM     13  C   UNL     1      -3.623  13.368  24.006  0.00  0.00    +0.000 A 
BRANCH   8  15
ATOM     14  C   UNL     1      -3.904  16.510  25.091  0.00  0.00    +0.000 C 
ATOM     15  O   UNL     1      -3.348  15.271  25.520  0.00  0.00    +0.000 OA
ENDBRANCH   8  15
ENDBRANCH   2  11
ENDBRANCH   1   5
BRANCH   1  16
ATOM     16  C   UNL     1       1.299   9.963  17.720  0.00  0.00    +0.000 C 
BRANCH  16  17
ATOM     17  O   UNL     1       2.203  11.047  17.453  0.00  0.00    +0.000 OA
ATOM     18  H   UNL     1       1.703  11.880  17.471  0.00  0.00    +0.000 HD
ENDBRANCH  16  17
BRANCH  16  19
ATOM     19  C   UNL     1       2.093   8.643  17.749  0.00  0.00    +0.000 C 
BRANCH  19  20
ATOM     20  O   UNL     1       2.316   8.257  19.107  0.00  0.00    +0.000 OA
BRANCH  20  21
ATOM     21  C   UNL     1       2.439   6.916  19.344  0.00  0.00    +0.000 A 
ATOM     22  C   UNL     1       1.607   6.409  20.331  0.00  0.00    +0.000 A 
ATOM     23  C   UNL     1       1.634   5.047  20.644  0.00  0.00    +0.000 A 
ATOM     24  C   UNL     1       2.499   4.148  19.983  0.00  0.00    +0.000 A 
ATOM     25  C   UNL     1       3.371   4.672  19.005  0.00  0.00    +0.000 A 
ATOM     26  C   UNL     1       4.376   3.882  18.211  0.00  0.00    +0.000 C 
ATOM     27  C   UNL     1       3.314   6.049  18.694  0.00  0.00    +0.000 A 
BRANCH  24  28
ATOM     28  C   UNL     1       2.375   2.678  20.371  0.00  0.00    +0.000 C 
ATOM     29  C   UNL     1       1.786   2.486  21.770  0.00  0.00    +0.000 C 
ATOM     30  C   UNL     1       1.683   1.810  19.317  0.00  0.00    +0.000 C 
ENDBRANCH  24  28
ENDBRANCH  20  21
ENDBRANCH  19  20
ENDBRANCH  16  19
ENDBRANCH   1  16
TORSDOF 9
ENDMDL
MODEL 6
REMARK VINA RESULT:      -6.9      4.621     11.139
REMARK  Name = 
REMARK  13 active torsions:
REMARK  status: ('A' for Active; 'I' for Inactive)
REMARK    1  A    between atoms: C_1  and  O_2
REMARK    2  A    between atoms: O_2  and  C_3
REMARK    3  A    between atoms: C_6  and  N_7
REMARK    4  A    between atoms: N_10  and  C_11
REMARK    5  A    between atoms: C_11  and  C_12
REMARK    6  A    between atoms: C_12  and  O_13
REMARK    7  A    between atoms: C_12  and  C_14
REMARK    8  A    between atoms: C_14  and  O_15
REMARK    9  A    between atoms: O_15  and  C_16
REMARK   10  A    between atoms: C_19  and  C_20
REMARK   11  A    between atoms: C_20  and  C_21
REMARK   12  A    between atoms: C_20  and  C_22
REMARK   13  A    between atoms: C_23  and  C_24
REMARK                            x       y       z     vdW  Elec       q    Type
REMARK                         _______ _______ _______ _____ _____    ______ ____
ROOT
ATOM      1  C   UNL     1       0.174  10.446  18.963  0.00  0.00    +0.000 C 
ENDROOT
BRANCH   1   5
ATOM      2  N   UNL     1      -2.225  12.135  20.985  0.00  0.00    +0.000 N 
ATOM      3  C   UNL     1      -2.344  12.116  19.518  0.00  0.00    +0.000 C 
ATOM      4  C   UNL     1      -1.033  12.557  18.820  0.00  0.00    +0.000 C 
ATOM      5  N   UNL     1       0.198  11.885  19.312  0.00  0.00    +0.000 NA
ATOM      6  C   UNL     1       0.251  12.132  20.776  0.00  0.00    +0.000 C 
ATOM      7  C   UNL     1      -0.974  11.603  21.560  0.00  0.00    +0.000 C 
BRANCH   2  11
ATOM      8  C   UNL     1      -4.723  14.546  23.385  0.00  0.00    +0.000 A 
ATOM      9  C   UNL     1      -4.582  14.800  22.022  0.00  0.00    +0.000 A 
ATOM     10  C   UNL     1      -3.764  13.987  21.231  0.00  0.00    +0.000 A 
ATOM     11  C   UNL     1      -3.045  12.913  21.779  0.00  0.00    +0.000 A 
ATOM     12  C   UNL     1      -3.189  12.689  23.153  0.00  0.00    +0.000 A 
ATOM     13  C   UNL     1      -4.013  13.490  23.949  0.00  0.00    +0.000 A 
BRANCH   8  15
ATOM     14  C   UNL     1      -5.739  16.670  23.448  0.00  0.00    +0.000 C 
ATOM     15  O   UNL     1      -5.537  15.402  24.065  0.00  0.00    +0.000 OA
ENDBRANCH   8  15
ENDBRANCH   2  11
ENDBRANCH   1   5
BRANCH   1  16
ATOM     16  C   UNL     1       1.304   9.558  19.543  0.00  0.00    +0.000 C 
BRANCH  16  17
ATOM     17  O   UNL     1       0.818   8.751  20.627  0.00  0.00    +0.000 OA
ATOM     18  H   UNL     1       1.494   8.091  20.852  0.00  0.00    +0.000 HD
ENDBRANCH  16  17
BRANCH  16  19
ATOM     19  C   UNL     1       1.831   8.636  18.428  0.00  0.00    +0.000 C 
BRANCH  19  20
ATOM     20  O   UNL     1       1.988   7.313  18.944  0.00  0.00    +0.000 OA
BRANCH  20  21
ATOM     21  C   UNL     1       2.807   6.478  18.236  0.00  0.00    +0.000 A 
ATOM     22  C   UNL     1       3.843   7.100  17.555  0.00  0.00    +0.000 A 
ATOM     23  C   UNL     1       4.754   6.343  16.814  0.00  0.00    +0.000 A 
ATOM     24  C   UNL     1       4.657   4.937  16.726  0.00  0.00    +0.000 A 
ATOM     25  C   UNL     1       3.581   4.309  17.389  0.00  0.00    +0.000 A 
ATOM     26  C   UNL     1       3.295   2.832  17.396  0.00  0.00    +0.000 C 
ATOM     27  C   UNL     1       2.682   5.094  18.146  0.00  0.00    +0.000 A 
BRANCH  24  28
ATOM     28  C   UNL     1       5.758   4.228  15.944  0.00  0.00    +0.000 C 
ATOM     29  C   UNL     1       5.569   4.338  14.430  0.00  0.00    +0.000 C 
ATOM     30  C   UNL     1       7.175   4.597  16.388  0.00  0.00    +0.000 C 
ENDBRANCH  24  28
ENDBRANCH  20  21
ENDBRANCH  19  20
ENDBRANCH  16  19
ENDBRANCH   1  16
TORSDOF 9
ENDMDL
MODEL 7
REMARK VINA RESULT:      -6.9      4.675     11.188
REMARK  Name = 
REMARK  13 active torsions:
REMARK  status: ('A' for Active; 'I' for Inactive)
REMARK    1  A    between atoms: C_1  and  O_2
REMARK    2  A    between atoms: O_2  and  C_3
REMARK    3  A    between atoms: C_6  and  N_7
REMARK    4  A    between atoms: N_10  and  C_11
REMARK    5  A    between atoms: C_11  and  C_12
REMARK    6  A    between atoms: C_12  and  O_13
REMARK    7  A    between atoms: C_12  and  C_14
REMARK    8  A    between atoms: C_14  and  O_15
REMARK    9  A    between atoms: O_15  and  C_16
REMARK   10  A    between atoms: C_19  and  C_20
REMARK   11  A    between atoms: C_20  and  C_21
REMARK   12  A    between atoms: C_20  and  C_22
REMARK   13  A    between atoms: C_23  and  C_24
REMARK                            x       y       z     vdW  Elec       q    Type
REMARK                         _______ _______ _______ _____ _____    ______ ____
ROOT
ATOM      1  C   UNL     1       0.534  10.249  19.445  0.00  0.00    +0.000 C 
ENDROOT
BRANCH   1   5
ATOM      2  N   UNL     1      -1.714  12.267  21.336  0.00  0.00    +0.000 N 
ATOM      3  C   UNL     1      -1.986  11.937  19.927  0.00  0.00    +0.000 C 
ATOM      4  C   UNL     1      -0.780  12.253  19.009  0.00  0.00    +0.000 C 
ATOM      5  N   UNL     1       0.527  11.729  19.486  0.00  0.00    +0.000 NA
ATOM      6  C   UNL     1       0.723  12.279  20.851  0.00  0.00    +0.000 C 
ATOM      7  C   UNL     1      -0.385  11.898  21.862  0.00  0.00    +0.000 C 
BRANCH   2  11
ATOM      8  C   UNL     1      -4.054  15.019  23.519  0.00  0.00    +0.000 A 
ATOM      9  C   UNL     1      -3.085  14.244  24.155  0.00  0.00    +0.000 A 
ATOM     10  C   UNL     1      -2.303  13.345  23.421  0.00  0.00    +0.000 A 
ATOM     11  C   UNL     1      -2.481  13.175  22.040  0.00  0.00    +0.000 A 
ATOM     12  C   UNL     1      -3.471  13.951  21.427  0.00  0.00    +0.000 A 
ATOM     13  C   UNL     1      -4.250  14.859  22.151  0.00  0.00    +0.000 A 
BRANCH   8  15
ATOM     14  C   UNL     1      -6.117  16.076  23.935  0.00  0.00    +0.000 C 
ATOM     15  O   UNL     1      -4.765  15.856  24.326  0.00  0.00    +0.000 OA
ENDBRANCH   8  15
ENDBRANCH   2  11
ENDBRANCH   1   5
BRANCH   1  16
ATOM     16  C   UNL     1       1.201   9.577  18.219  0.00  0.00    +0.000 C 
BRANCH  16  17
ATOM     17  O   UNL     1       1.930  10.538  17.438  0.00  0.00    +0.000 OA
ATOM     18  H   UNL     1       1.295  11.084  16.945  0.00  0.00    +0.000 HD
ENDBRANCH  16  17
BRANCH  16  19
ATOM     19  C   UNL     1       2.175   8.493  18.716  0.00  0.00    +0.000 C 
BRANCH  19  20
ATOM     20  O   UNL     1       1.843   7.244  18.106  0.00  0.00    +0.000 OA
BRANCH  20  21
ATOM     21  C   UNL     1       2.893   6.442  17.754  0.00  0.00    +0.000 A 
ATOM     22  C   UNL     1       4.017   7.107  17.286  0.00  0.00    +0.000 A 
ATOM     23  C   UNL     1       5.157   6.389  16.915  0.00  0.00    +0.000 A 
ATOM     24  C   UNL     1       5.209   4.980  16.996  0.00  0.00    +0.000 A 
ATOM     25  C   UNL     1       4.052   4.303  17.438  0.00  0.00    +0.000 A 
ATOM     26  C   UNL     1       3.904   2.812  17.571  0.00  0.00    +0.000 C 
ATOM     27  C   UNL     1       2.917   5.052  17.823  0.00  0.00    +0.000 A 
BRANCH  24  28
ATOM     28  C   UNL     1       6.538   4.328  16.629  0.00  0.00    +0.000 C 
ATOM     29  C   UNL     1       6.957   4.617  15.186  0.00  0.00    +0.000 C 
ATOM     30  C   UNL     1       7.662   4.594  17.633  0.00  0.00    +0.000 C 
ENDBRANCH  24  28
ENDBRANCH  20  21
ENDBRANCH  19  20
ENDBRANCH  16  19
ENDBRANCH   1  16
TORSDOF 9
ENDMDL
MODEL 8
REMARK VINA RESULT:      -6.9      2.560      7.674
REMARK  Name = 
REMARK  13 active torsions:
REMARK  status: ('A' for Active; 'I' for Inactive)
REMARK    1  A    between atoms: C_1  and  O_2
REMARK    2  A    between atoms: O_2  and  C_3
REMARK    3  A    between atoms: C_6  and  N_7
REMARK    4  A    between atoms: N_10  and  C_11
REMARK    5  A    between atoms: C_11  and  C_12
REMARK    6  A    between atoms: C_12  and  O_13
REMARK    7  A    between atoms: C_12  and  C_14
REMARK    8  A    between atoms: C_14  and  O_15
REMARK    9  A    between atoms: O_15  and  C_16
REMARK   10  A    between atoms: C_19  and  C_20
REMARK   11  A    between atoms: C_20  and  C_21
REMARK   12  A    between atoms: C_20  and  C_22
REMARK   13  A    between atoms: C_23  and  C_24
REMARK                            x       y       z     vdW  Elec       q    Type
REMARK                         _______ _______ _______ _____ _____    ______ ____
ROOT
ATOM      1  C   UNL     1       1.336   5.587  19.326  0.00  0.00    +0.000 C 
ENDROOT
BRANCH   1   5
ATOM      2  N   UNL     1       1.301   9.140  19.047  0.00  0.00    +0.000 N 
ATOM      3  C   UNL     1       1.922   8.300  18.010  0.00  0.00    +0.000 C 
ATOM      4  C   UNL     1       2.929   7.284  18.605  0.00  0.00    +0.000 C 
ATOM      5  N   UNL     1       2.419   6.499  19.761  0.00  0.00    +0.000 NA
ATOM      6  C   UNL     1       1.980   7.490  20.776  0.00  0.00    +0.000 C 
ATOM      7  C   UNL     1       0.880   8.463  20.289  0.00  0.00    +0.000 C 
BRANCH   2  11
ATOM      8  C   UNL     1       1.691  13.343  19.022  0.00  0.00    +0.000 A 
ATOM      9  C   UNL     1       2.355  12.559  18.080  0.00  0.00    +0.000 A 
ATOM     10  C   UNL     1       2.209  11.168  18.086  0.00  0.00    +0.000 A 
ATOM     11  C   UNL     1       1.416  10.517  19.044  0.00  0.00    +0.000 A 
ATOM     12  C   UNL     1       0.773  11.323  19.990  0.00  0.00    +0.000 A 
ATOM     13  C   UNL     1       0.906  12.715  19.984  0.00  0.00    +0.000 A 
BRANCH   8  15
ATOM     14  C   UNL     1       0.940  15.503  19.584  0.00  0.00    +0.000 C 
ATOM     15  O   UNL     1       1.908  14.686  18.933  0.00  0.00    +0.000 OA
ENDBRANCH   8  15
ENDBRANCH   2  11
ENDBRANCH   1   5
BRANCH   1  16
ATOM     16  C   UNL     1       1.514   4.079  19.633  0.00  0.00    +0.000 C 
BRANCH  16  17
ATOM     17  O   UNL     1       0.419   3.580  20.417  0.00  0.00    +0.000 OA
ATOM     18  H   UNL     1       0.637   2.685  20.725  0.00  0.00    +0.000 HD
ENDBRANCH  16  17
BRANCH  16  19
ATOM     19  C   UNL     1       1.573   3.306  18.302  0.00  0.00    +0.000 C 
BRANCH  19  20
ATOM     20  O   UNL     1       2.861   2.703  18.163  0.00  0.00    +0.000 OA
BRANCH  20  21
ATOM     21  C   UNL     1       3.913   3.555  17.975  0.00  0.00    +0.000 A 
ATOM     22  C   UNL     1       4.662   3.833  19.110  0.00  0.00    +0.000 A 
ATOM     23  C   UNL     1       5.773   4.676  19.032  0.00  0.00    +0.000 A 
ATOM     24  C   UNL     1       6.170   5.275  17.816  0.00  0.00    +0.000 A 
ATOM     25  C   UNL     1       5.386   5.021  16.671  0.00  0.00    +0.000 A 
ATOM     26  C   UNL     1       5.633   5.580  15.296  0.00  0.00    +0.000 C 
ATOM     27  C   UNL     1       4.277   4.151  16.770  0.00  0.00    +0.000 A 
BRANCH  24  28
ATOM     28  C   UNL     1       7.442   6.115  17.857  0.00  0.00    +0.000 C 
ATOM     29  C   UNL     1       7.210   7.559  17.407  0.00  0.00    +0.000 C 
ATOM     30  C   UNL     1       8.205   6.028  19.181  0.00  0.00    +0.000 C 
ENDBRANCH  24  28
ENDBRANCH  20  21
ENDBRANCH  19  20
ENDBRANCH  16  19
ENDBRANCH   1  16
TORSDOF 9
ENDMDL
MODEL 9
REMARK VINA RESULT:      -6.9      4.775     11.092
REMARK  Name = 
REMARK  13 active torsions:
REMARK  status: ('A' for Active; 'I' for Inactive)
REMARK    1  A    between atoms: C_1  and  O_2
REMARK    2  A    between atoms: O_2  and  C_3
REMARK    3  A    between atoms: C_6  and  N_7
REMARK    4  A    between atoms: N_10  and  C_11
REMARK    5  A    between atoms: C_11  and  C_12
REMARK    6  A    between atoms: C_12  and  O_13
REMARK    7  A    between atoms: C_12  and  C_14
REMARK    8  A    between atoms: C_14  and  O_15
REMARK    9  A    between atoms: O_15  and  C_16
REMARK   10  A    between atoms: C_19  and  C_20
REMARK   11  A    between atoms: C_20  and  C_21
REMARK   12  A    between atoms: C_20  and  C_22
REMARK   13  A    between atoms: C_23  and  C_24
REMARK                            x       y       z     vdW  Elec       q    Type
REMARK                         _______ _______ _______ _____ _____    ______ ____
ROOT
ATOM      1  C   UNL     1       0.864  11.184  19.785  0.00  0.00    +0.000 C 
ENDROOT
BRANCH   1   5
ATOM      2  N   UNL     1      -2.168  11.950  21.494  0.00  0.00    +0.000 N 
ATOM      3  C   UNL     1      -2.052  12.117  20.036  0.00  0.00    +0.000 C 
ATOM      4  C   UNL     1      -0.808  12.951  19.640  0.00  0.00    +0.000 C 
ATOM      5  N   UNL     1       0.464  12.522  20.279  0.00  0.00    +0.000 NA
ATOM      6  C   UNL     1       0.228  12.559  21.745  0.00  0.00    +0.000 C 
ATOM      7  C   UNL     1      -0.925  11.650  22.232  0.00  0.00    +0.000 C 
BRANCH   2  11
ATOM      8  C   UNL     1      -5.548  13.324  23.617  0.00  0.00    +0.000 A 
ATOM      9  C   UNL     1      -5.523  13.346  22.223  0.00  0.00    +0.000 A 
ATOM     10  C   UNL     1      -4.405  12.875  21.527  0.00  0.00    +0.000 A 
ATOM     11  C   UNL     1      -3.272  12.391  22.199  0.00  0.00    +0.000 A 
ATOM     12  C   UNL     1      -3.313  12.394  23.598  0.00  0.00    +0.000 A 
ATOM     13  C   UNL     1      -4.431  12.853  24.302  0.00  0.00    +0.000 A 
BRANCH   8  15
ATOM     14  C   UNL     1      -7.417  14.740  23.405  0.00  0.00    +0.000 C 
ATOM     15  O   UNL     1      -6.681  13.812  24.196  0.00  0.00    +0.000 OA
ENDBRANCH   8  15
ENDBRANCH   2  11
ENDBRANCH   1   5
BRANCH   1  16
ATOM     16  C   UNL     1       1.136  11.043  18.266  0.00  0.00    +0.000 C 
BRANCH  16  17
ATOM     17  O   UNL     1       2.402  11.623  17.913  0.00  0.00    +0.000 OA
ATOM     18  H   UNL     1       2.863  11.019  17.308  0.00  0.00    +0.000 HD
ENDBRANCH  16  17
BRANCH  16  19
ATOM     19  C   UNL     1       1.150   9.546  17.903  0.00  0.00    +0.000 C 
BRANCH  19  20
ATOM     20  O   UNL     1       2.373   8.963  18.356  0.00  0.00    +0.000 OA
BRANCH  20  21
ATOM     21  C   UNL     1       2.304   7.670  18.795  0.00  0.00    +0.000 A 
ATOM     22  C   UNL     1       1.916   7.512  20.117  0.00  0.00    +0.000 A 
ATOM     23  C   UNL     1       1.792   6.234  20.668  0.00  0.00    +0.000 A 
ATOM     24  C   UNL     1       2.057   5.070  19.915  0.00  0.00    +0.000 A 
ATOM     25  C   UNL     1       2.488   5.232  18.581  0.00  0.00    +0.000 A 
ATOM     26  C   UNL     1       2.838   4.121  17.629  0.00  0.00    +0.000 C 
ATOM     27  C   UNL     1       2.589   6.535  18.041  0.00  0.00    +0.000 A 
BRANCH  24  28
ATOM     28  C   UNL     1       1.813   3.738  20.616  0.00  0.00    +0.000 C 
ATOM     29  C   UNL     1       0.649   2.955  20.005  0.00  0.00    +0.000 C 
ATOM     30  C   UNL     1       3.072   2.882  20.786  0.00  0.00    +0.000 C 
ENDBRANCH  24  28
ENDBRANCH  20  21
ENDBRANCH  19  20
ENDBRANCH  16  19
ENDBRANCH   1  16
TORSDOF 9
ENDMDL
