MODEL 1
REMARK VINA RESULT:      -7.6      0.000      0.000
REMARK  Name = 
REMARK  6 active torsions:
REMARK  status: ('A' for Active; 'I' for Inactive)
REMARK    1  A    between atoms: C_1  and  O_2
REMARK    2  A    between atoms: O_2  and  C_3
REMARK    3  A    between atoms: C_15  and  S_16
REMARK    4  A    between atoms: S_16  and  C_17
REMARK    5  A    between atoms: C_20  and  N_21
REMARK    6  A    between atoms: C_25  and  C_26
REMARK                            x       y       z     vdW  Elec       q    Type
REMARK                         _______ _______ _______ _____ _____    ______ ____
ROOT
ATOM      1  C   UNL     1      -1.565  11.604  22.806  0.00  0.00    +0.000 A 
ATOM      2  C   UNL     1      -1.123  10.575  23.619  0.00  0.00    +0.000 A 
ATOM      3  C   UNL     1      -0.315   9.569  23.084  0.00  0.00    +0.000 A 
ATOM      4  C   UNL     1       0.075   9.567  21.755  0.00  0.00    +0.000 A 
ATOM      5  N   UNL     1       0.845   8.552  21.352  0.00  0.00    +0.000 NA
ATOM      6  C   UNL     1       1.323   8.531  20.106  0.00  0.00    +0.000 A 
ATOM      7  C   UNL     1       2.116   7.449  19.761  0.00  0.00    +0.000 A 
ATOM      8  C   UNL     1       2.698   7.350  18.503  0.00  0.00    +0.000 A 
ATOM      9 CL   UNL     1       3.644   5.971  18.101  0.00  0.00    +0.000 Cl
ATOM     10  C   UNL     1       2.515   8.361  17.574  0.00  0.00    +0.000 A 
ATOM     11  C   UNL     1       1.698   9.447  17.898  0.00  0.00    +0.000 A 
ATOM     12  C   UNL     1       1.051   9.538  19.162  0.00  0.00    +0.000 A 
ATOM     13  C   UNL     1       0.138  10.561  19.568  0.00  0.00    +0.000 A 
ATOM     14  C   UNL     1      -0.339  10.608  20.910  0.00  0.00    +0.000 A 
ATOM     15  C   UNL     1      -1.176  11.617  21.462  0.00  0.00    +0.000 A 
ENDROOT
BRANCH   1  17
ATOM     16  C   UNL     1      -3.524  12.306  23.945  0.00  0.00    +0.000 C 
ATOM     17  O   UNL     1      -2.367  12.642  23.187  0.00  0.00    +0.000 OA
ENDBRANCH   1  17
BRANCH  13  18
ATOM     18  S   UNL     1      -0.382  11.834  18.388  0.00  0.00    +0.000 S 
BRANCH  18  19
ATOM     19  C   UNL     1      -2.172  11.645  18.259  0.00  0.00    +0.000 A 
ATOM     20  C   UNL     1      -3.037  12.429  19.042  0.00  0.00    +0.000 A 
ATOM     21  C   UNL     1      -4.409  12.156  19.108  0.00  0.00    +0.000 A 
ATOM     22  C   UNL     1      -4.935  11.084  18.386  0.00  0.00    +0.000 A 
ATOM     23  C   UNL     1      -4.108  10.328  17.550  0.00  0.00    +0.000 A 
ATOM     24  C   UNL     1      -2.727  10.604  17.471  0.00  0.00    +0.000 A 
ATOM     25  C   UNL     1      -1.889   9.733  16.569  0.00  0.00    +0.000 C 
BRANCH  22  26
ATOM     26  N   UNL     1      -6.349  10.716  18.546  0.00  0.00    +0.000 N 
ATOM     27  O   UNL     1      -6.606   9.655  19.131  0.00  0.00    +0.000 OA
ATOM     28  O   UNL     1      -7.200  11.480  18.067  0.00  0.00    +0.000 OA
ENDBRANCH  22  26
ENDBRANCH  18  19
ENDBRANCH  13  18
TORSDOF 4
ENDMDL
MODEL 2
REMARK VINA RESULT:      -7.3      3.215      6.427
REMARK  Name = 
REMARK  6 active torsions:
REMARK  status: ('A' for Active; 'I' for Inactive)
REMARK    1  A    between atoms: C_1  and  O_2
REMARK    2  A    between atoms: O_2  and  C_3
REMARK    3  A    between atoms: C_15  and  S_16
REMARK    4  A    between atoms: S_16  and  C_17
REMARK    5  A    between atoms: C_20  and  N_21
REMARK    6  A    between atoms: C_25  and  C_26
REMARK                            x       y       z     vdW  Elec       q    Type
REMARK                         _______ _______ _______ _____ _____    ______ ____
ROOT
ATOM      1  C   UNL     1      -6.978  12.934  22.358  0.00  0.00    +0.000 A 
ATOM      2  C   UNL     1      -7.857  12.148  21.633  0.00  0.00    +0.000 A 
ATOM      3  C   UNL     1      -7.448  11.593  20.418  0.00  0.00    +0.000 A 
ATOM      4  C   UNL     1      -6.175  11.792  19.909  0.00  0.00    +0.000 A 
ATOM      5  N   UNL     1      -5.895  11.217  18.737  0.00  0.00    +0.000 NA
ATOM      6  C   UNL     1      -4.665  11.301  18.228  0.00  0.00    +0.000 A 
ATOM      7  C   UNL     1      -4.448  10.677  17.011  0.00  0.00    +0.000 A 
ATOM      8  C   UNL     1      -3.193  10.668  16.414  0.00  0.00    +0.000 A 
ATOM      9 CL   UNL     1      -2.976   9.916  14.883  0.00  0.00    +0.000 Cl
ATOM     10  C   UNL     1      -2.119  11.266  17.053  0.00  0.00    +0.000 A 
ATOM     11  C   UNL     1      -2.326  11.921  18.269  0.00  0.00    +0.000 A 
ATOM     12  C   UNL     1      -3.615  11.986  18.868  0.00  0.00    +0.000 A 
ATOM     13  C   UNL     1      -3.952  12.691  20.066  0.00  0.00    +0.000 A 
ATOM     14  C   UNL     1      -5.254  12.567  20.631  0.00  0.00    +0.000 A 
ATOM     15  C   UNL     1      -5.688  13.141  21.858  0.00  0.00    +0.000 A 
ENDROOT
BRANCH   1  17
ATOM     16  C   UNL     1      -6.537  14.755  23.813  0.00  0.00    +0.000 C 
ATOM     17  O   UNL     1      -7.244  13.549  23.548  0.00  0.00    +0.000 OA
ENDBRANCH   1  17
BRANCH  13  18
ATOM     18  S   UNL     1      -2.708  13.710  20.899  0.00  0.00    +0.000 S 
BRANCH  18  19
ATOM     19  C   UNL     1      -1.423  12.551  21.410  0.00  0.00    +0.000 A 
ATOM     20  C   UNL     1      -0.283  12.343  20.614  0.00  0.00    +0.000 A 
ATOM     21  C   UNL     1       0.617  11.306  20.887  0.00  0.00    +0.000 A 
ATOM     22  C   UNL     1       0.383  10.456  21.969  0.00  0.00    +0.000 A 
ATOM     23  C   UNL     1      -0.708  10.680  22.814  0.00  0.00    +0.000 A 
ATOM     24  C   UNL     1      -1.613  11.730  22.550  0.00  0.00    +0.000 A 
ATOM     25  C   UNL     1      -2.781  11.898  23.488  0.00  0.00    +0.000 C 
BRANCH  22  26
ATOM     26  N   UNL     1       1.254   9.292  22.188  0.00  0.00    +0.000 N 
ATOM     27  O   UNL     1       1.070   8.294  21.478  0.00  0.00    +0.000 OA
ATOM     28  O   UNL     1       2.106   9.372  23.084  0.00  0.00    +0.000 OA
ENDBRANCH  22  26
ENDBRANCH  18  19
ENDBRANCH  13  18
TORSDOF 4
ENDMDL
MODEL 3
REMARK VINA RESULT:      -7.3      3.442      5.274
REMARK  Name = 
REMARK  6 active torsions:
REMARK  status: ('A' for Active; 'I' for Inactive)
REMARK    1  A    between atoms: C_1  and  O_2
REMARK    2  A    between atoms: O_2  and  C_3
REMARK    3  A    between atoms: C_15  and  S_16
REMARK    4  A    between atoms: S_16  and  C_17
REMARK    5  A    between atoms: C_20  and  N_21
REMARK    6  A    between atoms: C_25  and  C_26
REMARK                            x       y       z     vdW  Elec       q    Type
REMARK                         _______ _______ _______ _____ _____    ______ ____
ROOT
ATOM      1  C   UNL     1      -1.345  11.458  22.736  0.00  0.00    +0.000 A 
ATOM      2  C   UNL     1      -0.898  10.425  23.541  0.00  0.00    +0.000 A 
ATOM      3  C   UNL     1      -0.100   9.418  22.995  0.00  0.00    +0.000 A 
ATOM      4  C   UNL     1       0.276   9.418  21.662  0.00  0.00    +0.000 A 
ATOM      5  N   UNL     1       1.037   8.402  21.247  0.00  0.00    +0.000 NA
ATOM      6  C   UNL     1       1.502   8.382  19.997  0.00  0.00    +0.000 A 
ATOM      7  C   UNL     1       2.288   7.299  19.640  0.00  0.00    +0.000 A 
ATOM      8  C   UNL     1       2.856   7.201  18.376  0.00  0.00    +0.000 A 
ATOM      9 CL   UNL     1       3.793   5.820  17.960  0.00  0.00    +0.000 Cl
ATOM     10  C   UNL     1       2.668   8.216  17.452  0.00  0.00    +0.000 A 
ATOM     11  C   UNL     1       1.858   9.304  17.788  0.00  0.00    +0.000 A 
ATOM     12  C   UNL     1       1.225   9.393  19.059  0.00  0.00    +0.000 A 
ATOM     13  C   UNL     1       0.320  10.419  19.477  0.00  0.00    +0.000 A 
ATOM     14  C   UNL     1      -0.143  10.463  20.824  0.00  0.00    +0.000 A 
ATOM     15  C   UNL     1      -0.969  11.474  21.388  0.00  0.00    +0.000 A 
ENDROOT
BRANCH   1  17
ATOM     16  C   UNL     1      -1.495  13.754  23.316  0.00  0.00    +0.000 C 
ATOM     17  O   UNL     1      -2.139  12.498  23.128  0.00  0.00    +0.000 OA
ENDBRANCH   1  17
BRANCH  13  18
ATOM     18  S   UNL     1      -0.206  11.697  18.307  0.00  0.00    +0.000 S 
BRANCH  18  19
ATOM     19  C   UNL     1       0.996  13.029  18.500  0.00  0.00    +0.000 A 
ATOM     20  C   UNL     1       2.341  12.842  18.137  0.00  0.00    +0.000 A 
ATOM     21  C   UNL     1       3.323  13.784  18.469  0.00  0.00    +0.000 A 
ATOM     22  C   UNL     1       2.967  14.932  19.177  0.00  0.00    +0.000 A 
ATOM     23  C   UNL     1       1.627  15.173  19.495  0.00  0.00    +0.000 A 
ATOM     24  C   UNL     1       0.631  14.233  19.154  0.00  0.00    +0.000 A 
ATOM     25  C   UNL     1      -0.790  14.545  19.550  0.00  0.00    +0.000 C 
BRANCH  22  26
ATOM     26  N   UNL     1       4.008  15.863  19.635  0.00  0.00    +0.000 N 
ATOM     27  O   UNL     1       3.931  17.041  19.263  0.00  0.00    +0.000 OA
ATOM     28  O   UNL     1       4.912  15.409  20.351  0.00  0.00    +0.000 OA
ENDBRANCH  22  26
ENDBRANCH  18  19
ENDBRANCH  13  18
TORSDOF 4
ENDMDL
MODEL 4
REMARK VINA RESULT:      -7.2      4.331      7.548
REMARK  Name = 
REMARK  6 active torsions:
REMARK  status: ('A' for Active; 'I' for Inactive)
REMARK    1  A    between atoms: C_1  and  O_2
REMARK    2  A    between atoms: O_2  and  C_3
REMARK    3  A    between atoms: C_15  and  S_16
REMARK    4  A    between atoms: S_16  and  C_17
REMARK    5  A    between atoms: C_20  and  N_21
REMARK    6  A    between atoms: C_25  and  C_26
REMARK                            x       y       z     vdW  Elec       q    Type
REMARK                         _______ _______ _______ _____ _____    ______ ____
ROOT
ATOM      1  C   UNL     1       6.964   6.784  17.604  0.00  0.00    +0.000 A 
ATOM      2  C   UNL     1       7.626   5.748  18.241  0.00  0.00    +0.000 A 
ATOM      3  C   UNL     1       6.905   4.844  19.024  0.00  0.00    +0.000 A 
ATOM      4  C   UNL     1       5.532   4.937  19.181  0.00  0.00    +0.000 A 
ATOM      5  N   UNL     1       4.948   4.020  19.956  0.00  0.00    +0.000 NA
ATOM      6  C   UNL     1       3.620   4.002  20.085  0.00  0.00    +0.000 A 
ATOM      7  C   UNL     1       3.085   3.021  20.903  0.00  0.00    +0.000 A 
ATOM      8  C   UNL     1       1.713   2.887  21.073  0.00  0.00    +0.000 A 
ATOM      9 CL   UNL     1       1.091   1.680  22.128  0.00  0.00    +0.000 Cl
ATOM     10  C   UNL     1       0.847   3.728  20.393  0.00  0.00    +0.000 A 
ATOM     11  C   UNL     1       1.371   4.739  19.584  0.00  0.00    +0.000 A 
ATOM     12  C   UNL     1       2.774   4.924  19.441  0.00  0.00    +0.000 A 
ATOM     13  C   UNL     1       3.414   5.968  18.703  0.00  0.00    +0.000 A 
ATOM     14  C   UNL     1       4.829   5.962  18.530  0.00  0.00    +0.000 A 
ATOM     15  C   UNL     1       5.576   6.887  17.750  0.00  0.00    +0.000 A 
ENDROOT
BRANCH   1  17
ATOM     16  C   UNL     1       8.080   8.874  17.497  0.00  0.00    +0.000 C 
ATOM     17  O   UNL     1       7.538   7.744  16.822  0.00  0.00    +0.000 OA
ENDBRANCH   1  17
BRANCH  13  18
ATOM     18  S   UNL     1       2.425   7.280  17.943  0.00  0.00    +0.000 S 
BRANCH  18  19
ATOM     19  C   UNL     1       1.887   8.315  19.320  0.00  0.00    +0.000 A 
ATOM     20  C   UNL     1       1.791   7.789  20.621  0.00  0.00    +0.000 A 
ATOM     21  C   UNL     1       1.184   8.511  21.656  0.00  0.00    +0.000 A 
ATOM     22  C   UNL     1       0.658   9.777  21.397  0.00  0.00    +0.000 A 
ATOM     23  C   UNL     1       0.796  10.349  20.129  0.00  0.00    +0.000 A 
ATOM     24  C   UNL     1       1.416   9.632  19.085  0.00  0.00    +0.000 A 
ATOM     25  C   UNL     1       1.508  10.299  17.736  0.00  0.00    +0.000 C 
BRANCH  22  26
ATOM     26  N   UNL     1      -0.089  10.488  22.445  0.00  0.00    +0.000 N 
ATOM     27  O   UNL     1      -0.057  10.021  23.592  0.00  0.00    +0.000 OA
ATOM     28  O   UNL     1      -0.723  11.500  22.115  0.00  0.00    +0.000 OA
ENDBRANCH  22  26
ENDBRANCH  18  19
ENDBRANCH  13  18
TORSDOF 4
ENDMDL
MODEL 5
REMARK VINA RESULT:      -7.2      4.341      7.563
REMARK  Name = 
REMARK  6 active torsions:
REMARK  status: ('A' for Active; 'I' for Inactive)
REMARK    1  A    between atoms: C_1  and  O_2
REMARK    2  A    between atoms: O_2  and  C_3
REMARK    3  A    between atoms: C_15  and  S_16
REMARK    4  A    between atoms: S_16  and  C_17
REMARK    5  A    between atoms: C_20  and  N_21
REMARK    6  A    between atoms: C_25  and  C_26
REMARK                            x       y       z     vdW  Elec       q    Type
REMARK                         _______ _______ _______ _____ _____    ______ ____
ROOT
ATOM      1  C   UNL     1       7.261   7.682  17.671  0.00  0.00    +0.000 A 
ATOM      2  C   UNL     1       7.938   6.538  18.057  0.00  0.00    +0.000 A 
ATOM      3  C   UNL     1       7.219   5.385  18.379  0.00  0.00    +0.000 A 
ATOM      4  C   UNL     1       5.836   5.338  18.316  0.00  0.00    +0.000 A 
ATOM      5  N   UNL     1       5.254   4.183  18.652  0.00  0.00    +0.000 NA
ATOM      6  C   UNL     1       3.932   4.044  18.536  0.00  0.00    +0.000 A 
ATOM      7  C   UNL     1       3.399   2.818  18.899  0.00  0.00    +0.000 A 
ATOM      8  C   UNL     1       2.041   2.553  18.779  0.00  0.00    +0.000 A 
ATOM      9 CL   UNL     1       1.415   1.031  19.277  0.00  0.00    +0.000 Cl
ATOM     10  C   UNL     1       1.192   3.516  18.256  0.00  0.00    +0.000 A 
ATOM     11  C   UNL     1       1.709   4.766  17.908  0.00  0.00    +0.000 A 
ATOM     12  C   UNL     1       3.089   5.072  18.076  0.00  0.00    +0.000 A 
ATOM     13  C   UNL     1       3.706   6.337  17.826  0.00  0.00    +0.000 A 
ATOM     14  C   UNL     1       5.122   6.475  17.908  0.00  0.00    +0.000 A 
ATOM     15  C   UNL     1       5.864   7.648  17.598  0.00  0.00    +0.000 A 
ENDROOT
BRANCH   1  17
ATOM     16  C   UNL     1       8.684   9.467  18.316  0.00  0.00    +0.000 C 
ATOM     17  O   UNL     1       7.830   8.879  17.341  0.00  0.00    +0.000 OA
ENDBRANCH   1  17
BRANCH  13  18
ATOM     18  S   UNL     1       2.694   7.763  17.355  0.00  0.00    +0.000 S 
BRANCH  18  19
ATOM     19  C   UNL     1       2.079   8.433  18.914  0.00  0.00    +0.000 A 
ATOM     20  C   UNL     1       1.898   7.601  20.033  0.00  0.00    +0.000 A 
ATOM     21  C   UNL     1       1.233   8.054  21.178  0.00  0.00    +0.000 A 
ATOM     22  C   UNL     1       0.734   9.357  21.216  0.00  0.00    +0.000 A 
ATOM     23  C   UNL     1       0.956  10.225  20.143  0.00  0.00    +0.000 A 
ATOM     24  C   UNL     1       1.634   9.777  18.990  0.00  0.00    +0.000 A 
ATOM     25  C   UNL     1       1.816  10.758  17.859  0.00  0.00    +0.000 C 
BRANCH  22  26
ATOM     26  N   UNL     1      -0.071   9.800  22.363  0.00  0.00    +0.000 N 
ATOM     27  O   UNL     1       0.000  10.992  22.690  0.00  0.00    +0.000 OA
ATOM     28  O   UNL     1      -0.758   8.950  22.947  0.00  0.00    +0.000 OA
ENDBRANCH  22  26
ENDBRANCH  18  19
ENDBRANCH  13  18
TORSDOF 4
ENDMDL
MODEL 6
REMARK VINA RESULT:      -7.0      3.608      4.887
REMARK  Name = 
REMARK  6 active torsions:
REMARK  status: ('A' for Active; 'I' for Inactive)
REMARK    1  A    between atoms: C_1  and  O_2
REMARK    2  A    between atoms: O_2  and  C_3
REMARK    3  A    between atoms: C_15  and  S_16
REMARK    4  A    between atoms: S_16  and  C_17
REMARK    5  A    between atoms: C_20  and  N_21
REMARK    6  A    between atoms: C_25  and  C_26
REMARK                            x       y       z     vdW  Elec       q    Type
REMARK                         _______ _______ _______ _____ _____    ______ ____
ROOT
ATOM      1  C   UNL     1      -1.960  12.257  22.484  0.00  0.00    +0.000 A 
ATOM      2  C   UNL     1      -1.612  11.293  23.415  0.00  0.00    +0.000 A 
ATOM      3  C   UNL     1      -0.801  10.223  23.032  0.00  0.00    +0.000 A 
ATOM      4  C   UNL     1      -0.315  10.091  21.741  0.00  0.00    +0.000 A 
ATOM      5  N   UNL     1       0.447   9.025  21.487  0.00  0.00    +0.000 NA
ATOM      6  C   UNL     1       1.013   8.879  20.287  0.00  0.00    +0.000 A 
ATOM      7  C   UNL     1       1.793   7.751  20.098  0.00  0.00    +0.000 A 
ATOM      8  C   UNL     1       2.462   7.523  18.901  0.00  0.00    +0.000 A 
ATOM      9 CL   UNL     1       3.388   6.090  18.693  0.00  0.00    +0.000 Cl
ATOM     10  C   UNL     1       2.380   8.453  17.877  0.00  0.00    +0.000 A 
ATOM     11  C   UNL     1       1.578   9.584  18.043  0.00  0.00    +0.000 A 
ATOM     12  C   UNL     1       0.844   9.805  19.241  0.00  0.00    +0.000 A 
ATOM     13  C   UNL     1      -0.061  10.884  19.487  0.00  0.00    +0.000 A 
ATOM     14  C   UNL     1      -0.633  11.063  20.780  0.00  0.00    +0.000 A 
ATOM     15  C   UNL     1      -1.473  12.140  21.178  0.00  0.00    +0.000 A 
ENDROOT
BRANCH   1  17
ATOM     16  C   UNL     1      -2.436  14.134  23.854  0.00  0.00    +0.000 C 
ATOM     17  O   UNL     1      -2.752  13.345  22.712  0.00  0.00    +0.000 OA
ENDBRANCH   1  17
BRANCH  13  18
ATOM     18  S   UNL     1      -0.452  12.059  18.165  0.00  0.00    +0.000 S 
BRANCH  18  19
ATOM     19  C   UNL     1       0.369  13.592  18.648  0.00  0.00    +0.000 A 
ATOM     20  C   UNL     1      -0.376  14.699  19.092  0.00  0.00    +0.000 A 
ATOM     21  C   UNL     1       0.220  15.954  19.272  0.00  0.00    +0.000 A 
ATOM     22  C   UNL     1       1.580  16.116  19.005  0.00  0.00    +0.000 A 
ATOM     23  C   UNL     1       2.357  15.018  18.625  0.00  0.00    +0.000 A 
ATOM     24  C   UNL     1       1.765  13.749  18.452  0.00  0.00    +0.000 A 
ATOM     25  C   UNL     1       2.657  12.614  18.015  0.00  0.00    +0.000 C 
BRANCH  22  26
ATOM     26  N   UNL     1       2.185  17.454  19.073  0.00  0.00    +0.000 N 
ATOM     27  O   UNL     1       3.378  17.531  19.395  0.00  0.00    +0.000 OA
ATOM     28  O   UNL     1       1.459  18.427  18.825  0.00  0.00    +0.000 OA
ENDBRANCH  22  26
ENDBRANCH  18  19
ENDBRANCH  13  18
TORSDOF 4
ENDMDL
MODEL 7
REMARK VINA RESULT:      -7.0      4.801      7.037
REMARK  Name = 
REMARK  6 active torsions:
REMARK  status: ('A' for Active; 'I' for Inactive)
REMARK    1  A    between atoms: C_1  and  O_2
REMARK    2  A    between atoms: O_2  and  C_3
REMARK    3  A    between atoms: C_15  and  S_16
REMARK    4  A    between atoms: S_16  and  C_17
REMARK    5  A    between atoms: C_20  and  N_21
REMARK    6  A    between atoms: C_25  and  C_26
REMARK                            x       y       z     vdW  Elec       q    Type
REMARK                         _______ _______ _______ _____ _____    ______ ____
ROOT
ATOM      1  C   UNL     1       1.174   8.701  20.619  0.00  0.00    +0.000 A 
ATOM      2  C   UNL     1       0.951   8.385  21.948  0.00  0.00    +0.000 A 
ATOM      3  C   UNL     1       0.086   9.173  22.710  0.00  0.00    +0.000 A 
ATOM      4  C   UNL     1      -0.576  10.267  22.178  0.00  0.00    +0.000 A 
ATOM      5  N   UNL     1      -1.375  10.950  23.001  0.00  0.00    +0.000 NA
ATOM      6  C   UNL     1      -2.105  11.965  22.534  0.00  0.00    +0.000 A 
ATOM      7  C   UNL     1      -2.913  12.625  23.445  0.00  0.00    +0.000 A 
ATOM      8  C   UNL     1      -3.743  13.668  23.055  0.00  0.00    +0.000 A 
ATOM      9 CL   UNL     1      -4.702  14.486  24.225  0.00  0.00    +0.000 Cl
ATOM     10  C   UNL     1      -3.798  14.048  21.724  0.00  0.00    +0.000 A 
ATOM     11  C   UNL     1      -2.971  13.410  20.797  0.00  0.00    +0.000 A 
ATOM     12  C   UNL     1      -2.075  12.376  21.189  0.00  0.00    +0.000 A 
ATOM     13  C   UNL     1      -1.135  11.711  20.341  0.00  0.00    +0.000 A 
ATOM     14  C   UNL     1      -0.387  10.600  20.828  0.00  0.00    +0.000 A 
ATOM     15  C   UNL     1       0.509   9.801  20.066  0.00  0.00    +0.000 A 
ENDROOT
BRANCH   1  17
ATOM     16  C   UNL     1       2.039   8.503  18.419  0.00  0.00    +0.000 C 
ATOM     17  O   UNL     1       2.000   8.032  19.761  0.00  0.00    +0.000 OA
ENDBRANCH   1  17
BRANCH  13  18
ATOM     18  S   UNL     1      -0.923  12.249  18.624  0.00  0.00    +0.000 S 
BRANCH  18  19
ATOM     19  C   UNL     1       0.134  13.709  18.721  0.00  0.00    +0.000 A 
ATOM     20  C   UNL     1      -0.416  14.982  18.950  0.00  0.00    +0.000 A 
ATOM     21  C   UNL     1       0.356  16.143  18.824  0.00  0.00    +0.000 A 
ATOM     22  C   UNL     1       1.699  16.042  18.459  0.00  0.00    +0.000 A 
ATOM     23  C   UNL     1       2.287  14.785  18.288  0.00  0.00    +0.000 A 
ATOM     24  C   UNL     1       1.517  13.611  18.424  0.00  0.00    +0.000 A 
ATOM     25  C   UNL     1       2.209  12.290  18.200  0.00  0.00    +0.000 C 
BRANCH  22  26
ATOM     26  N   UNL     1       2.483  17.259  18.205  0.00  0.00    +0.000 N 
ATOM     27  O   UNL     1       1.992  18.342  18.550  0.00  0.00    +0.000 OA
ATOM     28  O   UNL     1       3.579  17.131  17.642  0.00  0.00    +0.000 OA
ENDBRANCH  22  26
ENDBRANCH  18  19
ENDBRANCH  13  18
TORSDOF 4
ENDMDL
MODEL 8
REMARK VINA RESULT:      -7.0      3.664      4.811
REMARK  Name = 
REMARK  6 active torsions:
REMARK  status: ('A' for Active; 'I' for Inactive)
REMARK    1  A    between atoms: C_1  and  O_2
REMARK    2  A    between atoms: O_2  and  C_3
REMARK    3  A    between atoms: C_15  and  S_16
REMARK    4  A    between atoms: S_16  and  C_17
REMARK    5  A    between atoms: C_20  and  N_21
REMARK    6  A    between atoms: C_25  and  C_26
REMARK                            x       y       z     vdW  Elec       q    Type
REMARK                         _______ _______ _______ _____ _____    ______ ____
ROOT
ATOM      1  C   UNL     1      -3.372  12.820  24.081  0.00  0.00    +0.000 A 
ATOM      2  C   UNL     1      -3.196  14.118  24.530  0.00  0.00    +0.000 A 
ATOM      3  C   UNL     1      -2.067  14.839  24.134  0.00  0.00    +0.000 A 
ATOM      4  C   UNL     1      -1.109  14.303  23.290  0.00  0.00    +0.000 A 
ATOM      5  N   UNL     1      -0.069  15.082  22.983  0.00  0.00    +0.000 NA
ATOM      6  C   UNL     1       0.849  14.658  22.111  0.00  0.00    +0.000 A 
ATOM      7  C   UNL     1       1.897  15.522  21.839  0.00  0.00    +0.000 A 
ATOM      8  C   UNL     1       2.883  15.196  20.916  0.00  0.00    +0.000 A 
ATOM      9 CL   UNL     1       4.188  16.280  20.636  0.00  0.00    +0.000 Cl
ATOM     10  C   UNL     1       2.813  13.999  20.223  0.00  0.00    +0.000 A 
ATOM     11  C   UNL     1       1.777  13.106  20.504  0.00  0.00    +0.000 A 
ATOM     12  C   UNL     1       0.789  13.400  21.485  0.00  0.00    +0.000 A 
ATOM     13  C   UNL     1      -0.266  12.530  21.903  0.00  0.00    +0.000 A 
ATOM     14  C   UNL     1      -1.270  12.997  22.801  0.00  0.00    +0.000 A 
ATOM     15  C   UNL     1      -2.415  12.267  23.224  0.00  0.00    +0.000 A 
ENDROOT
BRANCH   1  17
ATOM     16  C   UNL     1      -5.719  12.560  24.312  0.00  0.00    +0.000 C 
ATOM     17  O   UNL     1      -4.415  11.995  24.394  0.00  0.00    +0.000 OA
ENDBRANCH   1  17
BRANCH  13  18
ATOM     18  S   UNL     1      -0.360  10.841  21.256  0.00  0.00    +0.000 S 
BRANCH  18  19
ATOM     19  C   UNL     1      -1.111  11.009  19.623  0.00  0.00    +0.000 A 
ATOM     20  C   UNL     1      -2.324  11.700  19.457  0.00  0.00    +0.000 A 
ATOM     21  C   UNL     1      -3.022  11.664  18.243  0.00  0.00    +0.000 A 
ATOM     22  C   UNL     1      -2.510  10.927  17.174  0.00  0.00    +0.000 A 
ATOM     23  C   UNL     1      -1.275  10.284  17.293  0.00  0.00    +0.000 A 
ATOM     24  C   UNL     1      -0.561  10.325  18.509  0.00  0.00    +0.000 A 
ATOM     25  C   UNL     1       0.752   9.588  18.575  0.00  0.00    +0.000 C 
BRANCH  22  26
ATOM     26  N   UNL     1      -3.296  10.785  15.940  0.00  0.00    +0.000 N 
ATOM     27  O   UNL     1      -4.488  11.119  15.975  0.00  0.00    +0.000 OA
ATOM     28  O   UNL     1      -2.724  10.319  14.944  0.00  0.00    +0.000 OA
ENDBRANCH  22  26
ENDBRANCH  18  19
ENDBRANCH  13  18
TORSDOF 4
ENDMDL
MODEL 9
REMARK VINA RESULT:      -7.0      4.673      6.980
REMARK  Name = 
REMARK  6 active torsions:
REMARK  status: ('A' for Active; 'I' for Inactive)
REMARK    1  A    between atoms: C_1  and  O_2
REMARK    2  A    between atoms: O_2  and  C_3
REMARK    3  A    between atoms: C_15  and  S_16
REMARK    4  A    between atoms: S_16  and  C_17
REMARK    5  A    between atoms: C_20  and  N_21
REMARK    6  A    between atoms: C_25  and  C_26
REMARK                            x       y       z     vdW  Elec       q    Type
REMARK                         _______ _______ _______ _____ _____    ______ ____
ROOT
ATOM      1  C   UNL     1       1.831   8.328  19.153  0.00  0.00    +0.000 A 
ATOM      2  C   UNL     1       1.803   7.731  20.402  0.00  0.00    +0.000 A 
ATOM      3  C   UNL     1       1.036   8.299  21.421  0.00  0.00    +0.000 A 
ATOM      4  C   UNL     1       0.284   9.445  21.227  0.00  0.00    +0.000 A 
ATOM      5  N   UNL     1      -0.407   9.902  22.275  0.00  0.00    +0.000 NA
ATOM      6  C   UNL     1      -1.215  10.954  22.135  0.00  0.00    +0.000 A 
ATOM      7  C   UNL     1      -1.901  11.368  23.265  0.00  0.00    +0.000 A 
ATOM      8  C   UNL     1      -2.799  12.428  23.219  0.00  0.00    +0.000 A 
ATOM      9 CL   UNL     1      -3.602  12.935  24.653  0.00  0.00    +0.000 Cl
ATOM     10  C   UNL     1      -3.047  13.073  22.019  0.00  0.00    +0.000 A 
ATOM     11  C   UNL     1      -2.345  12.684  20.876  0.00  0.00    +0.000 A 
ATOM     12  C   UNL     1      -1.382  11.637  20.917  0.00  0.00    +0.000 A 
ATOM     13  C   UNL     1      -0.556  11.211  19.830  0.00  0.00    +0.000 A 
ATOM     14  C   UNL     1       0.275  10.061  19.966  0.00  0.00    +0.000 A 
ATOM     15  C   UNL     1       1.073   9.484  18.940  0.00  0.00    +0.000 A 
ENDROOT
BRANCH   1  17
ATOM     16  C   UNL     1       3.345   6.734  18.261  0.00  0.00    +0.000 C 
ATOM     17  O   UNL     1       2.542   7.893  18.071  0.00  0.00    +0.000 OA
ENDBRANCH   1  17
BRANCH  13  18
ATOM     18  S   UNL     1      -0.597  12.104  18.254  0.00  0.00    +0.000 S 
BRANCH  18  19
ATOM     19  C   UNL     1       0.413  13.575  18.527  0.00  0.00    +0.000 A 
ATOM     20  C   UNL     1      -0.183  14.807  18.848  0.00  0.00    +0.000 A 
ATOM     21  C   UNL     1       0.560  15.995  18.859  0.00  0.00    +0.000 A 
ATOM     22  C   UNL     1       1.919  15.961  18.544  0.00  0.00    +0.000 A 
ATOM     23  C   UNL     1       2.549  14.741  18.283  0.00  0.00    +0.000 A 
ATOM     24  C   UNL     1       1.809  13.540  18.281  0.00  0.00    +0.000 A 
ATOM     25  C   UNL     1       2.547  12.263  17.966  0.00  0.00    +0.000 C 
BRANCH  22  26
ATOM     26  N   UNL     1       2.676  17.216  18.433  0.00  0.00    +0.000 N 
ATOM     27  O   UNL     1       3.012  17.588  17.301  0.00  0.00    +0.000 OA
ATOM     28  O   UNL     1       2.952  17.816  19.482  0.00  0.00    +0.000 OA
ENDBRANCH  22  26
ENDBRANCH  18  19
ENDBRANCH  13  18
TORSDOF 4
ENDMDL
