MODEL 1
REMARK VINA RESULT:      -8.3      0.000      0.000
REMARK  Name = 
REMARK  6 active torsions:
REMARK  status: ('A' for Active; 'I' for Inactive)
REMARK    1  A    between atoms: C_1  and  C_2
REMARK    2  A    between atoms: C_4  and  N_5
REMARK    3  A    between atoms: C_12  and  C_13
REMARK    4  A    between atoms: C_19  and  C_20
REMARK    5  A    between atoms: C_20  and  O_21
REMARK    6  A    between atoms: O_21  and  C_22
REMARK                            x       y       z     vdW  Elec       q    Type
REMARK                         _______ _______ _______ _____ _____    ______ ____
ROOT
ATOM      1  C   UNL     1       2.723   6.360  19.695  0.00  0.00    +0.000 C 
ATOM      2  O   UNL     1       3.874   6.575  19.325  0.00  0.00    +0.000 OA
ATOM      3  N   UNL     1       2.204   5.064  19.761  0.00  0.00    +0.000 N 
ATOM      4  C   UNL     1       0.902   4.645  20.253  0.00  0.00    +0.000 C 
ATOM      5  C   UNL     1       1.090   3.194  20.626  0.00  0.00    +0.000 C 
ATOM      6  C   UNL     1       2.072   2.679  19.581  0.00  0.00    +0.000 C 
ATOM      7  C   UNL     1       2.880   3.918  19.129  0.00  0.00    +0.000 C 
ENDROOT
BRANCH   1  14
ATOM      8  C   UNL     1       2.074   8.621  17.711  0.00  0.00    +0.000 C 
ATOM      9  C   UNL     1       1.568   8.578  19.130  0.00  0.00    +0.000 A 
ATOM     10  C   UNL     1       0.740   9.642  19.552  0.00  0.00    +0.000 A 
ATOM     11  C   UNL     1       0.212   9.690  20.847  0.00  0.00    +0.000 A 
ATOM     12  C   UNL     1       0.472   8.643  21.730  0.00  0.00    +0.000 A 
ATOM     13  C   UNL     1       1.270   7.577  21.316  0.00  0.00    +0.000 A 
ATOM     14  C   UNL     1       1.875   7.554  20.052  0.00  0.00    +0.000 A 
BRANCH  11  15
ATOM     15  N   UNL     1      -0.622  10.769  21.233  0.00  0.00    +0.000 N 
ATOM     16  C   UNL     1      -0.977  11.184  22.495  0.00  0.00    +0.000 A 
ATOM     17  N   UNL     1      -1.793  12.207  22.435  0.00  0.00    +0.000 NA
ATOM     18  C   UNL     1      -1.920  12.404  21.091  0.00  0.00    +0.000 A 
ATOM     19  N   UNL     1      -1.222  11.573  20.316  0.00  0.00    +0.000 NA
ENDBRANCH  11  15
ENDBRANCH   1  14
BRANCH   7  20
ATOM     20  C   UNL     1       4.380   3.758  19.410  0.00  0.00    +0.000 C 
BRANCH  20  21
ATOM     21  O   UNL     1       5.098   3.697  18.168  0.00  0.00    +0.000 OA
BRANCH  21  22
ATOM     22  C   UNL     1       5.835   4.808  17.851  0.00  0.00    +0.000 A 
ATOM     23  C   UNL     1       5.644   5.611  16.722  0.00  0.00    +0.000 A 
ATOM     24  C   UNL     1       6.442   6.738  16.518  0.00  0.00    +0.000 A 
ATOM     25  C   UNL     1       7.431   7.054  17.440  0.00  0.00    +0.000 A 
ATOM     26  F   UNL     1       8.189   8.140  17.246  0.00  0.00    +0.000 F 
ATOM     27  C   UNL     1       7.643   6.259  18.559  0.00  0.00    +0.000 A 
ATOM     28  C   UNL     1       6.844   5.132  18.763  0.00  0.00    +0.000 A 
ENDBRANCH  21  22
ENDBRANCH  20  21
ENDBRANCH   7  20
TORSDOF 5
ENDMDL
MODEL 2
REMARK VINA RESULT:      -8.3      2.682      3.841
REMARK  Name = 
REMARK  6 active torsions:
REMARK  status: ('A' for Active; 'I' for Inactive)
REMARK    1  A    between atoms: C_1  and  C_2
REMARK    2  A    between atoms: C_4  and  N_5
REMARK    3  A    between atoms: C_12  and  C_13
REMARK    4  A    between atoms: C_19  and  C_20
REMARK    5  A    between atoms: C_20  and  O_21
REMARK    6  A    between atoms: O_21  and  C_22
REMARK                            x       y       z     vdW  Elec       q    Type
REMARK                         _______ _______ _______ _____ _____    ______ ____
ROOT
ATOM      1  C   UNL     1       3.121   5.552  18.181  0.00  0.00    +0.000 C 
ATOM      2  O   UNL     1       2.447   4.952  17.346  0.00  0.00    +0.000 OA
ATOM      3  N   UNL     1       4.496   5.337  18.306  0.00  0.00    +0.000 N 
ATOM      4  C   UNL     1       5.435   6.024  19.177  0.00  0.00    +0.000 C 
ATOM      5  C   UNL     1       6.778   5.822  18.517  0.00  0.00    +0.000 C 
ATOM      6  C   UNL     1       6.677   4.425  17.917  0.00  0.00    +0.000 C 
ATOM      7  C   UNL     1       5.168   4.191  17.668  0.00  0.00    +0.000 C 
ENDROOT
BRANCH   1  14
ATOM      8  C   UNL     1       2.098   4.792  20.980  0.00  0.00    +0.000 C 
ATOM      9  C   UNL     1       1.952   6.165  20.378  0.00  0.00    +0.000 A 
ATOM     10  C   UNL     1       1.314   7.151  21.164  0.00  0.00    +0.000 A 
ATOM     11  C   UNL     1       1.138   8.458  20.699  0.00  0.00    +0.000 A 
ATOM     12  C   UNL     1       1.640   8.812  19.448  0.00  0.00    +0.000 A 
ATOM     13  C   UNL     1       2.292   7.852  18.673  0.00  0.00    +0.000 A 
ATOM     14  C   UNL     1       2.402   6.518  19.087  0.00  0.00    +0.000 A 
BRANCH  11  15
ATOM     15  N   UNL     1       0.501   9.423  21.519  0.00  0.00    +0.000 N 
ATOM     16  C   UNL     1       0.299   9.409  22.879  0.00  0.00    +0.000 A 
ATOM     17  N   UNL     1      -0.359  10.475  23.262  0.00  0.00    +0.000 NA
ATOM     18  C   UNL     1      -0.549  11.141  22.088  0.00  0.00    +0.000 A 
ATOM     19  N   UNL     1      -0.037  10.559  21.003  0.00  0.00    +0.000 NA
ENDBRANCH  11  15
ENDBRANCH   1  14
BRANCH   7  20
ATOM     20  C   UNL     1       4.863   3.947  16.185  0.00  0.00    +0.000 C 
BRANCH  20  21
ATOM     21  O   UNL     1       5.975   3.280  15.568  0.00  0.00    +0.000 OA
BRANCH  21  22
ATOM     22  C   UNL     1       6.364   3.772  14.349  0.00  0.00    +0.000 A 
ATOM     23  C   UNL     1       5.917   3.307  13.108  0.00  0.00    +0.000 A 
ATOM     24  C   UNL     1       6.364   3.907  11.931  0.00  0.00    +0.000 A 
ATOM     25  C   UNL     1       7.260   4.967  11.998  0.00  0.00    +0.000 A 
ATOM     26  F   UNL     1       7.680   5.546  10.867  0.00  0.00    +0.000 F 
ATOM     27  C   UNL     1       7.724   5.431  13.222  0.00  0.00    +0.000 A 
ATOM     28  C   UNL     1       7.277   4.830  14.400  0.00  0.00    +0.000 A 
ENDBRANCH  21  22
ENDBRANCH  20  21
ENDBRANCH   7  20
TORSDOF 5
ENDMDL
MODEL 3
REMARK VINA RESULT:      -8.2      1.495      1.869
REMARK  Name = 
REMARK  6 active torsions:
REMARK  status: ('A' for Active; 'I' for Inactive)
REMARK    1  A    between atoms: C_1  and  C_2
REMARK    2  A    between atoms: C_4  and  N_5
REMARK    3  A    between atoms: C_12  and  C_13
REMARK    4  A    between atoms: C_19  and  C_20
REMARK    5  A    between atoms: C_20  and  O_21
REMARK    6  A    between atoms: O_21  and  C_22
REMARK                            x       y       z     vdW  Elec       q    Type
REMARK                         _______ _______ _______ _____ _____    ______ ____
ROOT
ATOM      1  C   UNL     1       2.582   6.645  19.281  0.00  0.00    +0.000 C 
ATOM      2  O   UNL     1       3.563   6.859  18.574  0.00  0.00    +0.000 OA
ATOM      3  N   UNL     1       2.109   5.350  19.507  0.00  0.00    +0.000 N 
ATOM      4  C   UNL     1       1.023   4.932  20.379  0.00  0.00    +0.000 C 
ATOM      5  C   UNL     1       1.316   3.481  20.678  0.00  0.00    +0.000 C 
ATOM      6  C   UNL     1       1.928   2.964  19.381  0.00  0.00    +0.000 C 
ATOM      7  C   UNL     1       2.556   4.202  18.699  0.00  0.00    +0.000 C 
ENDROOT
BRANCH   1  14
ATOM      8  C   UNL     1       1.715   9.093  17.633  0.00  0.00    +0.000 C 
ATOM      9  C   UNL     1       1.476   8.952  19.113  0.00  0.00    +0.000 A 
ATOM     10  C   UNL     1       0.805  10.011  19.763  0.00  0.00    +0.000 A 
ATOM     11  C   UNL     1       0.528   9.971  21.134  0.00  0.00    +0.000 A 
ATOM     12  C   UNL     1       0.884   8.843  21.871  0.00  0.00    +0.000 A 
ATOM     13  C   UNL     1       1.527   7.781  21.234  0.00  0.00    +0.000 A 
ATOM     14  C   UNL     1       1.887   7.840  19.881  0.00  0.00    +0.000 A 
BRANCH  11  15
ATOM     15  N   UNL     1      -0.155  11.049  21.751  0.00  0.00    +0.000 N 
ATOM     16  C   UNL     1      -0.886  11.062  22.916  0.00  0.00    +0.000 A 
ATOM     17  N   UNL     1      -1.389  12.251  23.135  0.00  0.00    +0.000 NA
ATOM     18  C   UNL     1      -0.937  12.965  22.065  0.00  0.00    +0.000 A 
ATOM     19  N   UNL     1      -0.174  12.292  21.202  0.00  0.00    +0.000 NA
ENDBRANCH  11  15
ENDBRANCH   1  14
BRANCH   7  20
ATOM     20  C   UNL     1       4.069   4.041  18.502  0.00  0.00    +0.000 C 
BRANCH  20  21
ATOM     21  O   UNL     1       4.324   3.345  17.273  0.00  0.00    +0.000 OA
BRANCH  21  22
ATOM     22  C   UNL     1       5.263   3.911  16.451  0.00  0.00    +0.000 A 
ATOM     23  C   UNL     1       6.323   4.721  16.870  0.00  0.00    +0.000 A 
ATOM     24  C   UNL     1       7.236   5.220  15.940  0.00  0.00    +0.000 A 
ATOM     25  C   UNL     1       7.081   4.913  14.594  0.00  0.00    +0.000 A 
ATOM     26  F   UNL     1       7.964   5.386  13.705  0.00  0.00    +0.000 F 
ATOM     27  C   UNL     1       6.026   4.122  14.160  0.00  0.00    +0.000 A 
ATOM     28  C   UNL     1       5.113   3.622  15.091  0.00  0.00    +0.000 A 
ENDBRANCH  21  22
ENDBRANCH  20  21
ENDBRANCH   7  20
TORSDOF 5
ENDMDL
MODEL 4
REMARK VINA RESULT:      -8.2      0.490      1.152
REMARK  Name = 
REMARK  6 active torsions:
REMARK  status: ('A' for Active; 'I' for Inactive)
REMARK    1  A    between atoms: C_1  and  C_2
REMARK    2  A    between atoms: C_4  and  N_5
REMARK    3  A    between atoms: C_12  and  C_13
REMARK    4  A    between atoms: C_19  and  C_20
REMARK    5  A    between atoms: C_20  and  O_21
REMARK    6  A    between atoms: O_21  and  C_22
REMARK                            x       y       z     vdW  Elec       q    Type
REMARK                         _______ _______ _______ _____ _____    ______ ____
ROOT
ATOM      1  C   UNL     1       2.757   6.321  19.725  0.00  0.00    +0.000 C 
ATOM      2  O   UNL     1       3.932   6.526  19.430  0.00  0.00    +0.000 OA
ATOM      3  N   UNL     1       2.211   5.034  19.711  0.00  0.00    +0.000 N 
ATOM      4  C   UNL     1       0.875   4.624  20.112  0.00  0.00    +0.000 C 
ATOM      5  C   UNL     1       1.015   3.155  20.437  0.00  0.00    +0.000 C 
ATOM      6  C   UNL     1       2.046   2.661  19.430  0.00  0.00    +0.000 C 
ATOM      7  C   UNL     1       2.901   3.899  19.073  0.00  0.00    +0.000 C 
ENDROOT
BRANCH   1  14
ATOM      8  C   UNL     1       2.078   8.559  17.727  0.00  0.00    +0.000 C 
ATOM      9  C   UNL     1       1.591   8.531  19.152  0.00  0.00    +0.000 A 
ATOM     10  C   UNL     1       0.768   9.599  19.574  0.00  0.00    +0.000 A 
ATOM     11  C   UNL     1       0.258   9.659  20.875  0.00  0.00    +0.000 A 
ATOM     12  C   UNL     1       0.531   8.623  21.766  0.00  0.00    +0.000 A 
ATOM     13  C   UNL     1       1.325   7.553  21.353  0.00  0.00    +0.000 A 
ATOM     14  C   UNL     1       1.913   7.517  20.081  0.00  0.00    +0.000 A 
BRANCH  11  15
ATOM     15  N   UNL     1      -0.572  10.742  21.260  0.00  0.00    +0.000 N 
ATOM     16  C   UNL     1      -1.074  11.767  20.494  0.00  0.00    +0.000 A 
ATOM     17  N   UNL     1      -1.780  12.593  21.227  0.00  0.00    +0.000 NA
ATOM     18  C   UNL     1      -1.693  12.033  22.467  0.00  0.00    +0.000 A 
ATOM     19  N   UNL     1      -0.988  10.904  22.544  0.00  0.00    +0.000 NA
ENDBRANCH  11  15
ENDBRANCH   1  14
BRANCH   7  20
ATOM     20  C   UNL     1       4.379   3.697  19.432  0.00  0.00    +0.000 C 
BRANCH  20  21
ATOM     21  O   UNL     1       5.172   3.721  18.235  0.00  0.00    +0.000 OA
BRANCH  21  22
ATOM     22  C   UNL     1       5.955   4.832  18.062  0.00  0.00    +0.000 A 
ATOM     23  C   UNL     1       7.018   5.211  18.888  0.00  0.00    +0.000 A 
ATOM     24  C   UNL     1       7.764   6.353  18.594  0.00  0.00    +0.000 A 
ATOM     25  C   UNL     1       7.442   7.114  17.478  0.00  0.00    +0.000 A 
ATOM     26  F   UNL     1       8.165   8.204  17.194  0.00  0.00    +0.000 F 
ATOM     27  C   UNL     1       6.381   6.759  16.655  0.00  0.00    +0.000 A 
ATOM     28  C   UNL     1       5.634   5.617  16.950  0.00  0.00    +0.000 A 
ENDBRANCH  21  22
ENDBRANCH  20  21
ENDBRANCH   7  20
TORSDOF 5
ENDMDL
MODEL 5
REMARK VINA RESULT:      -8.2      2.629      4.570
REMARK  Name = 
REMARK  6 active torsions:
REMARK  status: ('A' for Active; 'I' for Inactive)
REMARK    1  A    between atoms: C_1  and  C_2
REMARK    2  A    between atoms: C_4  and  N_5
REMARK    3  A    between atoms: C_12  and  C_13
REMARK    4  A    between atoms: C_19  and  C_20
REMARK    5  A    between atoms: C_20  and  O_21
REMARK    6  A    between atoms: O_21  and  C_22
REMARK                            x       y       z     vdW  Elec       q    Type
REMARK                         _______ _______ _______ _____ _____    ______ ____
ROOT
ATOM      1  C   UNL     1       2.837   6.140  18.066  0.00  0.00    +0.000 C 
ATOM      2  O   UNL     1       2.052   5.199  17.974  0.00  0.00    +0.000 OA
ATOM      3  N   UNL     1       4.203   5.984  17.815  0.00  0.00    +0.000 N 
ATOM      4  C   UNL     1       5.233   7.009  17.801  0.00  0.00    +0.000 C 
ATOM      5  C   UNL     1       6.333   6.424  16.947  0.00  0.00    +0.000 C 
ATOM      6  C   UNL     1       6.287   4.936  17.271  0.00  0.00    +0.000 C 
ATOM      7  C   UNL     1       4.832   4.655  17.714  0.00  0.00    +0.000 C 
ENDROOT
BRANCH   1  14
ATOM      8  C   UNL     1       1.718   6.683  20.880  0.00  0.00    +0.000 C 
ATOM      9  C   UNL     1       1.779   7.717  19.787  0.00  0.00    +0.000 A 
ATOM     10  C   UNL     1       1.297   9.010  20.095  0.00  0.00    +0.000 A 
ATOM     11  C   UNL     1       1.319  10.043  19.151  0.00  0.00    +0.000 A 
ATOM     12  C   UNL     1       1.865   9.806  17.891  0.00  0.00    +0.000 A 
ATOM     13  C   UNL     1       2.363   8.540  17.585  0.00  0.00    +0.000 A 
ATOM     14  C   UNL     1       2.273   7.472  18.487  0.00  0.00    +0.000 A 
BRANCH  11  15
ATOM     15  N   UNL     1       0.836  11.329  19.499  0.00  0.00    +0.000 N 
ATOM     16  C   UNL     1       1.097  12.082  20.619  0.00  0.00    +0.000 A 
ATOM     17  N   UNL     1       0.434  13.211  20.586  0.00  0.00    +0.000 NA
ATOM     18  C   UNL     1      -0.239  13.122  19.403  0.00  0.00    +0.000 A 
ATOM     19  N   UNL     1      -0.023  12.012  18.697  0.00  0.00    +0.000 NA
ENDBRANCH  11  15
ENDBRANCH   1  14
BRANCH   7  20
ATOM     20  C   UNL     1       4.143   3.630  16.804  0.00  0.00    +0.000 C 
BRANCH  20  21
ATOM     21  O   UNL     1       4.004   2.383  17.502  0.00  0.00    +0.000 OA
BRANCH  21  22
ATOM     22  C   UNL     1       3.298   2.433  18.676  0.00  0.00    +0.000 A 
ATOM     23  C   UNL     1       3.849   2.650  19.943  0.00  0.00    +0.000 A 
ATOM     24  C   UNL     1       3.024   2.707  21.067  0.00  0.00    +0.000 A 
ATOM     25  C   UNL     1       1.652   2.542  20.920  0.00  0.00    +0.000 A 
ATOM     26  F   UNL     1       0.862   2.606  21.999  0.00  0.00    +0.000 F 
ATOM     27  C   UNL     1       1.092   2.311  19.670  0.00  0.00    +0.000 A 
ATOM     28  C   UNL     1       1.917   2.254  18.546  0.00  0.00    +0.000 A 
ENDBRANCH  21  22
ENDBRANCH  20  21
ENDBRANCH   7  20
TORSDOF 5
ENDMDL
MODEL 6
REMARK VINA RESULT:      -8.1      1.412      1.701
REMARK  Name = 
REMARK  6 active torsions:
REMARK  status: ('A' for Active; 'I' for Inactive)
REMARK    1  A    between atoms: C_1  and  C_2
REMARK    2  A    between atoms: C_4  and  N_5
REMARK    3  A    between atoms: C_12  and  C_13
REMARK    4  A    between atoms: C_19  and  C_20
REMARK    5  A    between atoms: C_20  and  O_21
REMARK    6  A    between atoms: O_21  and  C_22
REMARK                            x       y       z     vdW  Elec       q    Type
REMARK                         _______ _______ _______ _____ _____    ______ ____
ROOT
ATOM      1  C   UNL     1       2.603   6.654  19.366  0.00  0.00    +0.000 C 
ATOM      2  O   UNL     1       3.607   6.885  18.697  0.00  0.00    +0.000 OA
ATOM      3  N   UNL     1       2.165   5.349  19.605  0.00  0.00    +0.000 N 
ATOM      4  C   UNL     1       1.055   4.915  20.439  0.00  0.00    +0.000 C 
ATOM      5  C   UNL     1       1.385   3.483  20.789  0.00  0.00    +0.000 C 
ATOM      6  C   UNL     1       2.072   2.956  19.535  0.00  0.00    +0.000 C 
ATOM      7  C   UNL     1       2.688   4.198  18.848  0.00  0.00    +0.000 C 
ENDROOT
BRANCH   1  14
ATOM      8  C   UNL     1       1.690   9.008  17.608  0.00  0.00    +0.000 C 
ATOM      9  C   UNL     1       1.410   8.906  19.084  0.00  0.00    +0.000 A 
ATOM     10  C   UNL     1       0.675   9.957  19.676  0.00  0.00    +0.000 A 
ATOM     11  C   UNL     1       0.356   9.951  21.038  0.00  0.00    +0.000 A 
ATOM     12  C   UNL     1       0.733   8.864  21.824  0.00  0.00    +0.000 A 
ATOM     13  C   UNL     1       1.439   7.810  21.245  0.00  0.00    +0.000 A 
ATOM     14  C   UNL     1       1.841   7.838  19.903  0.00  0.00    +0.000 A 
BRANCH  11  15
ATOM     15  N   UNL     1      -0.390  11.020  21.596  0.00  0.00    +0.000 N 
ATOM     16  C   UNL     1      -1.127  11.990  20.958  0.00  0.00    +0.000 A 
ATOM     17  N   UNL     1      -1.648  12.822  21.825  0.00  0.00    +0.000 NA
ATOM     18  C   UNL     1      -1.207  12.323  23.014  0.00  0.00    +0.000 A 
ATOM     19  N   UNL     1      -0.454  11.225  22.937  0.00  0.00    +0.000 NA
ENDBRANCH  11  15
ENDBRANCH   1  14
BRANCH   7  20
ATOM     20  C   UNL     1       4.212   4.086  18.723  0.00  0.00    +0.000 C 
BRANCH  20  21
ATOM     21  O   UNL     1       4.544   3.192  17.650  0.00  0.00    +0.000 OA
BRANCH  21  22
ATOM     22  C   UNL     1       5.328   3.718  16.657  0.00  0.00    +0.000 A 
ATOM     23  C   UNL     1       5.158   3.496  15.287  0.00  0.00    +0.000 A 
ATOM     24  C   UNL     1       6.007   4.109  14.365  0.00  0.00    +0.000 A 
ATOM     25  C   UNL     1       7.026   4.938  14.817  0.00  0.00    +0.000 A 
ATOM     26  F   UNL     1       7.833   5.532  13.929  0.00  0.00    +0.000 F 
ATOM     27  C   UNL     1       7.218   5.157  16.175  0.00  0.00    +0.000 A 
ATOM     28  C   UNL     1       6.368   4.543  17.097  0.00  0.00    +0.000 A 
ENDBRANCH  21  22
ENDBRANCH  20  21
ENDBRANCH   7  20
TORSDOF 5
ENDMDL
MODEL 7
REMARK VINA RESULT:      -8.1      0.975      1.147
REMARK  Name = 
REMARK  6 active torsions:
REMARK  status: ('A' for Active; 'I' for Inactive)
REMARK    1  A    between atoms: C_1  and  C_2
REMARK    2  A    between atoms: C_4  and  N_5
REMARK    3  A    between atoms: C_12  and  C_13
REMARK    4  A    between atoms: C_19  and  C_20
REMARK    5  A    between atoms: C_20  and  O_21
REMARK    6  A    between atoms: O_21  and  C_22
REMARK                            x       y       z     vdW  Elec       q    Type
REMARK                         _______ _______ _______ _____ _____    ______ ____
ROOT
ATOM      1  C   UNL     1       3.183   6.161  19.381  0.00  0.00    +0.000 C 
ATOM      2  O   UNL     1       4.372   6.278  19.667  0.00  0.00    +0.000 OA
ATOM      3  N   UNL     1       2.689   5.016  18.752  0.00  0.00    +0.000 N 
ATOM      4  C   UNL     1       1.308   4.696  18.430  0.00  0.00    +0.000 C 
ATOM      5  C   UNL     1       1.287   3.190  18.314  0.00  0.00    +0.000 C 
ATOM      6  C   UNL     1       2.647   2.857  17.713  0.00  0.00    +0.000 C 
ATOM      7  C   UNL     1       3.580   4.017  18.134  0.00  0.00    +0.000 C 
ENDROOT
BRANCH   1  14
ATOM      8  C   UNL     1       2.609   8.469  17.431  0.00  0.00    +0.000 C 
ATOM      9  C   UNL     1       2.002   8.362  18.805  0.00  0.00    +0.000 A 
ATOM     10  C   UNL     1       1.112   9.386  19.199  0.00  0.00    +0.000 A 
ATOM     11  C   UNL     1       0.490   9.373  20.452  0.00  0.00    +0.000 A 
ATOM     12  C   UNL     1       0.718   8.304  21.318  0.00  0.00    +0.000 A 
ATOM     13  C   UNL     1       1.577   7.277  20.929  0.00  0.00    +0.000 A 
ATOM     14  C   UNL     1       2.274   7.316  19.714  0.00  0.00    +0.000 A 
BRANCH  11  15
ATOM     15  N   UNL     1      -0.404  10.413  20.810  0.00  0.00    +0.000 N 
ATOM     16  C   UNL     1      -1.138  11.246  19.998  0.00  0.00    +0.000 A 
ATOM     17  N   UNL     1      -1.826  12.101  20.711  0.00  0.00    +0.000 NA
ATOM     18  C   UNL     1      -1.490  11.760  21.987  0.00  0.00    +0.000 A 
ATOM     19  N   UNL     1      -0.644  10.736  22.108  0.00  0.00    +0.000 NA
ENDBRANCH  11  15
ENDBRANCH   1  14
BRANCH   7  20
ATOM     20  C   UNL     1       4.761   3.526  18.979  0.00  0.00    +0.000 C 
BRANCH  20  21
ATOM     21  O   UNL     1       5.963   3.563  18.195  0.00  0.00    +0.000 OA
BRANCH  21  22
ATOM     22  C   UNL     1       6.470   4.811  17.941  0.00  0.00    +0.000 A 
ATOM     23  C   UNL     1       6.111   5.627  16.863  0.00  0.00    +0.000 A 
ATOM     24  C   UNL     1       6.677   6.894  16.722  0.00  0.00    +0.000 A 
ATOM     25  C   UNL     1       7.603   7.339  17.656  0.00  0.00    +0.000 A 
ATOM     26  F   UNL     1       8.138   8.559  17.524  0.00  0.00    +0.000 F 
ATOM     27  C   UNL     1       7.981   6.536  18.724  0.00  0.00    +0.000 A 
ATOM     28  C   UNL     1       7.415   5.267  18.865  0.00  0.00    +0.000 A 
ENDBRANCH  21  22
ENDBRANCH  20  21
ENDBRANCH   7  20
TORSDOF 5
ENDMDL
MODEL 8
REMARK VINA RESULT:      -8.1      2.654      4.554
REMARK  Name = 
REMARK  6 active torsions:
REMARK  status: ('A' for Active; 'I' for Inactive)
REMARK    1  A    between atoms: C_1  and  C_2
REMARK    2  A    between atoms: C_4  and  N_5
REMARK    3  A    between atoms: C_12  and  C_13
REMARK    4  A    between atoms: C_19  and  C_20
REMARK    5  A    between atoms: C_20  and  O_21
REMARK    6  A    between atoms: O_21  and  C_22
REMARK                            x       y       z     vdW  Elec       q    Type
REMARK                         _______ _______ _______ _____ _____    ______ ____
ROOT
ATOM      1  C   UNL     1       2.815   6.212  18.085  0.00  0.00    +0.000 C 
ATOM      2  O   UNL     1       2.030   5.270  17.998  0.00  0.00    +0.000 OA
ATOM      3  N   UNL     1       4.179   6.056  17.827  0.00  0.00    +0.000 N 
ATOM      4  C   UNL     1       5.209   7.081  17.804  0.00  0.00    +0.000 C 
ATOM      5  C   UNL     1       6.305   6.495  16.946  0.00  0.00    +0.000 C 
ATOM      6  C   UNL     1       6.261   5.008  17.274  0.00  0.00    +0.000 C 
ATOM      7  C   UNL     1       4.809   4.727  17.726  0.00  0.00    +0.000 C 
ENDROOT
BRANCH   1  14
ATOM      8  C   UNL     1       1.731   6.768  20.910  0.00  0.00    +0.000 C 
ATOM      9  C   UNL     1       1.774   7.797  19.810  0.00  0.00    +0.000 A 
ATOM     10  C   UNL     1       1.293   9.089  20.117  0.00  0.00    +0.000 A 
ATOM     11  C   UNL     1       1.299  10.117  19.167  0.00  0.00    +0.000 A 
ATOM     12  C   UNL     1       1.829   9.875  17.901  0.00  0.00    +0.000 A 
ATOM     13  C   UNL     1       2.328   8.608  17.596  0.00  0.00    +0.000 A 
ATOM     14  C   UNL     1       2.253   7.545  18.506  0.00  0.00    +0.000 A 
BRANCH  11  15
ATOM     15  N   UNL     1       0.817  11.404  19.513  0.00  0.00    +0.000 N 
ATOM     16  C   UNL     1       0.031  12.263  18.781  0.00  0.00    +0.000 A 
ATOM     17  N   UNL     1      -0.177  13.376  19.439  0.00  0.00    +0.000 NA
ATOM     18  C   UNL     1       0.507  13.165  20.599  0.00  0.00    +0.000 A 
ATOM     19  N   UNL     1       1.115  11.984  20.705  0.00  0.00    +0.000 NA
ENDBRANCH  11  15
ENDBRANCH   1  14
BRANCH   7  20
ATOM     20  C   UNL     1       4.116   3.700  16.822  0.00  0.00    +0.000 C 
BRANCH  20  21
ATOM     21  O   UNL     1       3.965   2.460  17.530  0.00  0.00    +0.000 OA
BRANCH  21  22
ATOM     22  C   UNL     1       3.130   2.491  18.615  0.00  0.00    +0.000 A 
ATOM     23  C   UNL     1       1.744   2.310  18.576  0.00  0.00    +0.000 A 
ATOM     24  C   UNL     1       0.998   2.336  19.755  0.00  0.00    +0.000 A 
ATOM     25  C   UNL     1       1.640   2.548  20.968  0.00  0.00    +0.000 A 
ATOM     26  F   UNL     1       0.923   2.563  22.099  0.00  0.00    +0.000 F 
ATOM     27  C   UNL     1       3.014   2.743  21.023  0.00  0.00    +0.000 A 
ATOM     28  C   UNL     1       3.760   2.717  19.843  0.00  0.00    +0.000 A 
ENDBRANCH  21  22
ENDBRANCH  20  21
ENDBRANCH   7  20
TORSDOF 5
ENDMDL
MODEL 9
REMARK VINA RESULT:      -8.0      3.630      8.058
REMARK  Name = 
REMARK  6 active torsions:
REMARK  status: ('A' for Active; 'I' for Inactive)
REMARK    1  A    between atoms: C_1  and  C_2
REMARK    2  A    between atoms: C_4  and  N_5
REMARK    3  A    between atoms: C_12  and  C_13
REMARK    4  A    between atoms: C_19  and  C_20
REMARK    5  A    between atoms: C_20  and  O_21
REMARK    6  A    between atoms: O_21  and  C_22
REMARK                            x       y       z     vdW  Elec       q    Type
REMARK                         _______ _______ _______ _____ _____    ______ ____
ROOT
ATOM      1  C   UNL     1       0.557  10.399  20.414  0.00  0.00    +0.000 C 
ATOM      2  O   UNL     1       1.140  11.100  21.238  0.00  0.00    +0.000 OA
ATOM      3  N   UNL     1      -0.635  10.811  19.813  0.00  0.00    +0.000 N 
ATOM      4  C   UNL     1      -1.391  10.138  18.769  0.00  0.00    +0.000 C 
ATOM      5  C   UNL     1      -2.202  11.237  18.124  0.00  0.00    +0.000 C 
ATOM      6  C   UNL     1      -2.543  12.160  19.287  0.00  0.00    +0.000 C 
ATOM      7  C   UNL     1      -1.417  11.950  20.326  0.00  0.00    +0.000 C 
ENDROOT
BRANCH   1  14
ATOM      8  C   UNL     1       2.065   9.819  17.796  0.00  0.00    +0.000 C 
ATOM      9  C   UNL     1       1.871   8.807  18.895  0.00  0.00    +0.000 A 
ATOM     10  C   UNL     1       2.431   7.525  18.697  0.00  0.00    +0.000 A 
ATOM     11  C   UNL     1       2.314   6.518  19.661  0.00  0.00    +0.000 A 
ATOM     12  C   UNL     1       1.668   6.796  20.864  0.00  0.00    +0.000 A 
ATOM     13  C   UNL     1       1.132   8.065  21.079  0.00  0.00    +0.000 A 
ATOM     14  C   UNL     1       1.165   9.058  20.092  0.00  0.00    +0.000 A 
BRANCH  11  15
ATOM     15  N   UNL     1       2.896   5.246  19.432  0.00  0.00    +0.000 N 
ATOM     16  C   UNL     1       2.282   4.028  19.263  0.00  0.00    +0.000 A 
ATOM     17  N   UNL     1       3.170   3.078  19.102  0.00  0.00    +0.000 NA
ATOM     18  C   UNL     1       4.348   3.761  19.177  0.00  0.00    +0.000 A 
ATOM     19  N   UNL     1       4.243   5.077  19.361  0.00  0.00    +0.000 NA
ENDBRANCH  11  15
ENDBRANCH   1  14
BRANCH   7  20
ATOM     20  C   UNL     1      -0.647  13.247  20.607  0.00  0.00    +0.000 C 
BRANCH  20  21
ATOM     21  O   UNL     1      -0.679  14.088  19.444  0.00  0.00    +0.000 OA
BRANCH  21  22
ATOM     22  C   UNL     1       0.542  14.468  18.950  0.00  0.00    +0.000 A 
ATOM     23  C   UNL     1       1.004  15.785  18.861  0.00  0.00    +0.000 A 
ATOM     24  C   UNL     1       2.281  16.049  18.364  0.00  0.00    +0.000 A 
ATOM     25  C   UNL     1       3.088  14.997  17.953  0.00  0.00    +0.000 A 
ATOM     26  F   UNL     1       4.316  15.252  17.485  0.00  0.00    +0.000 F 
ATOM     27  C   UNL     1       2.639  13.684  18.022  0.00  0.00    +0.000 A 
ATOM     28  C   UNL     1       1.361  13.420  18.519  0.00  0.00    +0.000 A 
ENDBRANCH  21  22
ENDBRANCH  20  21
ENDBRANCH   7  20
TORSDOF 5
ENDMDL
