MODEL 1
REMARK VINA RESULT:      -6.8      0.000      0.000
REMARK  Name = 
REMARK  7 active torsions:
REMARK  status: ('A' for Active; 'I' for Inactive)
REMARK    1  A    between atoms: C_1  and  N_2
REMARK    2  A    between atoms: N_2  and  C_3
REMARK    3  A    between atoms: N_2  and  S_9
REMARK    4  A    between atoms: C_3  and  C_4
REMARK    5  A    between atoms: S_9  and  N_12
REMARK    6  A    between atoms: N_12  and  C_13
REMARK    7  A    between atoms: N_12  and  C_14
REMARK                            x       y       z     vdW  Elec       q    Type
REMARK                         _______ _______ _______ _____ _____    ______ ____
ROOT
ATOM      1  S   UNL     1       5.012   4.728  18.609  0.00  0.00    +0.000 S 
ATOM      2  O   UNL     1       6.018   3.715  18.850  0.00  0.00    +0.000 OA
ATOM      3  O   UNL     1       4.800   5.795  19.547  0.00  0.00    +0.000 OA
ENDROOT
BRANCH   1   5
ATOM      4  C   UNL     1       5.133   6.930  17.114  0.00  0.00    +0.000 C 
ATOM      5  N   UNL     1       5.322   5.449  17.079  0.00  0.00    +0.000 NA
BRANCH   5   6
ATOM      6  C   UNL     1       6.690   5.074  16.589  0.00  0.00    +0.000 C 
BRANCH   6   7
ATOM      7  C   UNL     1       6.734   4.764  15.128  0.00  0.00    +0.000 A 
ATOM      8  C   UNL     1       6.036   3.906  14.299  0.00  0.00    +0.000 A 
ATOM      9  C   UNL     1       6.603   4.038  13.005  0.00  0.00    +0.000 A 
ATOM     10  C   UNL     1       7.609   4.966  13.124  0.00  0.00    +0.000 A 
ATOM     11  O   UNL     1       7.693   5.417  14.403  0.00  0.00    +0.000 OA
ENDBRANCH   6   7
ENDBRANCH   5   6
ENDBRANCH   1   5
BRANCH   1  12
ATOM     12  N   UNL     1       3.523   3.877  18.310  0.00  0.00    +0.000 NA
ATOM     13  C   UNL     1       3.394   3.589  16.844  0.00  0.00    +0.000 C 
BRANCH  12  14
ATOM     14  C   UNL     1       3.345   2.618  19.176  0.00  0.00    +0.000 C 
ATOM     15  C   UNL     1       3.402   2.904  20.693  0.00  0.00    +0.000 C 
ATOM     16  C   UNL     1       2.224   3.746  21.190  0.00  0.00    +0.000 C 
ATOM     17  C   UNL     1       0.884   3.098  20.850  0.00  0.00    +0.000 C 
ATOM     18  C   UNL     1       0.794   2.737  19.372  0.00  0.00    +0.000 C 
ATOM     19  C   UNL     1       1.995   1.893  18.947  0.00  0.00    +0.000 C 
ENDBRANCH  12  14
ENDBRANCH   1  12
TORSDOF 5
ENDMDL
MODEL 2
REMARK VINA RESULT:      -6.5      1.221      1.782
REMARK  Name = 
REMARK  7 active torsions:
REMARK  status: ('A' for Active; 'I' for Inactive)
REMARK    1  A    between atoms: C_1  and  N_2
REMARK    2  A    between atoms: N_2  and  C_3
REMARK    3  A    between atoms: N_2  and  S_9
REMARK    4  A    between atoms: C_3  and  C_4
REMARK    5  A    between atoms: S_9  and  N_12
REMARK    6  A    between atoms: N_12  and  C_13
REMARK    7  A    between atoms: N_12  and  C_14
REMARK                            x       y       z     vdW  Elec       q    Type
REMARK                         _______ _______ _______ _____ _____    ______ ____
ROOT
ATOM      1  S   UNL     1       5.663   5.196  18.170  0.00  0.00    +0.000 S 
ATOM      2  O   UNL     1       6.436   4.037  18.566  0.00  0.00    +0.000 OA
ATOM      3  O   UNL     1       6.042   6.515  18.596  0.00  0.00    +0.000 OA
ENDROOT
BRANCH   1   5
ATOM      4  C   UNL     1       5.109   6.551  15.943  0.00  0.00    +0.000 C 
ATOM      5  N   UNL     1       5.566   5.224  16.453  0.00  0.00    +0.000 NA
BRANCH   5   6
ATOM      6  C   UNL     1       6.877   4.816  15.846  0.00  0.00    +0.000 C 
BRANCH   6   7
ATOM      7  C   UNL     1       6.791   4.538  14.380  0.00  0.00    +0.000 A 
ATOM      8  C   UNL     1       6.066   3.654  13.604  0.00  0.00    +0.000 A 
ATOM      9  C   UNL     1       6.491   3.846  12.263  0.00  0.00    +0.000 A 
ATOM     10  C   UNL     1       7.445   4.834  12.305  0.00  0.00    +0.000 A 
ATOM     11  O   UNL     1       7.631   5.263  13.580  0.00  0.00    +0.000 OA
ENDBRANCH   6   7
ENDBRANCH   5   6
ENDBRANCH   1   5
BRANCH   1  12
ATOM     12  N   UNL     1       4.016   4.863  18.618  0.00  0.00    +0.000 NA
ATOM     13  C   UNL     1       3.335   6.137  19.021  0.00  0.00    +0.000 C 
BRANCH  12  14
ATOM     14  C   UNL     1       3.228   4.088  17.547  0.00  0.00    +0.000 C 
ATOM     15  C   UNL     1       3.549   2.578  17.522  0.00  0.00    +0.000 C 
ATOM     16  C   UNL     1       3.085   1.844  18.784  0.00  0.00    +0.000 C 
ATOM     17  C   UNL     1       1.591   2.038  19.033  0.00  0.00    +0.000 C 
ATOM     18  C   UNL     1       1.204   3.512  19.008  0.00  0.00    +0.000 C 
ATOM     19  C   UNL     1       1.691   4.177  17.721  0.00  0.00    +0.000 C 
ENDBRANCH  12  14
ENDBRANCH   1  12
TORSDOF 5
ENDMDL
MODEL 3
REMARK VINA RESULT:      -6.2      1.027      1.236
REMARK  Name = 
REMARK  7 active torsions:
REMARK  status: ('A' for Active; 'I' for Inactive)
REMARK    1  A    between atoms: C_1  and  N_2
REMARK    2  A    between atoms: N_2  and  C_3
REMARK    3  A    between atoms: N_2  and  S_9
REMARK    4  A    between atoms: C_3  and  C_4
REMARK    5  A    between atoms: S_9  and  N_12
REMARK    6  A    between atoms: N_12  and  C_13
REMARK    7  A    between atoms: N_12  and  C_14
REMARK                            x       y       z     vdW  Elec       q    Type
REMARK                         _______ _______ _______ _____ _____    ______ ____
ROOT
ATOM      1  S   UNL     1       5.218   5.034  17.983  0.00  0.00    +0.000 S 
ATOM      2  O   UNL     1       6.251   4.135  18.456  0.00  0.00    +0.000 OA
ATOM      3  O   UNL     1       5.076   6.350  18.540  0.00  0.00    +0.000 OA
ENDROOT
BRANCH   1   5
ATOM      4  C   UNL     1       5.084   6.608  15.838  0.00  0.00    +0.000 C 
ATOM      5  N   UNL     1       5.394   5.216  16.282  0.00  0.00    +0.000 NA
BRANCH   5   6
ATOM      6  C   UNL     1       6.763   4.784  15.845  0.00  0.00    +0.000 C 
BRANCH   6   7
ATOM      7  C   UNL     1       6.858   4.506  14.381  0.00  0.00    +0.000 A 
ATOM      8  C   UNL     1       7.625   5.009  13.348  0.00  0.00    +0.000 A 
ATOM      9  C   UNL     1       7.187   4.364  12.162  0.00  0.00    +0.000 A 
ATOM     10  C   UNL     1       6.182   3.508  12.544  0.00  0.00    +0.000 A 
ATOM     11  O   UNL     1       5.979   3.582  13.885  0.00  0.00    +0.000 OA
ENDBRANCH   6   7
ENDBRANCH   5   6
ENDBRANCH   1   5
BRANCH   1  12
ATOM     12  N   UNL     1       3.719   4.159  18.098  0.00  0.00    +0.000 NA
ATOM     13  C   UNL     1       3.542   3.299  16.882  0.00  0.00    +0.000 C 
BRANCH  12  14
ATOM     14  C   UNL     1       3.564   3.366  19.408  0.00  0.00    +0.000 C 
ATOM     15  C   UNL     1       3.141   4.240  20.609  0.00  0.00    +0.000 C 
ATOM     16  C   UNL     1       1.727   4.811  20.467  0.00  0.00    +0.000 C 
ATOM     17  C   UNL     1       0.692   3.709  20.258  0.00  0.00    +0.000 C 
ATOM     18  C   UNL     1       1.088   2.775  19.120  0.00  0.00    +0.000 C 
ATOM     19  C   UNL     1       2.504   2.239  19.329  0.00  0.00    +0.000 C 
ENDBRANCH  12  14
ENDBRANCH   1  12
TORSDOF 5
ENDMDL
MODEL 4
REMARK VINA RESULT:      -6.2      2.847      6.021
REMARK  Name = 
REMARK  7 active torsions:
REMARK  status: ('A' for Active; 'I' for Inactive)
REMARK    1  A    between atoms: C_1  and  N_2
REMARK    2  A    between atoms: N_2  and  C_3
REMARK    3  A    between atoms: N_2  and  S_9
REMARK    4  A    between atoms: C_3  and  C_4
REMARK    5  A    between atoms: S_9  and  N_12
REMARK    6  A    between atoms: N_12  and  C_13
REMARK    7  A    between atoms: N_12  and  C_14
REMARK                            x       y       z     vdW  Elec       q    Type
REMARK                         _______ _______ _______ _____ _____    ______ ____
ROOT
ATOM      1  S   UNL     1       2.636   3.883  18.392  0.00  0.00    +0.000 S 
ATOM      2  O   UNL     1       2.640   2.687  19.207  0.00  0.00    +0.000 OA
ATOM      3  O   UNL     1       2.058   3.877  17.077  0.00  0.00    +0.000 OA
ENDROOT
BRANCH   1   5
ATOM      4  C   UNL     1       1.311   4.651  20.572  0.00  0.00    +0.000 C 
ATOM      5  N   UNL     1       1.871   5.143  19.278  0.00  0.00    +0.000 NA
BRANCH   5   6
ATOM      6  C   UNL     1       2.815   6.292  19.480  0.00  0.00    +0.000 C 
BRANCH   6   7
ATOM      7  C   UNL     1       2.269   7.599  19.005  0.00  0.00    +0.000 A 
ATOM      8  C   UNL     1       2.347   8.307  17.821  0.00  0.00    +0.000 A 
ATOM      9  C   UNL     1       1.655   9.528  18.030  0.00  0.00    +0.000 A 
ATOM     10  C   UNL     1       1.197   9.489  19.325  0.00  0.00    +0.000 A 
ATOM     11  O   UNL     1       1.558   8.324  19.922  0.00  0.00    +0.000 OA
ENDBRANCH   6   7
ENDBRANCH   5   6
ENDBRANCH   1   5
BRANCH   1  12
ATOM     12  N   UNL     1       4.284   4.438  18.328  0.00  0.00    +0.000 NA
ATOM     13  C   UNL     1       5.146   3.555  19.180  0.00  0.00    +0.000 C 
BRANCH  12  14
ATOM     14  C   UNL     1       4.830   4.591  16.898  0.00  0.00    +0.000 C 
ATOM     15  C   UNL     1       4.832   6.051  16.394  0.00  0.00    +0.000 C 
ATOM     16  C   UNL     1       5.810   6.949  17.156  0.00  0.00    +0.000 C 
ATOM     17  C   UNL     1       7.234   6.399  17.110  0.00  0.00    +0.000 C 
ATOM     18  C   UNL     1       7.286   4.938  17.541  0.00  0.00    +0.000 C 
ATOM     19  C   UNL     1       6.291   4.101  16.736  0.00  0.00    +0.000 C 
ENDBRANCH  12  14
ENDBRANCH   1  12
TORSDOF 5
ENDMDL
MODEL 5
REMARK VINA RESULT:      -6.0      2.390      4.309
REMARK  Name = 
REMARK  7 active torsions:
REMARK  status: ('A' for Active; 'I' for Inactive)
REMARK    1  A    between atoms: C_1  and  N_2
REMARK    2  A    between atoms: N_2  and  C_3
REMARK    3  A    between atoms: N_2  and  S_9
REMARK    4  A    between atoms: C_3  and  C_4
REMARK    5  A    between atoms: S_9  and  N_12
REMARK    6  A    between atoms: N_12  and  C_13
REMARK    7  A    between atoms: N_12  and  C_14
REMARK                            x       y       z     vdW  Elec       q    Type
REMARK                         _______ _______ _______ _____ _____    ______ ____
ROOT
ATOM      1  S   UNL     1       5.273   5.067  18.417  0.00  0.00    +0.000 S 
ATOM      2  O   UNL     1       6.184   4.470  17.462  0.00  0.00    +0.000 OA
ATOM      3  O   UNL     1       5.707   5.390  19.747  0.00  0.00    +0.000 OA
ENDROOT
BRANCH   1   5
ATOM      4  C   UNL     1       5.197   6.775  16.374  0.00  0.00    +0.000 C 
ATOM      5  N   UNL     1       4.629   6.505  17.728  0.00  0.00    +0.000 NA
BRANCH   5   6
ATOM      6  C   UNL     1       3.129   6.450  17.703  0.00  0.00    +0.000 C 
BRANCH   6   7
ATOM      7  C   UNL     1       2.480   7.691  18.222  0.00  0.00    +0.000 A 
ATOM      8  C   UNL     1       1.926   8.059  19.433  0.00  0.00    +0.000 A 
ATOM      9  C   UNL     1       1.411   9.371  19.264  0.00  0.00    +0.000 A 
ATOM     10  C   UNL     1       1.684   9.722  17.964  0.00  0.00    +0.000 A 
ATOM     11  O   UNL     1       2.336   8.715  17.326  0.00  0.00    +0.000 OA
ENDBRANCH   6   7
ENDBRANCH   5   6
ENDBRANCH   1   5
BRANCH   1  12
ATOM     12  N   UNL     1       3.874   4.034  18.468  0.00  0.00    +0.000 NA
ATOM     13  C   UNL     1       3.980   2.988  17.399  0.00  0.00    +0.000 C 
BRANCH  12  14
ATOM     14  C   UNL     1       3.601   3.431  19.858  0.00  0.00    +0.000 C 
ATOM     15  C   UNL     1       2.737   4.338  20.761  0.00  0.00    +0.000 C 
ATOM     16  C   UNL     1       1.303   4.505  20.251  0.00  0.00    +0.000 C 
ATOM     17  C   UNL     1       0.606   3.158  20.076  0.00  0.00    +0.000 C 
ATOM     18  C   UNL     1       1.442   2.197  19.239  0.00  0.00    +0.000 C 
ATOM     19  C   UNL     1       2.855   2.073  19.809  0.00  0.00    +0.000 C 
ENDBRANCH  12  14
ENDBRANCH   1  12
TORSDOF 5
ENDMDL
MODEL 6
REMARK VINA RESULT:      -6.0      1.048      1.673
REMARK  Name = 
REMARK  7 active torsions:
REMARK  status: ('A' for Active; 'I' for Inactive)
REMARK    1  A    between atoms: C_1  and  N_2
REMARK    2  A    between atoms: N_2  and  C_3
REMARK    3  A    between atoms: N_2  and  S_9
REMARK    4  A    between atoms: C_3  and  C_4
REMARK    5  A    between atoms: S_9  and  N_12
REMARK    6  A    between atoms: N_12  and  C_13
REMARK    7  A    between atoms: N_12  and  C_14
REMARK                            x       y       z     vdW  Elec       q    Type
REMARK                         _______ _______ _______ _____ _____    ______ ____
ROOT
ATOM      1  S   UNL     1       5.555   4.866  18.635  0.00  0.00    +0.000 S 
ATOM      2  O   UNL     1       6.670   3.982  18.366  0.00  0.00    +0.000 OA
ATOM      3  O   UNL     1       5.631   5.852  19.677  0.00  0.00    +0.000 OA
ENDROOT
BRANCH   1   5
ATOM      4  C   UNL     1       4.467   6.991  17.451  0.00  0.00    +0.000 C 
ATOM      5  N   UNL     1       5.154   5.693  17.181  0.00  0.00    +0.000 NA
BRANCH   5   6
ATOM      6  C   UNL     1       6.373   5.874  16.326  0.00  0.00    +0.000 C 
BRANCH   6   7
ATOM      7  C   UNL     1       6.329   5.088  15.056  0.00  0.00    +0.000 A 
ATOM      8  C   UNL     1       5.542   4.057  14.582  0.00  0.00    +0.000 A 
ATOM      9  C   UNL     1       6.056   3.702  13.308  0.00  0.00    +0.000 A 
ATOM     10  C   UNL     1       7.123   4.539  13.082  0.00  0.00    +0.000 A 
ATOM     11  O   UNL     1       7.293   5.386  14.131  0.00  0.00    +0.000 OA
ENDBRANCH   6   7
ENDBRANCH   5   6
ENDBRANCH   1   5
BRANCH   1  12
ATOM     12  N   UNL     1       4.165   3.845  18.865  0.00  0.00    +0.000 NA
ATOM     13  C   UNL     1       4.557   2.630  19.650  0.00  0.00    +0.000 C 
BRANCH  12  14
ATOM     14  C   UNL     1       2.955   4.575  19.474  0.00  0.00    +0.000 C 
ATOM     15  C   UNL     1       1.770   4.722  18.495  0.00  0.00    +0.000 C 
ATOM     16  C   UNL     1       1.124   3.382  18.130  0.00  0.00    +0.000 C 
ATOM     17  C   UNL     1       0.662   2.621  19.370  0.00  0.00    +0.000 C 
ATOM     18  C   UNL     1       1.777   2.498  20.402  0.00  0.00    +0.000 C 
ATOM     19  C   UNL     1       2.370   3.870  20.723  0.00  0.00    +0.000 C 
ENDBRANCH  12  14
ENDBRANCH   1  12
TORSDOF 5
ENDMDL
MODEL 7
REMARK VINA RESULT:      -5.9      1.485      2.031
REMARK  Name = 
REMARK  7 active torsions:
REMARK  status: ('A' for Active; 'I' for Inactive)
REMARK    1  A    between atoms: C_1  and  N_2
REMARK    2  A    between atoms: N_2  and  C_3
REMARK    3  A    between atoms: N_2  and  S_9
REMARK    4  A    between atoms: C_3  and  C_4
REMARK    5  A    between atoms: S_9  and  N_12
REMARK    6  A    between atoms: N_12  and  C_13
REMARK    7  A    between atoms: N_12  and  C_14
REMARK                            x       y       z     vdW  Elec       q    Type
REMARK                         _______ _______ _______ _____ _____    ______ ____
ROOT
ATOM      1  S   UNL     1       5.371   5.698  17.791  0.00  0.00    +0.000 S 
ATOM      2  O   UNL     1       6.301   4.827  18.479  0.00  0.00    +0.000 OA
ATOM      3  O   UNL     1       5.542   7.124  17.814  0.00  0.00    +0.000 OA
ENDROOT
BRANCH   1   5
ATOM      4  C   UNL     1       5.084   6.387  15.233  0.00  0.00    +0.000 C 
ATOM      5  N   UNL     1       5.299   5.221  16.140  0.00  0.00    +0.000 NA
BRANCH   5   6
ATOM      6  C   UNL     1       6.526   4.442  15.764  0.00  0.00    +0.000 C 
BRANCH   6   7
ATOM      7  C   UNL     1       6.720   4.316  14.288  0.00  0.00    +0.000 A 
ATOM      8  C   UNL     1       7.549   4.926  13.366  0.00  0.00    +0.000 A 
ATOM      9  C   UNL     1       7.196   4.406  12.094  0.00  0.00    +0.000 A 
ATOM     10  C   UNL     1       6.177   3.512  12.318  0.00  0.00    +0.000 A 
ATOM     11  O   UNL     1       5.885   3.446  13.643  0.00  0.00    +0.000 OA
ENDBRANCH   6   7
ENDBRANCH   5   6
ENDBRANCH   1   5
BRANCH   1  12
ATOM     12  N   UNL     1       3.784   5.267  18.359  0.00  0.00    +0.000 NA
ATOM     13  C   UNL     1       2.937   6.499  18.471  0.00  0.00    +0.000 C 
BRANCH  12  14
ATOM     14  C   UNL     1       3.109   4.161  17.530  0.00  0.00    +0.000 C 
ATOM     15  C   UNL     1       3.680   2.752  17.805  0.00  0.00    +0.000 C 
ATOM     16  C   UNL     1       3.382   2.250  19.220  0.00  0.00    +0.000 C 
ATOM     17  C   UNL     1       1.885   2.253  19.518  0.00  0.00    +0.000 C 
ATOM     18  C   UNL     1       1.254   3.605  19.206  0.00  0.00    +0.000 C 
ATOM     19  C   UNL     1       1.585   4.041  17.779  0.00  0.00    +0.000 C 
ENDBRANCH  12  14
ENDBRANCH   1  12
TORSDOF 5
ENDMDL
MODEL 8
REMARK VINA RESULT:      -5.9      1.185      1.475
REMARK  Name = 
REMARK  7 active torsions:
REMARK  status: ('A' for Active; 'I' for Inactive)
REMARK    1  A    between atoms: C_1  and  N_2
REMARK    2  A    between atoms: N_2  and  C_3
REMARK    3  A    between atoms: N_2  and  S_9
REMARK    4  A    between atoms: C_3  and  C_4
REMARK    5  A    between atoms: S_9  and  N_12
REMARK    6  A    between atoms: N_12  and  C_13
REMARK    7  A    between atoms: N_12  and  C_14
REMARK                            x       y       z     vdW  Elec       q    Type
REMARK                         _______ _______ _______ _____ _____    ______ ____
ROOT
ATOM      1  S   UNL     1       6.155   5.125  18.562  0.00  0.00    +0.000 S 
ATOM      2  O   UNL     1       6.717   3.820  18.284  0.00  0.00    +0.000 OA
ATOM      3  O   UNL     1       6.547   5.862  19.731  0.00  0.00    +0.000 OA
ENDROOT
BRANCH   1   5
ATOM      4  C   UNL     1       6.922   7.492  17.609  0.00  0.00    +0.000 C 
ATOM      5  N   UNL     1       6.438   6.139  17.202  0.00  0.00    +0.000 NA
BRANCH   5   6
ATOM      6  C   UNL     1       7.378   5.477  16.238  0.00  0.00    +0.000 C 
BRANCH   6   7
ATOM      7  C   UNL     1       6.690   4.868  15.061  0.00  0.00    +0.000 A 
ATOM      8  C   UNL     1       5.469   4.252  14.865  0.00  0.00    +0.000 A 
ATOM      9  C   UNL     1       5.437   3.829  13.511  0.00  0.00    +0.000 A 
ATOM     10  C   UNL     1       6.638   4.213  12.965  0.00  0.00    +0.000 A 
ATOM     11  O   UNL     1       7.402   4.848  13.892  0.00  0.00    +0.000 OA
ENDBRANCH   6   7
ENDBRANCH   5   6
ENDBRANCH   1   5
BRANCH   1  12
ATOM     12  N   UNL     1       4.427   4.933  18.515  0.00  0.00    +0.000 NA
ATOM     13  C   UNL     1       3.828   5.978  17.621  0.00  0.00    +0.000 C 
BRANCH  12  14
ATOM     14  C   UNL     1       3.972   3.510  18.145  0.00  0.00    +0.000 C 
ATOM     15  C   UNL     1       3.756   2.597  19.371  0.00  0.00    +0.000 C 
ATOM     16  C   UNL     1       2.582   3.038  20.250  0.00  0.00    +0.000 C 
ATOM     17  C   UNL     1       1.282   3.127  19.453  0.00  0.00    +0.000 C 
ATOM     18  C   UNL     1       1.452   3.970  18.195  0.00  0.00    +0.000 C 
ATOM     19  C   UNL     1       2.634   3.470  17.364  0.00  0.00    +0.000 C 
ENDBRANCH  12  14
ENDBRANCH   1  12
TORSDOF 5
ENDMDL
MODEL 9
REMARK VINA RESULT:      -5.9      2.410      4.041
REMARK  Name = 
REMARK  7 active torsions:
REMARK  status: ('A' for Active; 'I' for Inactive)
REMARK    1  A    between atoms: C_1  and  N_2
REMARK    2  A    between atoms: N_2  and  C_3
REMARK    3  A    between atoms: N_2  and  S_9
REMARK    4  A    between atoms: C_3  and  C_4
REMARK    5  A    between atoms: S_9  and  N_12
REMARK    6  A    between atoms: N_12  and  C_13
REMARK    7  A    between atoms: N_12  and  C_14
REMARK                            x       y       z     vdW  Elec       q    Type
REMARK                         _______ _______ _______ _____ _____    ______ ____
ROOT
ATOM      1  S   UNL     1       5.166   4.468  17.705  0.00  0.00    +0.000 S 
ATOM      2  O   UNL     1       5.299   4.197  16.288  0.00  0.00    +0.000 OA
ATOM      3  O   UNL     1       6.094   3.915  18.651  0.00  0.00    +0.000 OA
ENDROOT
BRANCH   1   5
ATOM      4  C   UNL     1       6.519   6.764  17.731  0.00  0.00    +0.000 C 
ATOM      5  N   UNL     1       5.162   6.173  17.933  0.00  0.00    +0.000 NA
BRANCH   5   6
ATOM      6  C   UNL     1       4.136   6.820  17.051  0.00  0.00    +0.000 C 
BRANCH   6   7
ATOM      7  C   UNL     1       3.130   7.629  17.803  0.00  0.00    +0.000 A 
ATOM      8  C   UNL     1       2.462   7.471  19.002  0.00  0.00    +0.000 A 
ATOM      9  C   UNL     1       1.580   8.575  19.126  0.00  0.00    +0.000 A 
ATOM     10  C   UNL     1       1.765   9.338  17.998  0.00  0.00    +0.000 A 
ATOM     11  O   UNL     1       2.705   8.778  17.194  0.00  0.00    +0.000 OA
ENDBRANCH   6   7
ENDBRANCH   5   6
ENDBRANCH   1   5
BRANCH   1  12
ATOM     12  N   UNL     1       3.534   4.044  18.133  0.00  0.00    +0.000 NA
ATOM     13  C   UNL     1       2.792   3.597  16.909  0.00  0.00    +0.000 C 
BRANCH  12  14
ATOM     14  C   UNL     1       3.442   3.026  19.283  0.00  0.00    +0.000 C 
ATOM     15  C   UNL     1       3.185   3.676  20.660  0.00  0.00    +0.000 C 
ATOM     16  C   UNL     1       1.806   4.333  20.767  0.00  0.00    +0.000 C 
ATOM     17  C   UNL     1       0.684   3.344  20.461  0.00  0.00    +0.000 C 
ATOM     18  C   UNL     1       0.916   2.624  19.137  0.00  0.00    +0.000 C 
ATOM     19  C   UNL     1       2.305   1.988  19.103  0.00  0.00    +0.000 C 
ENDBRANCH  12  14
ENDBRANCH   1  12
TORSDOF 5
ENDMDL
