MODEL 1
REMARK VINA RESULT:      -8.4      0.000      0.000
REMARK  Name = 
REMARK  6 active torsions:
REMARK  status: ('A' for Active; 'I' for Inactive)
REMARK    1  A    between atoms: C_2  and  C_4
REMARK    2  A    between atoms: C_6  and  C_7
REMARK    3  A    between atoms: N_11  and  C_12
REMARK    4  A    between atoms: C_12  and  C_13
REMARK    5  A    between atoms: C_13  and  O_14
REMARK    6  A    between atoms: C_13  and  C_15
REMARK                            x       y       z     vdW  Elec       q    Type
REMARK                         _______ _______ _______ _____ _____    ______ ____
ROOT
ATOM      1  C   UNL     1       5.840   6.755  16.924  0.00  0.00    +0.000 C 
ATOM      2  C   UNL     1       7.057   7.509  17.479  0.00  0.00    +0.000 C 
ATOM      3  C   UNL     1       7.976   6.587  18.276  0.00  0.00    +0.000 C 
ATOM      4  C   UNL     1       7.226   5.750  19.320  0.00  0.00    +0.000 C 
ATOM      5  N   UNL     1       6.055   5.063  18.768  0.00  0.00    +0.000 NA
ATOM      6  C   UNL     1       5.146   6.013  18.087  0.00  0.00    +0.000 C 
ENDROOT
BRANCH   1   9
ATOM      7  C   UNL     1       6.125   4.436  14.043  0.00  0.00    +0.000 A 
ATOM      8  C   UNL     1       5.342   5.226  14.845  0.00  0.00    +0.000 A 
ATOM      9  C   UNL     1       6.208   5.826  15.789  0.00  0.00    +0.000 A 
ATOM     10  N   UNL     1       7.477   5.450  15.577  0.00  0.00    +0.000 NA
ATOM     11  N   UNL     1       7.395   4.613  14.520  0.00  0.00    +0.000 N 
ATOM     12  H   UNL     1       8.243   4.182  14.167  0.00  0.00    +0.000 HD
BRANCH   7  14
ATOM     13  N   UNL     1       6.831   2.853  12.434  0.00  0.00    +0.000 N 
ATOM     14  C   UNL     1       5.794   3.577  12.946  0.00  0.00    +0.000 C 
ATOM     15  O   UNL     1       4.666   3.480  12.477  0.00  0.00    +0.000 OA
ATOM     16  H   UNL     1       6.647   2.254  11.643  0.00  0.00    +0.000 HD
ATOM     17  H   UNL     1       7.777   2.916  12.780  0.00  0.00    +0.000 HD
ENDBRANCH   7  14
ENDBRANCH   1   9
BRANCH   5  18
ATOM     18  C   UNL     1       5.307   4.230  19.730  0.00  0.00    +0.000 C 
BRANCH  18  19
ATOM     19  C   UNL     1       4.585   2.971  19.161  0.00  0.00    +0.000 C 
BRANCH  19  20
ATOM     20  C   UNL     1       3.091   2.870  19.403  0.00  0.00    +0.000 A 
ATOM     21  C   UNL     1       2.615   3.031  20.720  0.00  0.00    +0.000 A 
ATOM     22  C   UNL     1       1.246   3.046  20.997  0.00  0.00    +0.000 A 
ATOM     23  C   UNL     1       0.325   2.884  19.968  0.00  0.00    +0.000 A 
ATOM     24  C   UNL     1       0.776   2.690  18.665  0.00  0.00    +0.000 A 
ATOM     25  C   UNL     1       2.143   2.681  18.394  0.00  0.00    +0.000 A 
ATOM     26  F   UNL     1       2.513   2.507  17.118  0.00  0.00    +0.000 F 
ENDBRANCH  19  20
BRANCH  19  27
ATOM     27  O   UNL     1       5.138   1.769  19.718  0.00  0.00    +0.000 OA
ATOM     28  H   UNL     1       4.388   1.178  19.896  0.00  0.00    +0.000 HD
ENDBRANCH  19  27
ENDBRANCH  18  19
ENDBRANCH   5  18
TORSDOF 6
ENDMDL
MODEL 2
REMARK VINA RESULT:      -8.4      1.064      1.073
REMARK  Name = 
REMARK  6 active torsions:
REMARK  status: ('A' for Active; 'I' for Inactive)
REMARK    1  A    between atoms: C_2  and  C_4
REMARK    2  A    between atoms: C_6  and  C_7
REMARK    3  A    between atoms: N_11  and  C_12
REMARK    4  A    between atoms: C_12  and  C_13
REMARK    5  A    between atoms: C_13  and  O_14
REMARK    6  A    between atoms: C_13  and  C_15
REMARK                            x       y       z     vdW  Elec       q    Type
REMARK                         _______ _______ _______ _____ _____    ______ ____
ROOT
ATOM      1  C   UNL     1       5.244   6.068  16.762  0.00  0.00    +0.000 C 
ATOM      2  C   UNL     1       6.367   7.070  17.066  0.00  0.00    +0.000 C 
ATOM      3  C   UNL     1       7.505   6.422  17.849  0.00  0.00    +0.000 C 
ATOM      4  C   UNL     1       7.019   5.633  19.072  0.00  0.00    +0.000 C 
ATOM      5  N   UNL     1       5.930   4.703  18.757  0.00  0.00    +0.000 NA
ATOM      6  C   UNL     1       4.809   5.397  18.084  0.00  0.00    +0.000 C 
ENDROOT
BRANCH   1   9
ATOM      7  C   UNL     1       6.270   4.082  13.802  0.00  0.00    +0.000 A 
ATOM      8  C   UNL     1       6.052   5.307  14.379  0.00  0.00    +0.000 A 
ATOM      9  C   UNL     1       5.645   5.057  15.712  0.00  0.00    +0.000 A 
ATOM     10  N   UNL     1       5.631   3.741  15.966  0.00  0.00    +0.000 NA
ATOM     11  N   UNL     1       6.012   3.181  14.798  0.00  0.00    +0.000 N 
ATOM     12  H   UNL     1       6.071   2.170  14.734  0.00  0.00    +0.000 HD
BRANCH   7  14
ATOM     13  N   UNL     1       6.201   2.512  12.034  0.00  0.00    +0.000 N 
ATOM     14  C   UNL     1       6.665   3.718  12.474  0.00  0.00    +0.000 C 
ATOM     15  O   UNL     1       7.371   4.419  11.761  0.00  0.00    +0.000 OA
ATOM     16  H   UNL     1       6.476   2.205  11.113  0.00  0.00    +0.000 HD
ATOM     17  H   UNL     1       5.631   1.898  12.597  0.00  0.00    +0.000 HD
ENDBRANCH   7  14
ENDBRANCH   1   9
BRANCH   5  18
ATOM     18  C   UNL     1       5.437   3.908  19.899  0.00  0.00    +0.000 C 
BRANCH  18  19
ATOM     19  C   UNL     1       4.680   2.586  19.562  0.00  0.00    +0.000 C 
BRANCH  19  20
ATOM     20  C   UNL     1       3.169   2.614  19.685  0.00  0.00    +0.000 A 
ATOM     21  C   UNL     1       2.604   3.004  20.916  0.00  0.00    +0.000 A 
ATOM     22  C   UNL     1       1.222   3.142  21.066  0.00  0.00    +0.000 A 
ATOM     23  C   UNL     1       0.375   2.879  19.994  0.00  0.00    +0.000 A 
ATOM     24  C   UNL     1       0.911   2.460  18.780  0.00  0.00    +0.000 A 
ATOM     25  C   UNL     1       2.290   2.328  18.635  0.00  0.00    +0.000 A 
ATOM     26  F   UNL     1       2.746   1.938  17.437  0.00  0.00    +0.000 F 
ENDBRANCH  19  20
BRANCH  19  27
ATOM     27  O   UNL     1       5.108   1.520  20.422  0.00  0.00    +0.000 OA
ATOM     28  H   UNL     1       5.357   1.932  21.267  0.00  0.00    +0.000 HD
ENDBRANCH  19  27
ENDBRANCH  18  19
ENDBRANCH   5  18
TORSDOF 6
ENDMDL
MODEL 3
REMARK VINA RESULT:      -8.1      0.988      1.365
REMARK  Name = 
REMARK  6 active torsions:
REMARK  status: ('A' for Active; 'I' for Inactive)
REMARK    1  A    between atoms: C_2  and  C_4
REMARK    2  A    between atoms: C_6  and  C_7
REMARK    3  A    between atoms: N_11  and  C_12
REMARK    4  A    between atoms: C_12  and  C_13
REMARK    5  A    between atoms: C_13  and  O_14
REMARK    6  A    between atoms: C_13  and  C_15
REMARK                            x       y       z     vdW  Elec       q    Type
REMARK                         _______ _______ _______ _____ _____    ______ ____
ROOT
ATOM      1  C   UNL     1       5.738   6.678  17.060  0.00  0.00    +0.000 C 
ATOM      2  C   UNL     1       6.896   7.524  17.608  0.00  0.00    +0.000 C 
ATOM      3  C   UNL     1       7.939   6.662  18.313  0.00  0.00    +0.000 C 
ATOM      4  C   UNL     1       7.327   5.697  19.337  0.00  0.00    +0.000 C 
ATOM      5  N   UNL     1       6.209   4.921  18.793  0.00  0.00    +0.000 NA
ATOM      6  C   UNL     1       5.177   5.806  18.206  0.00  0.00    +0.000 C 
ENDROOT
BRANCH   1   9
ATOM      7  C   UNL     1       6.130   4.517  14.070  0.00  0.00    +0.000 A 
ATOM      8  C   UNL     1       5.306   5.144  14.969  0.00  0.00    +0.000 A 
ATOM      9  C   UNL     1       6.146   5.853  15.860  0.00  0.00    +0.000 A 
ATOM     10  N   UNL     1       7.434   5.699  15.524  0.00  0.00    +0.000 NA
ATOM     11  N   UNL     1       7.392   4.889  14.443  0.00  0.00    +0.000 N 
ATOM     12  H   UNL     1       8.263   4.614  14.001  0.00  0.00    +0.000 HD
BRANCH   7  14
ATOM     13  N   UNL     1       6.918   2.983  12.452  0.00  0.00    +0.000 N 
ATOM     14  C   UNL     1       5.844   3.646  12.970  0.00  0.00    +0.000 C 
ATOM     15  O   UNL     1       4.722   3.488  12.505  0.00  0.00    +0.000 OA
ATOM     16  H   UNL     1       6.765   2.378  11.659  0.00  0.00    +0.000 HD
ATOM     17  H   UNL     1       7.861   3.098  12.795  0.00  0.00    +0.000 HD
ENDBRANCH   7  14
ENDBRANCH   1   9
BRANCH   5  18
ATOM     18  C   UNL     1       5.595   3.964  19.736  0.00  0.00    +0.000 C 
BRANCH  18  19
ATOM     19  C   UNL     1       4.694   2.850  19.121  0.00  0.00    +0.000 C 
BRANCH  19  20
ATOM     20  C   UNL     1       3.198   2.988  19.328  0.00  0.00    +0.000 A 
ATOM     21  C   UNL     1       2.395   3.305  18.214  0.00  0.00    +0.000 A 
ATOM     22  C   UNL     1       1.002   3.352  18.316  0.00  0.00    +0.000 A 
ATOM     23  C   UNL     1       0.384   3.101  19.536  0.00  0.00    +0.000 A 
ATOM     24  C   UNL     1       1.162   2.819  20.656  0.00  0.00    +0.000 A 
ATOM     25  C   UNL     1       2.550   2.769  20.547  0.00  0.00    +0.000 A 
ATOM     26  F   UNL     1       3.241   2.477  21.657  0.00  0.00    +0.000 F 
ENDBRANCH  19  20
BRANCH  19  27
ATOM     27  O   UNL     1       5.031   1.565  19.663  0.00  0.00    +0.000 OA
ATOM     28  H   UNL     1       4.780   1.587  20.601  0.00  0.00    +0.000 HD
ENDBRANCH  19  27
ENDBRANCH  18  19
ENDBRANCH   5  18
TORSDOF 6
ENDMDL
MODEL 4
REMARK VINA RESULT:      -8.0      1.061      1.210
REMARK  Name = 
REMARK  6 active torsions:
REMARK  status: ('A' for Active; 'I' for Inactive)
REMARK    1  A    between atoms: C_2  and  C_4
REMARK    2  A    between atoms: C_6  and  C_7
REMARK    3  A    between atoms: N_11  and  C_12
REMARK    4  A    between atoms: C_12  and  C_13
REMARK    5  A    between atoms: C_13  and  O_14
REMARK    6  A    between atoms: C_13  and  C_15
REMARK                            x       y       z     vdW  Elec       q    Type
REMARK                         _______ _______ _______ _____ _____    ______ ____
ROOT
ATOM      1  C   UNL     1       5.337   6.115  16.121  0.00  0.00    +0.000 C 
ATOM      2  C   UNL     1       6.348   7.092  16.738  0.00  0.00    +0.000 C 
ATOM      3  C   UNL     1       7.447   6.358  17.502  0.00  0.00    +0.000 C 
ATOM      4  C   UNL     1       6.900   5.316  18.486  0.00  0.00    +0.000 C 
ATOM      5  N   UNL     1       5.918   4.414  17.876  0.00  0.00    +0.000 NA
ATOM      6  C   UNL     1       4.822   5.171  17.231  0.00  0.00    +0.000 C 
ENDROOT
BRANCH   1   9
ATOM      7  C   UNL     1       6.197   3.960  13.227  0.00  0.00    +0.000 A 
ATOM      8  C   UNL     1       5.264   4.400  14.131  0.00  0.00    +0.000 A 
ATOM      9  C   UNL     1       5.912   5.358  14.945  0.00  0.00    +0.000 A 
ATOM     10  N   UNL     1       7.184   5.529  14.559  0.00  0.00    +0.000 NA
ATOM     11  N   UNL     1       7.325   4.674  13.522  0.00  0.00    +0.000 N 
ATOM     12  H   UNL     1       8.224   4.613  13.054  0.00  0.00    +0.000 HD
BRANCH   7  14
ATOM     13  N   UNL     1       7.314   2.476  11.762  0.00  0.00    +0.000 N 
ATOM     14  C   UNL     1       6.119   2.979  12.186  0.00  0.00    +0.000 C 
ATOM     15  O   UNL     1       5.065   2.600  11.690  0.00  0.00    +0.000 OA
ATOM     16  H   UNL     1       7.307   1.802  11.012  0.00  0.00    +0.000 HD
ATOM     17  H   UNL     1       8.205   2.775  12.134  0.00  0.00    +0.000 HD
ENDBRANCH   7  14
ENDBRANCH   1   9
BRANCH   5  18
ATOM     18  C   UNL     1       5.372   3.381  18.779  0.00  0.00    +0.000 C 
BRANCH  18  19
ATOM     19  C   UNL     1       4.003   2.751  18.382  0.00  0.00    +0.000 C 
BRANCH  19  20
ATOM     20  C   UNL     1       2.894   2.818  19.415  0.00  0.00    +0.000 A 
ATOM     21  C   UNL     1       3.191   2.445  20.741  0.00  0.00    +0.000 A 
ATOM     22  C   UNL     1       2.242   2.575  21.759  0.00  0.00    +0.000 A 
ATOM     23  C   UNL     1       0.973   3.065  21.470  0.00  0.00    +0.000 A 
ATOM     24  C   UNL     1       0.650   3.408  20.160  0.00  0.00    +0.000 A 
ATOM     25  C   UNL     1       1.601   3.280  19.150  0.00  0.00    +0.000 A 
ATOM     26  F   UNL     1       1.234   3.643  17.914  0.00  0.00    +0.000 F 
ENDBRANCH  19  20
BRANCH  19  27
ATOM     27  O   UNL     1       4.151   1.356  18.081  0.00  0.00    +0.000 OA
ATOM     28  H   UNL     1       4.620   1.307  17.231  0.00  0.00    +0.000 HD
ENDBRANCH  19  27
ENDBRANCH  18  19
ENDBRANCH   5  18
TORSDOF 6
ENDMDL
MODEL 5
REMARK VINA RESULT:      -8.0      4.015      5.142
REMARK  Name = 
REMARK  6 active torsions:
REMARK  status: ('A' for Active; 'I' for Inactive)
REMARK    1  A    between atoms: C_2  and  C_4
REMARK    2  A    between atoms: C_6  and  C_7
REMARK    3  A    between atoms: N_11  and  C_12
REMARK    4  A    between atoms: C_12  and  C_13
REMARK    5  A    between atoms: C_13  and  O_14
REMARK    6  A    between atoms: C_13  and  C_15
REMARK                            x       y       z     vdW  Elec       q    Type
REMARK                         _______ _______ _______ _____ _____    ______ ____
ROOT
ATOM      1  C   UNL     1       4.882   3.928  19.274  0.00  0.00    +0.000 C 
ATOM      2  C   UNL     1       4.228   2.544  19.156  0.00  0.00    +0.000 C 
ATOM      3  C   UNL     1       3.180   2.508  18.047  0.00  0.00    +0.000 C 
ATOM      4  C   UNL     1       2.182   3.670  18.127  0.00  0.00    +0.000 C 
ATOM      5  N   UNL     1       2.834   4.976  18.264  0.00  0.00    +0.000 NA
ATOM      6  C   UNL     1       3.769   4.991  19.412  0.00  0.00    +0.000 C 
ENDROOT
BRANCH   1   9
ATOM      7  C   UNL     1       6.685   4.502  16.084  0.00  0.00    +0.000 A 
ATOM      8  C   UNL     1       5.514   4.221  16.739  0.00  0.00    +0.000 A 
ATOM      9  C   UNL     1       5.816   4.222  18.122  0.00  0.00    +0.000 A 
ATOM     10  N   UNL     1       7.108   4.513  18.326  0.00  0.00    +0.000 NA
ATOM     11  N   UNL     1       7.605   4.677  17.081  0.00  0.00    +0.000 N 
ATOM     12  H   UNL     1       8.588   4.900  16.969  0.00  0.00    +0.000 HD
BRANCH   7  14
ATOM     13  N   UNL     1       6.365   3.692  13.885  0.00  0.00    +0.000 N 
ATOM     14  C   UNL     1       6.988   4.602  14.687  0.00  0.00    +0.000 C 
ATOM     15  O   UNL     1       7.752   5.437  14.218  0.00  0.00    +0.000 OA
ATOM     16  H   UNL     1       6.570   3.710  12.897  0.00  0.00    +0.000 HD
ATOM     17  H   UNL     1       5.742   2.978  14.234  0.00  0.00    +0.000 HD
ENDBRANCH   7  14
ENDBRANCH   1   9
BRANCH   5  18
ATOM     18  C   UNL     1       1.915   6.130  18.330  0.00  0.00    +0.000 C 
BRANCH  18  19
ATOM     19  C   UNL     1       2.549   7.517  18.654  0.00  0.00    +0.000 C 
BRANCH  19  20
ATOM     20  C   UNL     1       1.609   8.600  19.149  0.00  0.00    +0.000 A 
ATOM     21  C   UNL     1       1.138   9.551  18.222  0.00  0.00    +0.000 A 
ATOM     22  C   UNL     1       0.196  10.515  18.590  0.00  0.00    +0.000 A 
ATOM     23  C   UNL     1      -0.283  10.559  19.896  0.00  0.00    +0.000 A 
ATOM     24  C   UNL     1       0.195   9.649  20.834  0.00  0.00    +0.000 A 
ATOM     25  C   UNL     1       1.131   8.687  20.460  0.00  0.00    +0.000 A 
ATOM     26  F   UNL     1       1.539   7.829  21.405  0.00  0.00    +0.000 F 
ENDBRANCH  19  20
BRANCH  19  27
ATOM     27  O   UNL     1       3.184   8.072  17.493  0.00  0.00    +0.000 OA
ATOM     28  H   UNL     1       2.829   7.588  16.729  0.00  0.00    +0.000 HD
ENDBRANCH  19  27
ENDBRANCH  18  19
ENDBRANCH   5  18
TORSDOF 6
ENDMDL
MODEL 6
REMARK VINA RESULT:      -7.8      2.403      2.852
REMARK  Name = 
REMARK  6 active torsions:
REMARK  status: ('A' for Active; 'I' for Inactive)
REMARK    1  A    between atoms: C_2  and  C_4
REMARK    2  A    between atoms: C_6  and  C_7
REMARK    3  A    between atoms: N_11  and  C_12
REMARK    4  A    between atoms: C_12  and  C_13
REMARK    5  A    between atoms: C_13  and  O_14
REMARK    6  A    between atoms: C_13  and  C_15
REMARK                            x       y       z     vdW  Elec       q    Type
REMARK                         _______ _______ _______ _____ _____    ______ ____
ROOT
ATOM      1  C   UNL     1       6.017   6.027  15.930  0.00  0.00    +0.000 C 
ATOM      2  C   UNL     1       7.194   6.055  16.915  0.00  0.00    +0.000 C 
ATOM      3  C   UNL     1       7.385   4.707  17.605  0.00  0.00    +0.000 C 
ATOM      4  C   UNL     1       6.086   4.147  18.196  0.00  0.00    +0.000 C 
ATOM      5  N   UNL     1       4.973   4.155  17.241  0.00  0.00    +0.000 NA
ATOM      6  C   UNL     1       4.765   5.506  16.671  0.00  0.00    +0.000 C 
ENDROOT
BRANCH   1   9
ATOM      7  C   UNL     1       6.212   3.788  12.979  0.00  0.00    +0.000 A 
ATOM      8  C   UNL     1       5.484   4.298  14.024  0.00  0.00    +0.000 A 
ATOM      9  C   UNL     1       6.326   5.221  14.689  0.00  0.00    +0.000 A 
ATOM     10  N   UNL     1       7.516   5.304  14.079  0.00  0.00    +0.000 NA
ATOM     11  N   UNL     1       7.417   4.431  13.054  0.00  0.00    +0.000 N 
ATOM     12  H   UNL     1       8.212   4.306  12.436  0.00  0.00    +0.000 HD
BRANCH   7  14
ATOM     13  N   UNL     1       6.914   1.980  11.626  0.00  0.00    +0.000 N 
ATOM     14  C   UNL     1       5.889   2.804  11.991  0.00  0.00    +0.000 C 
ATOM     15  O   UNL     1       4.778   2.687  11.488  0.00  0.00    +0.000 OA
ATOM     16  H   UNL     1       6.736   1.288  10.913  0.00  0.00    +0.000 HD
ATOM     17  H   UNL     1       7.847   2.054  12.003  0.00  0.00    +0.000 HD
ENDBRANCH   7  14
ENDBRANCH   1   9
BRANCH   5  18
ATOM     18  C   UNL     1       3.702   3.610  17.758  0.00  0.00    +0.000 C 
BRANCH  18  19
ATOM     19  C   UNL     1       2.441   4.518  17.627  0.00  0.00    +0.000 C 
BRANCH  19  20
ATOM     20  C   UNL     1       2.222   5.546  18.721  0.00  0.00    +0.000 A 
ATOM     21  C   UNL     1       2.288   6.911  18.378  0.00  0.00    +0.000 A 
ATOM     22  C   UNL     1       2.002   7.907  19.316  0.00  0.00    +0.000 A 
ATOM     23  C   UNL     1       1.659   7.559  20.619  0.00  0.00    +0.000 A 
ATOM     24  C   UNL     1       1.621   6.217  20.985  0.00  0.00    +0.000 A 
ATOM     25  C   UNL     1       1.904   5.229  20.045  0.00  0.00    +0.000 A 
ATOM     26  F   UNL     1       1.834   3.955  20.455  0.00  0.00    +0.000 F 
ENDBRANCH  19  20
BRANCH  19  27
ATOM     27  O   UNL     1       1.243   3.729  17.608  0.00  0.00    +0.000 OA
ATOM     28  H   UNL     1       0.993   3.631  16.674  0.00  0.00    +0.000 HD
ENDBRANCH  19  27
ENDBRANCH  18  19
ENDBRANCH   5  18
TORSDOF 6
ENDMDL
MODEL 7
REMARK VINA RESULT:      -7.8      1.454      1.744
REMARK  Name = 
REMARK  6 active torsions:
REMARK  status: ('A' for Active; 'I' for Inactive)
REMARK    1  A    between atoms: C_2  and  C_4
REMARK    2  A    between atoms: C_6  and  C_7
REMARK    3  A    between atoms: N_11  and  C_12
REMARK    4  A    between atoms: C_12  and  C_13
REMARK    5  A    between atoms: C_13  and  O_14
REMARK    6  A    between atoms: C_13  and  C_15
REMARK                            x       y       z     vdW  Elec       q    Type
REMARK                         _______ _______ _______ _____ _____    ______ ____
ROOT
ATOM      1  C   UNL     1       5.306   6.132  16.852  0.00  0.00    +0.000 C 
ATOM      2  C   UNL     1       6.466   7.097  17.138  0.00  0.00    +0.000 C 
ATOM      3  C   UNL     1       7.586   6.416  17.920  0.00  0.00    +0.000 C 
ATOM      4  C   UNL     1       7.080   5.658  19.154  0.00  0.00    +0.000 C 
ATOM      5  N   UNL     1       5.958   4.763  18.855  0.00  0.00    +0.000 NA
ATOM      6  C   UNL     1       4.857   5.490  18.183  0.00  0.00    +0.000 C 
ENDROOT
BRANCH   1   9
ATOM      7  C   UNL     1       6.231   4.082  13.902  0.00  0.00    +0.000 A 
ATOM      8  C   UNL     1       6.054   5.319  14.466  0.00  0.00    +0.000 A 
ATOM      9  C   UNL     1       5.664   5.098  15.808  0.00  0.00    +0.000 A 
ATOM     10  N   UNL     1       5.621   3.786  16.081  0.00  0.00    +0.000 NA
ATOM     11  N   UNL     1       5.968   3.201  14.914  0.00  0.00    +0.000 N 
ATOM     12  H   UNL     1       6.001   2.188  14.863  0.00  0.00    +0.000 HD
BRANCH   7  14
ATOM     13  N   UNL     1       6.068   2.506  12.146  0.00  0.00    +0.000 N 
ATOM     14  C   UNL     1       6.594   3.690  12.573  0.00  0.00    +0.000 C 
ATOM     15  O   UNL     1       7.326   4.352  11.847  0.00  0.00    +0.000 OA
ATOM     16  H   UNL     1       6.319   2.179  11.225  0.00  0.00    +0.000 HD
ATOM     17  H   UNL     1       5.475   1.923  12.719  0.00  0.00    +0.000 HD
ENDBRANCH   7  14
ENDBRANCH   1   9
BRANCH   5  18
ATOM     18  C   UNL     1       5.445   3.997  20.008  0.00  0.00    +0.000 C 
BRANCH  18  19
ATOM     19  C   UNL     1       4.687   2.671  19.692  0.00  0.00    +0.000 C 
BRANCH  19  20
ATOM     20  C   UNL     1       3.174   2.748  19.624  0.00  0.00    +0.000 A 
ATOM     21  C   UNL     1       2.545   2.469  18.394  0.00  0.00    +0.000 A 
ATOM     22  C   UNL     1       1.152   2.428  18.286  0.00  0.00    +0.000 A 
ATOM     23  C   UNL     1       0.360   2.680  19.402  0.00  0.00    +0.000 A 
ATOM     24  C   UNL     1       0.962   2.990  20.618  0.00  0.00    +0.000 A 
ATOM     25  C   UNL     1       2.351   3.025  20.719  0.00  0.00    +0.000 A 
ATOM     26  F   UNL     1       2.870   3.312  21.921  0.00  0.00    +0.000 F 
ENDBRANCH  19  20
BRANCH  19  27
ATOM     27  O   UNL     1       4.969   1.673  20.684  0.00  0.00    +0.000 OA
ATOM     28  H   UNL     1       5.197   2.152  21.498  0.00  0.00    +0.000 HD
ENDBRANCH  19  27
ENDBRANCH  18  19
ENDBRANCH   5  18
TORSDOF 6
ENDMDL
MODEL 8
REMARK VINA RESULT:      -7.8      2.234      2.619
REMARK  Name = 
REMARK  6 active torsions:
REMARK  status: ('A' for Active; 'I' for Inactive)
REMARK    1  A    between atoms: C_2  and  C_4
REMARK    2  A    between atoms: C_6  and  C_7
REMARK    3  A    between atoms: N_11  and  C_12
REMARK    4  A    between atoms: C_12  and  C_13
REMARK    5  A    between atoms: C_13  and  O_14
REMARK    6  A    between atoms: C_13  and  C_15
REMARK                            x       y       z     vdW  Elec       q    Type
REMARK                         _______ _______ _______ _____ _____    ______ ____
ROOT
ATOM      1  C   UNL     1       6.769   6.312  16.704  0.00  0.00    +0.000 C 
ATOM      2  C   UNL     1       7.609   5.610  17.780  0.00  0.00    +0.000 C 
ATOM      3  C   UNL     1       6.769   4.641  18.608  0.00  0.00    +0.000 C 
ATOM      4  C   UNL     1       5.473   5.271  19.134  0.00  0.00    +0.000 C 
ATOM      5  N   UNL     1       4.705   5.955  18.089  0.00  0.00    +0.000 NA
ATOM      6  C   UNL     1       5.536   6.953  17.379  0.00  0.00    +0.000 C 
ENDROOT
BRANCH   1   9
ATOM      7  C   UNL     1       6.369   4.210  13.674  0.00  0.00    +0.000 A 
ATOM      8  C   UNL     1       7.145   5.054  14.426  0.00  0.00    +0.000 A 
ATOM      9  C   UNL     1       6.387   5.381  15.575  0.00  0.00    +0.000 A 
ATOM     10  N   UNL     1       5.202   4.755  15.557  0.00  0.00    +0.000 NA
ATOM     11  N   UNL     1       5.221   4.058  14.401  0.00  0.00    +0.000 N 
ATOM     12  H   UNL     1       4.413   3.496  14.152  0.00  0.00    +0.000 HD
BRANCH   7  14
ATOM     13  N   UNL     1       5.947   2.408  12.201  0.00  0.00    +0.000 N 
ATOM     14  C   UNL     1       6.604   3.587  12.406  0.00  0.00    +0.000 C 
ATOM     15  O   UNL     1       7.339   4.055  11.546  0.00  0.00    +0.000 OA
ATOM     16  H   UNL     1       6.103   1.922  11.331  0.00  0.00    +0.000 HD
ATOM     17  H   UNL     1       5.345   1.981  12.890  0.00  0.00    +0.000 HD
ENDBRANCH   7  14
ENDBRANCH   1   9
BRANCH   5  18
ATOM     18  C   UNL     1       3.438   6.564  18.543  0.00  0.00    +0.000 C 
BRANCH  18  19
ATOM     19  C   UNL     1       2.839   6.032  19.880  0.00  0.00    +0.000 C 
BRANCH  19  20
ATOM     20  C   UNL     1       2.095   4.712  19.818  0.00  0.00    +0.000 A 
ATOM     21  C   UNL     1       1.596   4.283  18.572  0.00  0.00    +0.000 A 
ATOM     22  C   UNL     1       0.986   3.034  18.428  0.00  0.00    +0.000 A 
ATOM     23  C   UNL     1       0.847   2.195  19.529  0.00  0.00    +0.000 A 
ATOM     24  C   UNL     1       1.304   2.615  20.776  0.00  0.00    +0.000 A 
ATOM     25  C   UNL     1       1.915   3.859  20.912  0.00  0.00    +0.000 A 
ATOM     26  F   UNL     1       2.348   4.199  22.134  0.00  0.00    +0.000 F 
ENDBRANCH  19  20
BRANCH  19  27
ATOM     27  O   UNL     1       1.900   6.968  20.427  0.00  0.00    +0.000 OA
ATOM     28  H   UNL     1       1.939   6.865  21.392  0.00  0.00    +0.000 HD
ENDBRANCH  19  27
ENDBRANCH  18  19
ENDBRANCH   5  18
TORSDOF 6
ENDMDL
MODEL 9
REMARK VINA RESULT:      -7.7      1.913      2.390
REMARK  Name = 
REMARK  6 active torsions:
REMARK  status: ('A' for Active; 'I' for Inactive)
REMARK    1  A    between atoms: C_2  and  C_4
REMARK    2  A    between atoms: C_6  and  C_7
REMARK    3  A    between atoms: N_11  and  C_12
REMARK    4  A    between atoms: C_12  and  C_13
REMARK    5  A    between atoms: C_13  and  O_14
REMARK    6  A    between atoms: C_13  and  C_15
REMARK                            x       y       z     vdW  Elec       q    Type
REMARK                         _______ _______ _______ _____ _____    ______ ____
ROOT
ATOM      1  C   UNL     1       6.141   6.501  16.646  0.00  0.00    +0.000 C 
ATOM      2  C   UNL     1       6.945   6.232  17.926  0.00  0.00    +0.000 C 
ATOM      3  C   UNL     1       6.257   5.203  18.819  0.00  0.00    +0.000 C 
ATOM      4  C   UNL     1       4.775   5.517  19.062  0.00  0.00    +0.000 C 
ATOM      5  N   UNL     1       4.039   5.793  17.824  0.00  0.00    +0.000 NA
ATOM      6  C   UNL     1       4.692   6.865  17.039  0.00  0.00    +0.000 C 
ENDROOT
BRANCH   1   9
ATOM      7  C   UNL     1       5.935   4.020  13.896  0.00  0.00    +0.000 A 
ATOM      8  C   UNL     1       5.682   5.285  14.361  0.00  0.00    +0.000 A 
ATOM      9  C   UNL     1       6.198   5.341  15.677  0.00  0.00    +0.000 A 
ATOM     10  N   UNL     1       6.769   4.176  16.015  0.00  0.00    +0.000 NA
ATOM     11  N   UNL     1       6.594   3.401  14.922  0.00  0.00    +0.000 N 
ATOM     12  H   UNL     1       6.942   2.448  14.935  0.00  0.00    +0.000 HD
BRANCH   7  14
ATOM     13  N   UNL     1       6.572   2.546  12.160  0.00  0.00    +0.000 N 
ATOM     14  C   UNL     1       5.617   3.387  12.651  0.00  0.00    +0.000 C 
ATOM     15  O   UNL     1       4.568   3.571  12.045  0.00  0.00    +0.000 OA
ATOM     16  H   UNL     1       6.400   2.099  11.271  0.00  0.00    +0.000 HD
ATOM     17  H   UNL     1       7.456   2.380  12.619  0.00  0.00    +0.000 HD
ENDBRANCH   7  14
ENDBRANCH   1   9
BRANCH   5  18
ATOM     18  C   UNL     1       2.602   6.085  18.003  0.00  0.00    +0.000 C 
BRANCH  18  19
ATOM     19  C   UNL     1       1.634   4.863  18.037  0.00  0.00    +0.000 C 
BRANCH  19  20
ATOM     20  C   UNL     1       1.671   3.995  19.280  0.00  0.00    +0.000 A 
ATOM     21  C   UNL     1       1.909   2.615  19.126  0.00  0.00    +0.000 A 
ATOM     22  C   UNL     1       2.051   1.776  20.234  0.00  0.00    +0.000 A 
ATOM     23  C   UNL     1       1.942   2.297  21.520  0.00  0.00    +0.000 A 
ATOM     24  C   UNL     1       1.675   3.652  21.693  0.00  0.00    +0.000 A 
ATOM     25  C   UNL     1       1.539   4.483  20.584  0.00  0.00    +0.000 A 
ATOM     26  F   UNL     1       1.299   5.781  20.817  0.00  0.00    +0.000 F 
ENDBRANCH  19  20
BRANCH  19  27
ATOM     27  O   UNL     1       1.902   3.970  16.947  0.00  0.00    +0.000 OA
ATOM     28  H   UNL     1       1.050   3.570  16.704  0.00  0.00    +0.000 HD
ENDBRANCH  19  27
ENDBRANCH  18  19
ENDBRANCH   5  18
TORSDOF 6
ENDMDL
