MODEL 1
REMARK VINA RESULT:      -6.3      0.000      0.000
REMARK  Name = 
REMARK  5 active torsions:
REMARK  status: ('A' for Active; 'I' for Inactive)
REMARK    1  A    between atoms: C_1  and  C_2
REMARK    2  A    between atoms: C_5  and  C_6
REMARK    3  A    between atoms: C_6  and  N_7
REMARK    4  A    between atoms: C_8  and  C_10
REMARK    5  A    between atoms: C_10  and  C_11
REMARK                            x       y       z     vdW  Elec       q    Type
REMARK                         _______ _______ _______ _____ _____    ______ ____
ROOT
ATOM      1  N   UNL     1       4.143   4.418  19.349  0.00  0.00    +0.000 N 
ATOM      2  C   UNL     1       3.895   3.158  19.828  0.00  0.00    +0.000 C 
ATOM      3  O   UNL     1       4.739   2.281  19.936  0.00  0.00    +0.000 OA
ATOM      4  H   UNL     1       3.459   5.155  19.471  0.00  0.00    +0.000 HD
ENDROOT
BRANCH   2   5
ATOM      5  C   UNL     1       2.482   2.913  20.250  0.00  0.00    +0.000 C 
ATOM      6  C   UNL     1       1.663   2.009  19.366  0.00  0.00    +0.000 C 
ATOM      7  C   UNL     1       2.153   2.959  21.736  0.00  0.00    +0.000 C 
ATOM      8  C   UNL     1       1.763   4.098  20.855  0.00  0.00    +0.000 C 
ATOM      9  F   UNL     1       0.412   4.248  20.596  0.00  0.00    +0.000 F 
ENDBRANCH   2   5
BRANCH   1  10
ATOM     10  C   UNL     1       5.492   4.799  18.988  0.00  0.00    +0.000 C 
BRANCH  10  15
ATOM     11  C   UNL     1       6.261   3.918  14.174  0.00  0.00    +0.000 C 
ATOM     12  C   UNL     1       5.893   4.760  15.340  0.00  0.00    +0.000 A 
ATOM     13  C   UNL     1       5.481   6.079  15.312  0.00  0.00    +0.000 A 
ATOM     14  S   UNL     1       5.153   6.623  16.903  0.00  0.00    +0.000 S 
ATOM     15  C   UNL     1       5.585   5.073  17.517  0.00  0.00    +0.000 A 
ATOM     16  N   UNL     1       5.956   4.193  16.605  0.00  0.00    +0.000 NA
ENDBRANCH  10  15
ENDBRANCH   1  10
TORSDOF 3
ENDMDL
MODEL 2
REMARK VINA RESULT:      -6.2      1.055      1.166
REMARK  Name = 
REMARK  5 active torsions:
REMARK  status: ('A' for Active; 'I' for Inactive)
REMARK    1  A    between atoms: C_1  and  C_2
REMARK    2  A    between atoms: C_5  and  C_6
REMARK    3  A    between atoms: C_6  and  N_7
REMARK    4  A    between atoms: C_8  and  C_10
REMARK    5  A    between atoms: C_10  and  C_11
REMARK                            x       y       z     vdW  Elec       q    Type
REMARK                         _______ _______ _______ _____ _____    ______ ____
ROOT
ATOM      1  N   UNL     1       4.000   4.718  19.476  0.00  0.00    +0.000 N 
ATOM      2  C   UNL     1       3.867   3.411  19.869  0.00  0.00    +0.000 C 
ATOM      3  O   UNL     1       4.801   2.644  20.044  0.00  0.00    +0.000 OA
ATOM      4  H   UNL     1       3.215   5.355  19.543  0.00  0.00    +0.000 HD
ENDROOT
BRANCH   2   5
ATOM      5  C   UNL     1       2.459   2.967  20.104  0.00  0.00    +0.000 C 
ATOM      6  C   UNL     1       1.866   2.040  19.075  0.00  0.00    +0.000 C 
ATOM      7  C   UNL     1       1.965   2.860  21.541  0.00  0.00    +0.000 C 
ATOM      8  C   UNL     1       1.532   4.007  20.691  0.00  0.00    +0.000 C 
ATOM      9  F   UNL     1       0.210   4.012  20.283  0.00  0.00    +0.000 F 
ENDBRANCH   2   5
BRANCH   1  10
ATOM     10  C   UNL     1       5.320   5.286  19.299  0.00  0.00    +0.000 C 
BRANCH  10  15
ATOM     11  C   UNL     1       5.293   4.431  14.420  0.00  0.00    +0.000 C 
ATOM     12  C   UNL     1       5.934   4.579  15.750  0.00  0.00    +0.000 A 
ATOM     13  C   UNL     1       7.283   4.479  16.036  0.00  0.00    +0.000 A 
ATOM     14  S   UNL     1       7.547   4.739  17.709  0.00  0.00    +0.000 S 
ATOM     15  C   UNL     1       5.854   4.960  17.937  0.00  0.00    +0.000 A 
ATOM     16  N   UNL     1       5.122   4.847  16.843  0.00  0.00    +0.000 NA
ENDBRANCH  10  15
ENDBRANCH   1  10
TORSDOF 3
ENDMDL
MODEL 3
REMARK VINA RESULT:      -6.0      0.897      1.383
REMARK  Name = 
REMARK  5 active torsions:
REMARK  status: ('A' for Active; 'I' for Inactive)
REMARK    1  A    between atoms: C_1  and  C_2
REMARK    2  A    between atoms: C_5  and  C_6
REMARK    3  A    between atoms: C_6  and  N_7
REMARK    4  A    between atoms: C_8  and  C_10
REMARK    5  A    between atoms: C_10  and  C_11
REMARK                            x       y       z     vdW  Elec       q    Type
REMARK                         _______ _______ _______ _____ _____    ______ ____
ROOT
ATOM      1  N   UNL     1       4.293   4.766  19.492  0.00  0.00    +0.000 N 
ATOM      2  C   UNL     1       3.509   3.644  19.425  0.00  0.00    +0.000 C 
ATOM      3  O   UNL     1       3.845   2.598  18.890  0.00  0.00    +0.000 OA
ATOM      4  H   UNL     1       4.046   5.526  20.115  0.00  0.00    +0.000 HD
ENDROOT
BRANCH   2   5
ATOM      5  C   UNL     1       2.176   3.769  20.089  0.00  0.00    +0.000 C 
ATOM      6  C   UNL     1       1.906   5.059  20.818  0.00  0.00    +0.000 C 
ATOM      7  C   UNL     1       0.994   3.021  19.485  0.00  0.00    +0.000 C 
ATOM      8  C   UNL     1       1.640   2.507  20.728  0.00  0.00    +0.000 C 
ATOM      9  F   UNL     1       0.913   2.623  21.899  0.00  0.00    +0.000 F 
ENDBRANCH   2   5
BRANCH   1  10
ATOM     10  C   UNL     1       5.638   4.740  18.957  0.00  0.00    +0.000 C 
BRANCH  10  15
ATOM     11  C   UNL     1       6.148   3.969  14.090  0.00  0.00    +0.000 C 
ATOM     12  C   UNL     1       5.813   4.774  15.291  0.00  0.00    +0.000 A 
ATOM     13  C   UNL     1       5.336   6.072  15.312  0.00  0.00    +0.000 A 
ATOM     14  S   UNL     1       5.082   6.576  16.929  0.00  0.00    +0.000 S 
ATOM     15  C   UNL     1       5.625   5.040  17.488  0.00  0.00    +0.000 A 
ATOM     16  N   UNL     1       5.982   4.193  16.540  0.00  0.00    +0.000 NA
ENDBRANCH  10  15
ENDBRANCH   1  10
TORSDOF 3
ENDMDL
MODEL 4
REMARK VINA RESULT:      -6.0      1.596      1.979
REMARK  Name = 
REMARK  5 active torsions:
REMARK  status: ('A' for Active; 'I' for Inactive)
REMARK    1  A    between atoms: C_1  and  C_2
REMARK    2  A    between atoms: C_5  and  C_6
REMARK    3  A    between atoms: C_6  and  N_7
REMARK    4  A    between atoms: C_8  and  C_10
REMARK    5  A    between atoms: C_10  and  C_11
REMARK                            x       y       z     vdW  Elec       q    Type
REMARK                         _______ _______ _______ _____ _____    ______ ____
ROOT
ATOM      1  N   UNL     1       3.904   3.861  19.361  0.00  0.00    +0.000 N 
ATOM      2  C   UNL     1       3.206   2.681  19.382  0.00  0.00    +0.000 C 
ATOM      3  O   UNL     1       3.679   1.594  19.086  0.00  0.00    +0.000 OA
ATOM      4  H   UNL     1       3.523   4.688  19.805  0.00  0.00    +0.000 HD
ENDROOT
BRANCH   2   5
ATOM      5  C   UNL     1       1.785   2.801  19.828  0.00  0.00    +0.000 C 
ATOM      6  C   UNL     1       0.731   2.401  18.829  0.00  0.00    +0.000 C 
ATOM      7  C   UNL     1       1.476   2.629  21.310  0.00  0.00    +0.000 C 
ATOM      8  C   UNL     1       1.469   3.992  20.704  0.00  0.00    +0.000 C 
ATOM      9  F   UNL     1       0.236   4.602  20.562  0.00  0.00    +0.000 F 
ENDBRANCH   2   5
BRANCH   1  10
ATOM     10  C   UNL     1       5.312   3.860  19.026  0.00  0.00    +0.000 C 
BRANCH  10  15
ATOM     11  C   UNL     1       7.839   7.885  17.629  0.00  0.00    +0.000 C 
ATOM     12  C   UNL     1       6.746   6.887  17.525  0.00  0.00    +0.000 A 
ATOM     13  C   UNL     1       5.756   6.840  16.561  0.00  0.00    +0.000 A 
ATOM     14  S   UNL     1       4.728   5.499  16.844  0.00  0.00    +0.000 S 
ATOM     15  C   UNL     1       5.664   5.079  18.227  0.00  0.00    +0.000 A 
ATOM     16  N   UNL     1       6.683   5.880  18.478  0.00  0.00    +0.000 NA
ENDBRANCH  10  15
ENDBRANCH   1  10
TORSDOF 3
ENDMDL
MODEL 5
REMARK VINA RESULT:      -6.0      1.667      2.299
REMARK  Name = 
REMARK  5 active torsions:
REMARK  status: ('A' for Active; 'I' for Inactive)
REMARK    1  A    between atoms: C_1  and  C_2
REMARK    2  A    between atoms: C_5  and  C_6
REMARK    3  A    between atoms: C_6  and  N_7
REMARK    4  A    between atoms: C_8  and  C_10
REMARK    5  A    between atoms: C_10  and  C_11
REMARK                            x       y       z     vdW  Elec       q    Type
REMARK                         _______ _______ _______ _____ _____    ______ ____
ROOT
ATOM      1  N   UNL     1       3.374   3.661  17.900  0.00  0.00    +0.000 N 
ATOM      2  C   UNL     1       3.055   2.616  18.728  0.00  0.00    +0.000 C 
ATOM      3  O   UNL     1       3.622   1.534  18.724  0.00  0.00    +0.000 OA
ATOM      4  H   UNL     1       3.011   4.589  18.084  0.00  0.00    +0.000 HD
ENDROOT
BRANCH   2   5
ATOM      5  C   UNL     1       1.947   2.895  19.692  0.00  0.00    +0.000 C 
ATOM      6  C   UNL     1       0.555   2.540  19.237  0.00  0.00    +0.000 C 
ATOM      7  C   UNL     1       2.254   2.839  21.183  0.00  0.00    +0.000 C 
ATOM      8  C   UNL     1       2.089   4.160  20.508  0.00  0.00    +0.000 C 
ATOM      9  F   UNL     1       0.944   4.874  20.815  0.00  0.00    +0.000 F 
ENDBRANCH   2   5
BRANCH   1  10
ATOM     10  C   UNL     1       4.485   3.539  16.981  0.00  0.00    +0.000 C 
BRANCH  10  15
ATOM     11  C   UNL     1       8.087   5.715  19.595  0.00  0.00    +0.000 C 
ATOM     12  C   UNL     1       7.195   5.554  18.420  0.00  0.00    +0.000 A 
ATOM     13  C   UNL     1       7.192   6.322  17.270  0.00  0.00    +0.000 A 
ATOM     14  S   UNL     1       5.993   5.750  16.187  0.00  0.00    +0.000 S 
ATOM     15  C   UNL     1       5.560   4.527  17.321  0.00  0.00    +0.000 A 
ATOM     16  N   UNL     1       6.255   4.534  18.444  0.00  0.00    +0.000 NA
ENDBRANCH  10  15
ENDBRANCH   1  10
TORSDOF 3
ENDMDL
MODEL 6
REMARK VINA RESULT:      -6.0      1.113      1.113
REMARK  Name = 
REMARK  5 active torsions:
REMARK  status: ('A' for Active; 'I' for Inactive)
REMARK    1  A    between atoms: C_1  and  C_2
REMARK    2  A    between atoms: C_5  and  C_6
REMARK    3  A    between atoms: C_6  and  N_7
REMARK    4  A    between atoms: C_8  and  C_10
REMARK    5  A    between atoms: C_10  and  C_11
REMARK                            x       y       z     vdW  Elec       q    Type
REMARK                         _______ _______ _______ _____ _____    ______ ____
ROOT
ATOM      1  N   UNL     1       4.976   3.768  19.229  0.00  0.00    +0.000 N 
ATOM      2  C   UNL     1       3.748   4.212  19.644  0.00  0.00    +0.000 C 
ATOM      3  O   UNL     1       3.440   5.389  19.754  0.00  0.00    +0.000 OA
ATOM      4  H   UNL     1       5.107   2.798  18.966  0.00  0.00    +0.000 HD
ENDROOT
BRANCH   2   5
ATOM      5  C   UNL     1       2.759   3.133  19.945  0.00  0.00    +0.000 C 
ATOM      6  C   UNL     1       2.738   1.958  19.002  0.00  0.00    +0.000 C 
ATOM      7  C   UNL     1       2.363   2.899  21.397  0.00  0.00    +0.000 C 
ATOM      8  C   UNL     1       1.421   3.597  20.475  0.00  0.00    +0.000 C 
ATOM      9  F   UNL     1       0.288   2.898  20.098  0.00  0.00    +0.000 F 
ENDBRANCH   2   5
BRANCH   1  10
ATOM     10  C   UNL     1       5.990   4.720  18.829  0.00  0.00    +0.000 C 
BRANCH  10  15
ATOM     11  C   UNL     1       6.245   3.980  13.938  0.00  0.00    +0.000 C 
ATOM     12  C   UNL     1       5.949   4.769  15.159  0.00  0.00    +0.000 A 
ATOM     13  C   UNL     1       5.425   6.047  15.214  0.00  0.00    +0.000 A 
ATOM     14  S   UNL     1       5.246   6.537  16.846  0.00  0.00    +0.000 S 
ATOM     15  C   UNL     1       5.881   5.023  17.365  0.00  0.00    +0.000 A 
ATOM     16  N   UNL     1       6.213   4.192  16.394  0.00  0.00    +0.000 NA
ENDBRANCH  10  15
ENDBRANCH   1  10
TORSDOF 3
ENDMDL
MODEL 7
REMARK VINA RESULT:      -6.0      3.283      6.010
REMARK  Name = 
REMARK  5 active torsions:
REMARK  status: ('A' for Active; 'I' for Inactive)
REMARK    1  A    between atoms: C_1  and  C_2
REMARK    2  A    between atoms: C_5  and  C_6
REMARK    3  A    between atoms: C_6  and  N_7
REMARK    4  A    between atoms: C_8  and  C_10
REMARK    5  A    between atoms: C_10  and  C_11
REMARK                            x       y       z     vdW  Elec       q    Type
REMARK                         _______ _______ _______ _____ _____    ______ ____
ROOT
ATOM      1  N   UNL     1       4.613   5.799  18.547  0.00  0.00    +0.000 N 
ATOM      2  C   UNL     1       5.312   6.092  17.405  0.00  0.00    +0.000 C 
ATOM      3  O   UNL     1       4.810   6.530  16.381  0.00  0.00    +0.000 OA
ATOM      4  H   UNL     1       5.103   5.633  19.419  0.00  0.00    +0.000 HD
ENDROOT
BRANCH   2   5
ATOM      5  C   UNL     1       6.786   5.862  17.495  0.00  0.00    +0.000 C 
ATOM      6  C   UNL     1       7.333   4.698  16.710  0.00  0.00    +0.000 C 
ATOM      7  C   UNL     1       7.693   7.063  17.731  0.00  0.00    +0.000 C 
ATOM      8  C   UNL     1       7.409   6.116  18.849  0.00  0.00    +0.000 C 
ATOM      9  F   UNL     1       8.453   5.303  19.254  0.00  0.00    +0.000 F 
ENDBRANCH   2   5
BRANCH   1  10
ATOM     10  C   UNL     1       3.190   6.060  18.609  0.00  0.00    +0.000 C 
BRANCH  10  15
ATOM     11  C   UNL     1       1.440   2.607  21.699  0.00  0.00    +0.000 C 
ATOM     12  C   UNL     1       1.612   3.257  20.377  0.00  0.00    +0.000 A 
ATOM     13  C   UNL     1       1.042   2.865  19.180  0.00  0.00    +0.000 A 
ATOM     14  S   UNL     1       1.518   3.932  17.927  0.00  0.00    +0.000 S 
ATOM     15  C   UNL     1       2.450   4.837  19.058  0.00  0.00    +0.000 A 
ATOM     16  N   UNL     1       2.421   4.382  20.298  0.00  0.00    +0.000 NA
ENDBRANCH  10  15
ENDBRANCH   1  10
TORSDOF 3
ENDMDL
MODEL 8
REMARK VINA RESULT:      -5.9      1.901      2.206
REMARK  Name = 
REMARK  5 active torsions:
REMARK  status: ('A' for Active; 'I' for Inactive)
REMARK    1  A    between atoms: C_1  and  C_2
REMARK    2  A    between atoms: C_5  and  C_6
REMARK    3  A    between atoms: C_6  and  N_7
REMARK    4  A    between atoms: C_8  and  C_10
REMARK    5  A    between atoms: C_10  and  C_11
REMARK                            x       y       z     vdW  Elec       q    Type
REMARK                         _______ _______ _______ _____ _____    ______ ____
ROOT
ATOM      1  N   UNL     1       3.613   5.205  18.948  0.00  0.00    +0.000 N 
ATOM      2  C   UNL     1       2.450   4.551  18.632  0.00  0.00    +0.000 C 
ATOM      3  O   UNL     1       1.817   4.728  17.603  0.00  0.00    +0.000 OA
ATOM      4  H   UNL     1       4.193   4.875  19.711  0.00  0.00    +0.000 HD
ENDROOT
BRANCH   2   5
ATOM      5  C   UNL     1       1.995   3.553  19.647  0.00  0.00    +0.000 C 
ATOM      6  C   UNL     1       0.774   3.920  20.451  0.00  0.00    +0.000 C 
ATOM      7  C   UNL     1       2.268   2.078  19.384  0.00  0.00    +0.000 C 
ATOM      8  C   UNL     1       3.092   2.818  20.383  0.00  0.00    +0.000 C 
ATOM      9  F   UNL     1       2.889   2.498  21.714  0.00  0.00    +0.000 F 
ENDBRANCH   2   5
BRANCH   1  10
ATOM     10  C   UNL     1       4.197   6.134  18.005  0.00  0.00    +0.000 C 
BRANCH  10  15
ATOM     11  C   UNL     1       6.199   3.989  14.014  0.00  0.00    +0.000 C 
ATOM     12  C   UNL     1       6.206   4.488  15.411  0.00  0.00    +0.000 A 
ATOM     13  C   UNL     1       7.268   4.461  16.296  0.00  0.00    +0.000 A 
ATOM     14  S   UNL     1       6.804   5.163  17.789  0.00  0.00    +0.000 S 
ATOM     15  C   UNL     1       5.227   5.448  17.159  0.00  0.00    +0.000 A 
ATOM     16  N   UNL     1       5.040   5.047  15.915  0.00  0.00    +0.000 NA
ENDBRANCH  10  15
ENDBRANCH   1  10
TORSDOF 3
ENDMDL
MODEL 9
REMARK VINA RESULT:      -5.9      2.962      5.837
REMARK  Name = 
REMARK  5 active torsions:
REMARK  status: ('A' for Active; 'I' for Inactive)
REMARK    1  A    between atoms: C_1  and  C_2
REMARK    2  A    between atoms: C_5  and  C_6
REMARK    3  A    between atoms: C_6  and  N_7
REMARK    4  A    between atoms: C_8  and  C_10
REMARK    5  A    between atoms: C_10  and  C_11
REMARK                            x       y       z     vdW  Elec       q    Type
REMARK                         _______ _______ _______ _____ _____    ______ ____
ROOT
ATOM      1  N   UNL     1       4.691   3.542  17.042  0.00  0.00    +0.000 N 
ATOM      2  C   UNL     1       5.626   4.318  17.676  0.00  0.00    +0.000 C 
ATOM      3  O   UNL     1       6.009   4.138  18.822  0.00  0.00    +0.000 OA
ATOM      4  H   UNL     1       4.564   3.612  16.038  0.00  0.00    +0.000 HD
ENDROOT
BRANCH   2   5
ATOM      5  C   UNL     1       6.191   5.424  16.846  0.00  0.00    +0.000 C 
ATOM      6  C   UNL     1       6.914   5.020  15.587  0.00  0.00    +0.000 C 
ATOM      7  C   UNL     1       5.491   6.777  16.872  0.00  0.00    +0.000 C 
ATOM      8  C   UNL     1       6.772   6.590  17.613  0.00  0.00    +0.000 C 
ATOM      9  F   UNL     1       7.888   7.226  17.096  0.00  0.00    +0.000 F 
ENDBRANCH   2   5
BRANCH   1  10
ATOM     10  C   UNL     1       4.133   2.388  17.715  0.00  0.00    +0.000 C 
BRANCH  10  15
ATOM     11  C   UNL     1       1.430   2.695  21.855  0.00  0.00    +0.000 C 
ATOM     12  C   UNL     1       1.752   3.004  20.440  0.00  0.00    +0.000 A 
ATOM     13  C   UNL     1       1.050   3.843  19.594  0.00  0.00    +0.000 A 
ATOM     14  S   UNL     1       1.811   3.897  18.060  0.00  0.00    +0.000 S 
ATOM     15  C   UNL     1       3.013   2.800  18.622  0.00  0.00    +0.000 A 
ATOM     16  N   UNL     1       2.870   2.406  19.875  0.00  0.00    +0.000 NA
ENDBRANCH  10  15
ENDBRANCH   1  10
TORSDOF 3
ENDMDL
