MODEL 1
REMARK VINA RESULT:      -8.0      0.000      0.000
REMARK  Name = 
REMARK  6 active torsions:
REMARK  status: ('A' for Active; 'I' for Inactive)
REMARK    1  A    between atoms: C_2  and  C_3
REMARK    2  A    between atoms: C_3  and  N_4
REMARK    3  A    between atoms: C_5  and  C_7
REMARK    4  A    between atoms: N_13  and  C_14
REMARK    5  A    between atoms: C_18  and  S_19
REMARK    6  A    between atoms: S_19  and  N_22
REMARK                            x       y       z     vdW  Elec       q    Type
REMARK                         _______ _______ _______ _____ _____    ______ ____
ROOT
ATOM      1  O   UNL     1       8.132   7.022  18.798  0.00  0.00    +0.000 OA
ATOM      2  C   UNL     1       7.855   7.730  17.831  0.00  0.00    +0.000 C 
ATOM      3  N   UNL     1       6.860   7.478  16.892  0.00  0.00    +0.000 N 
ATOM      4  H   UNL     1       6.563   8.277  16.334  0.00  0.00    +0.000 HD
ENDROOT
BRANCH   3   5
ATOM      5  C   UNL     1       6.165   6.256  16.707  0.00  0.00    +0.000 A 
ATOM      6  C   UNL     1       6.591   5.263  15.816  0.00  0.00    +0.000 A 
ATOM      7  C   UNL     1       5.882   4.065  15.670  0.00  0.00    +0.000 A 
ATOM      8  C   UNL     1       4.718   3.846  16.397  0.00  0.00    +0.000 A 
ATOM      9  C   UNL     1       4.236   4.856  17.228  0.00  0.00    +0.000 A 
ATOM     10  C   UNL     1       4.970   6.044  17.413  0.00  0.00    +0.000 A 
BRANCH   9  11
ATOM     11  S   UNL     1       2.720   4.581  18.124  0.00  0.00    +0.000 S 
ATOM     12  O   UNL     1       1.954   5.810  18.040  0.00  0.00    +0.000 OA
ATOM     13  O   UNL     1       2.172   3.326  17.652  0.00  0.00    +0.000 OA
BRANCH  11  14
ATOM     14  N   UNL     1       3.177   4.351  19.727  0.00  0.00    +0.000 NA
ATOM     15  C   UNL     1       4.245   3.401  20.118  0.00  0.00    +0.000 C 
ATOM     16  C   UNL     1       3.665   2.155  20.796  0.00  0.00    +0.000 C 
ATOM     17  O   UNL     1       2.790   2.493  21.881  0.00  0.00    +0.000 OA
ATOM     18  C   UNL     1       1.717   3.341  21.445  0.00  0.00    +0.000 C 
ATOM     19  C   UNL     1       2.244   4.644  20.836  0.00  0.00    +0.000 C 
ENDBRANCH  11  14
ENDBRANCH   9  11
ENDBRANCH   3   5
BRANCH   2  20
ATOM     20  C   UNL     1       8.626   9.035  17.593  0.00  0.00    +0.000 C 
BRANCH  20  21
ATOM     21  N   UNL     1       8.613   9.948  18.714  0.00  0.00    +0.000 N 
ATOM     22  C   UNL     1       9.428  11.054  18.748  0.00  0.00    +0.000 C 
ATOM     23  O   UNL     1      10.095  11.380  17.768  0.00  0.00    +0.000 OA
ATOM     24  H   UNL     1       8.062   9.731  19.541  0.00  0.00    +0.000 HD
BRANCH  22  25
ATOM     25  C   UNL     1       9.443  11.765  20.012  0.00  0.00    +0.000 A 
ATOM     26  C   UNL     1      10.051  12.953  20.379  0.00  0.00    +0.000 A 
ATOM     27  C   UNL     1       9.727  13.180  21.739  0.00  0.00    +0.000 A 
ATOM     28  C   UNL     1       8.949  12.114  22.128  0.00  0.00    +0.000 A 
ATOM     29 BR   UNL     1       8.219  11.887  23.830  0.00  0.00    +0.000 Br
ATOM     30  O   UNL     1       8.778  11.245  21.094  0.00  0.00    +0.000 OA
ENDBRANCH  22  25
ENDBRANCH  20  21
ENDBRANCH   2  20
TORSDOF 6
ENDMDL
MODEL 2
REMARK VINA RESULT:      -7.9      6.907      9.008
REMARK  Name = 
REMARK  6 active torsions:
REMARK  status: ('A' for Active; 'I' for Inactive)
REMARK    1  A    between atoms: C_2  and  C_3
REMARK    2  A    between atoms: C_3  and  N_4
REMARK    3  A    between atoms: C_5  and  C_7
REMARK    4  A    between atoms: N_13  and  C_14
REMARK    5  A    between atoms: C_18  and  S_19
REMARK    6  A    between atoms: S_19  and  N_22
REMARK                            x       y       z     vdW  Elec       q    Type
REMARK                         _______ _______ _______ _____ _____    ______ ____
ROOT
ATOM      1  O   UNL     1      -0.855   8.130  21.892  0.00  0.00    +0.000 OA
ATOM      2  C   UNL     1      -0.219   9.175  22.022  0.00  0.00    +0.000 C 
ATOM      3  N   UNL     1       0.724   9.674  21.131  0.00  0.00    +0.000 N 
ATOM      4  H   UNL     1       0.946  10.665  21.225  0.00  0.00    +0.000 HD
ENDROOT
BRANCH   3   5
ATOM      5  C   UNL     1       1.326   8.970  20.057  0.00  0.00    +0.000 A 
ATOM      6  C   UNL     1       1.315   9.436  18.737  0.00  0.00    +0.000 A 
ATOM      7  C   UNL     1       1.930   8.717  17.707  0.00  0.00    +0.000 A 
ATOM      8  C   UNL     1       2.550   7.502  17.973  0.00  0.00    +0.000 A 
ATOM      9  C   UNL     1       2.502   6.983  19.267  0.00  0.00    +0.000 A 
ATOM     10  C   UNL     1       1.925   7.726  20.315  0.00  0.00    +0.000 A 
BRANCH   9  11
ATOM     11  S   UNL     1       3.265   5.406  19.589  0.00  0.00    +0.000 S 
ATOM     12  O   UNL     1       4.698   5.605  19.499  0.00  0.00    +0.000 OA
ATOM     13  O   UNL     1       2.658   4.883  20.797  0.00  0.00    +0.000 OA
BRANCH  11  14
ATOM     14  N   UNL     1       2.789   4.406  18.322  0.00  0.00    +0.000 NA
ATOM     15  C   UNL     1       1.403   3.896  18.192  0.00  0.00    +0.000 C 
ATOM     16  C   UNL     1       1.322   2.403  18.526  0.00  0.00    +0.000 C 
ATOM     17  O   UNL     1       2.275   1.633  17.781  0.00  0.00    +0.000 OA
ATOM     18  C   UNL     1       3.615   2.099  18.003  0.00  0.00    +0.000 C 
ATOM     19  C   UNL     1       3.772   3.569  17.601  0.00  0.00    +0.000 C 
ENDBRANCH  11  14
ENDBRANCH   9  11
ENDBRANCH   3   5
BRANCH   2  20
ATOM     20  C   UNL     1      -0.455  10.066  23.249  0.00  0.00    +0.000 C 
BRANCH  20  21
ATOM     21  N   UNL     1      -1.746  10.717  23.273  0.00  0.00    +0.000 N 
ATOM     22  C   UNL     1      -1.888  12.041  22.933  0.00  0.00    +0.000 C 
ATOM     23  O   UNL     1      -0.947  12.680  22.465  0.00  0.00    +0.000 OA
ATOM     24  H   UNL     1      -2.558  10.223  23.634  0.00  0.00    +0.000 HD
BRANCH  22  25
ATOM     25  C   UNL     1      -3.202  12.602  23.188  0.00  0.00    +0.000 A 
ATOM     26  C   UNL     1      -3.671  13.375  24.235  0.00  0.00    +0.000 A 
ATOM     27  C   UNL     1      -5.035  13.648  23.967  0.00  0.00    +0.000 A 
ATOM     28  C   UNL     1      -5.323  13.018  22.778  0.00  0.00    +0.000 A 
ATOM     29 BR   UNL     1      -6.983  13.045  21.928  0.00  0.00    +0.000 Br
ATOM     30  O   UNL     1      -4.223  12.372  22.302  0.00  0.00    +0.000 OA
ENDBRANCH  22  25
ENDBRANCH  20  21
ENDBRANCH   2  20
TORSDOF 6
ENDMDL
MODEL 3
REMARK VINA RESULT:      -7.7      5.835      8.489
REMARK  Name = 
REMARK  6 active torsions:
REMARK  status: ('A' for Active; 'I' for Inactive)
REMARK    1  A    between atoms: C_2  and  C_3
REMARK    2  A    between atoms: C_3  and  N_4
REMARK    3  A    between atoms: C_5  and  C_7
REMARK    4  A    between atoms: N_13  and  C_14
REMARK    5  A    between atoms: C_18  and  S_19
REMARK    6  A    between atoms: S_19  and  N_22
REMARK                            x       y       z     vdW  Elec       q    Type
REMARK                         _______ _______ _______ _____ _____    ______ ____
ROOT
ATOM      1  O   UNL     1       2.539   9.139  17.119  0.00  0.00    +0.000 OA
ATOM      2  C   UNL     1       2.019   8.980  18.222  0.00  0.00    +0.000 C 
ATOM      3  N   UNL     1       2.206   7.888  19.064  0.00  0.00    +0.000 N 
ATOM      4  H   UNL     1       1.948   8.030  20.039  0.00  0.00    +0.000 HD
ENDROOT
BRANCH   3   5
ATOM      5  C   UNL     1       2.801   6.648  18.718  0.00  0.00    +0.000 A 
ATOM      6  C   UNL     1       2.555   5.462  19.420  0.00  0.00    +0.000 A 
ATOM      7  C   UNL     1       3.154   4.256  19.040  0.00  0.00    +0.000 A 
ATOM      8  C   UNL     1       4.031   4.217  17.963  0.00  0.00    +0.000 A 
ATOM      9  C   UNL     1       4.350   5.403  17.303  0.00  0.00    +0.000 A 
ATOM     10  C   UNL     1       3.714   6.610  17.652  0.00  0.00    +0.000 A 
BRANCH   9  11
ATOM     11  S   UNL     1       5.508   5.349  15.949  0.00  0.00    +0.000 S 
ATOM     12  O   UNL     1       5.468   4.001  15.415  0.00  0.00    +0.000 OA
ATOM     13  O   UNL     1       5.227   6.494  15.108  0.00  0.00    +0.000 OA
BRANCH  11  14
ATOM     14  N   UNL     1       7.022   5.600  16.639  0.00  0.00    +0.000 NA
ATOM     15  C   UNL     1       7.549   4.743  17.728  0.00  0.00    +0.000 C 
ATOM     16  C   UNL     1       7.546   5.480  19.071  0.00  0.00    +0.000 C 
ATOM     17  O   UNL     1       8.207   6.750  18.988  0.00  0.00    +0.000 OA
ATOM     18  C   UNL     1       7.612   7.587  17.985  0.00  0.00    +0.000 C 
ATOM     19  C   UNL     1       7.667   6.930  16.602  0.00  0.00    +0.000 C 
ENDBRANCH  11  14
ENDBRANCH   9  11
ENDBRANCH   3   5
BRANCH   2  20
ATOM     20  C   UNL     1       1.082  10.055  18.788  0.00  0.00    +0.000 C 
BRANCH  20  21
ATOM     21  N   UNL     1      -0.076  10.329  17.967  0.00  0.00    +0.000 N 
ATOM     22  C   UNL     1      -1.224  10.864  18.501  0.00  0.00    +0.000 C 
ATOM     23  O   UNL     1      -1.258  11.256  19.666  0.00  0.00    +0.000 OA
ATOM     24  H   UNL     1      -0.088  10.041  16.992  0.00  0.00    +0.000 HD
BRANCH  22  25
ATOM     25  C   UNL     1      -2.359  10.904  17.599  0.00  0.00    +0.000 A 
ATOM     26  C   UNL     1      -3.640  11.397  17.772  0.00  0.00    +0.000 A 
ATOM     27  C   UNL     1      -4.333  11.180  16.556  0.00  0.00    +0.000 A 
ATOM     28  C   UNL     1      -3.440  10.559  15.714  0.00  0.00    +0.000 A 
ATOM     29 BR   UNL     1      -3.807  10.041  13.959  0.00  0.00    +0.000 Br
ATOM     30  O   UNL     1      -2.243  10.376  16.337  0.00  0.00    +0.000 OA
ENDBRANCH  22  25
ENDBRANCH  20  21
ENDBRANCH   2  20
TORSDOF 6
ENDMDL
MODEL 4
REMARK VINA RESULT:      -7.7      2.357      2.843
REMARK  Name = 
REMARK  6 active torsions:
REMARK  status: ('A' for Active; 'I' for Inactive)
REMARK    1  A    between atoms: C_2  and  C_3
REMARK    2  A    between atoms: C_3  and  N_4
REMARK    3  A    between atoms: C_5  and  C_7
REMARK    4  A    between atoms: N_13  and  C_14
REMARK    5  A    between atoms: C_18  and  S_19
REMARK    6  A    between atoms: S_19  and  N_22
REMARK                            x       y       z     vdW  Elec       q    Type
REMARK                         _______ _______ _______ _____ _____    ______ ____
ROOT
ATOM      1  O   UNL     1       7.146   8.766  17.039  0.00  0.00    +0.000 OA
ATOM      2  C   UNL     1       7.806   8.126  17.856  0.00  0.00    +0.000 C 
ATOM      3  N   UNL     1       7.861   6.740  17.956  0.00  0.00    +0.000 N 
ATOM      4  H   UNL     1       8.654   6.362  18.474  0.00  0.00    +0.000 HD
ENDROOT
BRANCH   3   5
ATOM      5  C   UNL     1       6.986   5.813  17.334  0.00  0.00    +0.000 A 
ATOM      6  C   UNL     1       6.839   5.717  15.945  0.00  0.00    +0.000 A 
ATOM      7  C   UNL     1       5.973   4.782  15.368  0.00  0.00    +0.000 A 
ATOM      8  C   UNL     1       5.218   3.937  16.173  0.00  0.00    +0.000 A 
ATOM      9  C   UNL     1       5.291   4.072  17.559  0.00  0.00    +0.000 A 
ATOM     10  C   UNL     1       6.196   4.981  18.143  0.00  0.00    +0.000 A 
BRANCH   9  11
ATOM     11  S   UNL     1       4.287   3.013  18.581  0.00  0.00    +0.000 S 
ATOM     12  O   UNL     1       3.821   1.931  17.734  0.00  0.00    +0.000 OA
ATOM     13  O   UNL     1       5.047   2.745  19.785  0.00  0.00    +0.000 OA
BRANCH  11  14
ATOM     14  N   UNL     1       2.959   3.943  19.029  0.00  0.00    +0.000 NA
ATOM     15  C   UNL     1       2.872   4.621  20.344  0.00  0.00    +0.000 C 
ATOM     16  C   UNL     1       1.865   3.928  21.266  0.00  0.00    +0.000 C 
ATOM     17  O   UNL     1       0.587   3.762  20.637  0.00  0.00    +0.000 OA
ATOM     18  C   UNL     1       0.697   3.023  19.411  0.00  0.00    +0.000 C 
ATOM     19  C   UNL     1       1.630   3.721  18.417  0.00  0.00    +0.000 C 
ENDBRANCH  11  14
ENDBRANCH   9  11
ENDBRANCH   3   5
BRANCH   2  20
ATOM     20  C   UNL     1       8.686   8.863  18.874  0.00  0.00    +0.000 C 
BRANCH  20  21
ATOM     21  N   UNL     1       9.315  10.060  18.361  0.00  0.00    +0.000 N 
ATOM     22  C   UNL     1       9.401  11.205  19.117  0.00  0.00    +0.000 C 
ATOM     23  O   UNL     1       9.071  11.209  20.302  0.00  0.00    +0.000 OA
ATOM     24  H   UNL     1       9.621  10.099  17.393  0.00  0.00    +0.000 HD
BRANCH  22  25
ATOM     25  C   UNL     1       9.883  12.374  18.405  0.00  0.00    +0.000 A 
ATOM     26  C   UNL     1      10.885  12.514  17.462  0.00  0.00    +0.000 A 
ATOM     27  C   UNL     1      10.920  13.883  17.098  0.00  0.00    +0.000 A 
ATOM     28  C   UNL     1       9.944  14.501  17.845  0.00  0.00    +0.000 A 
ATOM     29 BR   UNL     1       9.529  16.318  17.769  0.00  0.00    +0.000 Br
ATOM     30  O   UNL     1       9.315  13.600  18.649  0.00  0.00    +0.000 OA
ENDBRANCH  22  25
ENDBRANCH  20  21
ENDBRANCH   2  20
TORSDOF 6
ENDMDL
MODEL 5
REMARK VINA RESULT:      -7.7      6.827      8.525
REMARK  Name = 
REMARK  6 active torsions:
REMARK  status: ('A' for Active; 'I' for Inactive)
REMARK    1  A    between atoms: C_2  and  C_3
REMARK    2  A    between atoms: C_3  and  N_4
REMARK    3  A    between atoms: C_5  and  C_7
REMARK    4  A    between atoms: N_13  and  C_14
REMARK    5  A    between atoms: C_18  and  S_19
REMARK    6  A    between atoms: S_19  and  N_22
REMARK                            x       y       z     vdW  Elec       q    Type
REMARK                         _______ _______ _______ _____ _____    ______ ____
ROOT
ATOM      1  O   UNL     1      -0.897   8.179  21.951  0.00  0.00    +0.000 OA
ATOM      2  C   UNL     1      -0.270   9.231  22.072  0.00  0.00    +0.000 C 
ATOM      3  N   UNL     1       0.660   9.737  21.170  0.00  0.00    +0.000 N 
ATOM      4  H   UNL     1       0.872  10.729  21.260  0.00  0.00    +0.000 HD
ENDROOT
BRANCH   3   5
ATOM      5  C   UNL     1       1.259   9.034  20.093  0.00  0.00    +0.000 A 
ATOM      6  C   UNL     1       1.241   9.502  18.774  0.00  0.00    +0.000 A 
ATOM      7  C   UNL     1       1.853   8.786  17.740  0.00  0.00    +0.000 A 
ATOM      8  C   UNL     1       2.478   7.572  18.003  0.00  0.00    +0.000 A 
ATOM      9  C   UNL     1       2.436   7.052  19.295  0.00  0.00    +0.000 A 
ATOM     10  C   UNL     1       1.862   7.792  20.347  0.00  0.00    +0.000 A 
BRANCH   9  11
ATOM     11  S   UNL     1       3.204   5.475  19.613  0.00  0.00    +0.000 S 
ATOM     12  O   UNL     1       4.638   5.689  19.564  0.00  0.00    +0.000 OA
ATOM     13  O   UNL     1       2.570   4.928  20.795  0.00  0.00    +0.000 OA
BRANCH  11  14
ATOM     14  N   UNL     1       2.770   4.492  18.318  0.00  0.00    +0.000 NA
ATOM     15  C   UNL     1       1.413   3.913  18.182  0.00  0.00    +0.000 C 
ATOM     16  C   UNL     1       1.416   2.408  18.468  0.00  0.00    +0.000 C 
ATOM     17  O   UNL     1       2.402   1.715  17.691  0.00  0.00    +0.000 OA
ATOM     18  C   UNL     1       3.716   2.245  17.917  0.00  0.00    +0.000 C 
ATOM     19  C   UNL     1       3.790   3.733  17.562  0.00  0.00    +0.000 C 
ENDBRANCH  11  14
ENDBRANCH   9  11
ENDBRANCH   3   5
BRANCH   2  20
ATOM     20  C   UNL     1      -0.504  10.123  23.298  0.00  0.00    +0.000 C 
BRANCH  20  21
ATOM     21  N   UNL     1      -1.518  11.136  23.113  0.00  0.00    +0.000 N 
ATOM     22  C   UNL     1      -1.196  12.405  22.694  0.00  0.00    +0.000 C 
ATOM     23  O   UNL     1      -0.054  12.682  22.330  0.00  0.00    +0.000 OA
ATOM     24  H   UNL     1      -2.481  10.948  23.382  0.00  0.00    +0.000 HD
BRANCH  22  25
ATOM     25  C   UNL     1      -2.287  13.361  22.738  0.00  0.00    +0.000 A 
ATOM     26  C   UNL     1      -3.326  13.594  21.856  0.00  0.00    +0.000 A 
ATOM     27  C   UNL     1      -4.106  14.642  22.404  0.00  0.00    +0.000 A 
ATOM     28  C   UNL     1      -3.493  14.995  23.584  0.00  0.00    +0.000 A 
ATOM     29 BR   UNL     1      -4.094  16.326  24.745  0.00  0.00    +0.000 Br
ATOM     30  O   UNL     1      -2.384  14.233  23.793  0.00  0.00    +0.000 OA
ENDBRANCH  22  25
ENDBRANCH  20  21
ENDBRANCH   2  20
TORSDOF 6
ENDMDL
MODEL 6
REMARK VINA RESULT:      -7.6      6.475      8.576
REMARK  Name = 
REMARK  6 active torsions:
REMARK  status: ('A' for Active; 'I' for Inactive)
REMARK    1  A    between atoms: C_2  and  C_3
REMARK    2  A    between atoms: C_3  and  N_4
REMARK    3  A    between atoms: C_5  and  C_7
REMARK    4  A    between atoms: N_13  and  C_14
REMARK    5  A    between atoms: C_18  and  S_19
REMARK    6  A    between atoms: S_19  and  N_22
REMARK                            x       y       z     vdW  Elec       q    Type
REMARK                         _______ _______ _______ _____ _____    ______ ____
ROOT
ATOM      1  O   UNL     1       2.151   9.550  22.829  0.00  0.00    +0.000 OA
ATOM      2  C   UNL     1       0.963   9.328  22.600  0.00  0.00    +0.000 C 
ATOM      3  N   UNL     1       0.444   8.786  21.429  0.00  0.00    +0.000 N 
ATOM      4  H   UNL     1      -0.497   8.400  21.497  0.00  0.00    +0.000 HD
ENDROOT
BRANCH   3   5
ATOM      5  C   UNL     1       1.125   8.636  20.194  0.00  0.00    +0.000 A 
ATOM      6  C   UNL     1       1.014   9.556  19.145  0.00  0.00    +0.000 A 
ATOM      7  C   UNL     1       1.711   9.378  17.945  0.00  0.00    +0.000 A 
ATOM      8  C   UNL     1       2.518   8.261  17.762  0.00  0.00    +0.000 A 
ATOM      9  C   UNL     1       2.577   7.294  18.765  0.00  0.00    +0.000 A 
ATOM     10  C   UNL     1       1.914   7.492  19.992  0.00  0.00    +0.000 A 
BRANCH   9  11
ATOM     11  S   UNL     1       3.581   5.845  18.504  0.00  0.00    +0.000 S 
ATOM     12  O   UNL     1       3.922   5.818  17.095  0.00  0.00    +0.000 OA
ATOM     13  O   UNL     1       4.612   5.857  19.522  0.00  0.00    +0.000 OA
BRANCH  11  14
ATOM     14  N   UNL     1       2.578   4.534  18.831  0.00  0.00    +0.000 NA
ATOM     15  C   UNL     1       2.625   3.800  20.117  0.00  0.00    +0.000 C 
ATOM     16  C   UNL     1       3.269   2.421  19.952  0.00  0.00    +0.000 C 
ATOM     17  O   UNL     1       2.656   1.665  18.898  0.00  0.00    +0.000 OA
ATOM     18  C   UNL     1       2.710   2.369  17.648  0.00  0.00    +0.000 C 
ATOM     19  C   UNL     1       2.001   3.724  17.736  0.00  0.00    +0.000 C 
ENDBRANCH  11  14
ENDBRANCH   9  11
ENDBRANCH   3   5
BRANCH   2  20
ATOM     20  C   UNL     1      -0.092   9.636  23.670  0.00  0.00    +0.000 C 
BRANCH  20  21
ATOM     21  N   UNL     1      -1.288  10.271  23.162  0.00  0.00    +0.000 N 
ATOM     22  C   UNL     1      -1.367  11.635  23.013  0.00  0.00    +0.000 C 
ATOM     23  O   UNL     1      -0.379  12.349  23.175  0.00  0.00    +0.000 OA
ATOM     24  H   UNL     1      -2.125   9.720  22.994  0.00  0.00    +0.000 HD
BRANCH  22  25
ATOM     25  C   UNL     1      -2.686  12.139  22.677  0.00  0.00    +0.000 A 
ATOM     26  C   UNL     1      -3.732  12.550  23.483  0.00  0.00    +0.000 A 
ATOM     27  C   UNL     1      -4.782  12.954  22.621  0.00  0.00    +0.000 A 
ATOM     28  C   UNL     1      -4.320  12.758  21.340  0.00  0.00    +0.000 A 
ATOM     29 BR   UNL     1      -5.282  13.133  19.787  0.00  0.00    +0.000 Br
ATOM     30  O   UNL     1      -3.055  12.255  21.361  0.00  0.00    +0.000 OA
ENDBRANCH  22  25
ENDBRANCH  20  21
ENDBRANCH   2  20
TORSDOF 6
ENDMDL
MODEL 7
REMARK VINA RESULT:      -7.6      1.923      2.164
REMARK  Name = 
REMARK  6 active torsions:
REMARK  status: ('A' for Active; 'I' for Inactive)
REMARK    1  A    between atoms: C_2  and  C_3
REMARK    2  A    between atoms: C_3  and  N_4
REMARK    3  A    between atoms: C_5  and  C_7
REMARK    4  A    between atoms: N_13  and  C_14
REMARK    5  A    between atoms: C_18  and  S_19
REMARK    6  A    between atoms: S_19  and  N_22
REMARK                            x       y       z     vdW  Elec       q    Type
REMARK                         _______ _______ _______ _____ _____    ______ ____
ROOT
ATOM      1  O   UNL     1       7.216   8.550  16.816  0.00  0.00    +0.000 OA
ATOM      2  C   UNL     1       7.773   7.880  17.684  0.00  0.00    +0.000 C 
ATOM      3  N   UNL     1       7.740   6.493  17.793  0.00  0.00    +0.000 N 
ATOM      4  H   UNL     1       8.466   6.075  18.372  0.00  0.00    +0.000 HD
ENDROOT
BRANCH   3   5
ATOM      5  C   UNL     1       6.863   5.613  17.108  0.00  0.00    +0.000 A 
ATOM      6  C   UNL     1       7.116   5.138  15.816  0.00  0.00    +0.000 A 
ATOM      7  C   UNL     1       6.231   4.262  15.177  0.00  0.00    +0.000 A 
ATOM      8  C   UNL     1       5.061   3.862  15.812  0.00  0.00    +0.000 A 
ATOM      9  C   UNL     1       4.753   4.388  17.066  0.00  0.00    +0.000 A 
ATOM     10  C   UNL     1       5.663   5.233  17.731  0.00  0.00    +0.000 A 
BRANCH   9  11
ATOM     11  S   UNL     1       3.231   3.901  17.853  0.00  0.00    +0.000 S 
ATOM     12  O   UNL     1       2.241   4.904  17.510  0.00  0.00    +0.000 OA
ATOM     13  O   UNL     1       3.020   2.503  17.534  0.00  0.00    +0.000 OA
BRANCH  11  14
ATOM     14  N   UNL     1       3.527   3.993  19.506  0.00  0.00    +0.000 NA
ATOM     15  C   UNL     1       3.876   2.803  20.317  0.00  0.00    +0.000 C 
ATOM     16  C   UNL     1       2.713   2.378  21.219  0.00  0.00    +0.000 C 
ATOM     17  O   UNL     1       2.220   3.470  22.009  0.00  0.00    +0.000 OA
ATOM     18  C   UNL     1       1.807   4.570  21.184  0.00  0.00    +0.000 C 
ATOM     19  C   UNL     1       2.962   5.089  20.323  0.00  0.00    +0.000 C 
ENDBRANCH  11  14
ENDBRANCH   9  11
ENDBRANCH   3   5
BRANCH   2  20
ATOM     20  C   UNL     1       8.613   8.573  18.765  0.00  0.00    +0.000 C 
BRANCH  20  21
ATOM     21  N   UNL     1       9.037   9.912  18.421  0.00  0.00    +0.000 N 
ATOM     22  C   UNL     1       9.353  10.835  19.389  0.00  0.00    +0.000 C 
ATOM     23  O   UNL     1       9.418  10.514  20.574  0.00  0.00    +0.000 OA
ATOM     24  H   UNL     1       9.018  10.219  17.451  0.00  0.00    +0.000 HD
BRANCH  22  25
ATOM     25  C   UNL     1       9.575  12.184  18.901  0.00  0.00    +0.000 A 
ATOM     26  C   UNL     1      10.730  12.821  18.488  0.00  0.00    +0.000 A 
ATOM     27  C   UNL     1      10.363  14.135  18.105  0.00  0.00    +0.000 A 
ATOM     28  C   UNL     1       9.006  14.227  18.316  0.00  0.00    +0.000 A 
ATOM     29 BR   UNL     1       7.971  15.740  17.972  0.00  0.00    +0.000 Br
ATOM     30  O   UNL     1       8.518  13.055  18.808  0.00  0.00    +0.000 OA
ENDBRANCH  22  25
ENDBRANCH  20  21
ENDBRANCH   2  20
TORSDOF 6
ENDMDL
MODEL 8
REMARK VINA RESULT:      -7.5      5.773      8.604
REMARK  Name = 
REMARK  6 active torsions:
REMARK  status: ('A' for Active; 'I' for Inactive)
REMARK    1  A    between atoms: C_2  and  C_3
REMARK    2  A    between atoms: C_3  and  N_4
REMARK    3  A    between atoms: C_5  and  C_7
REMARK    4  A    between atoms: N_13  and  C_14
REMARK    5  A    between atoms: C_18  and  S_19
REMARK    6  A    between atoms: S_19  and  N_22
REMARK                            x       y       z     vdW  Elec       q    Type
REMARK                         _______ _______ _______ _____ _____    ______ ____
ROOT
ATOM      1  O   UNL     1       1.348   4.645  18.505  0.00  0.00    +0.000 OA
ATOM      2  C   UNL     1       2.544   4.857  18.693  0.00  0.00    +0.000 C 
ATOM      3  N   UNL     1       3.117   6.084  19.011  0.00  0.00    +0.000 N 
ATOM      4  H   UNL     1       4.052   6.047  19.414  0.00  0.00    +0.000 HD
ENDROOT
BRANCH   3   5
ATOM      5  C   UNL     1       2.494   7.355  18.920  0.00  0.00    +0.000 A 
ATOM      6  C   UNL     1       2.548   8.150  17.768  0.00  0.00    +0.000 A 
ATOM      7  C   UNL     1       1.910   9.394  17.713  0.00  0.00    +0.000 A 
ATOM      8  C   UNL     1       1.224   9.879  18.820  0.00  0.00    +0.000 A 
ATOM      9  C   UNL     1       1.227   9.138  20.001  0.00  0.00    +0.000 A 
ATOM     10  C   UNL     1       1.828   7.865  20.046  0.00  0.00    +0.000 A 
BRANCH   9  11
ATOM     11  S   UNL     1       0.379   9.789  21.427  0.00  0.00    +0.000 S 
ATOM     12  O   UNL     1      -0.730   8.896  21.699  0.00  0.00    +0.000 OA
ATOM     13  O   UNL     1       1.388  10.056  22.432  0.00  0.00    +0.000 OA
BRANCH  11  14
ATOM     14  N   UNL     1      -0.244  11.275  20.943  0.00  0.00    +0.000 NA
ATOM     15  C   UNL     1       0.431  12.557  21.252  0.00  0.00    +0.000 C 
ATOM     16  C   UNL     1      -0.320  13.339  22.334  0.00  0.00    +0.000 C 
ATOM     17  O   UNL     1      -1.709  13.500  22.014  0.00  0.00    +0.000 OA
ATOM     18  C   UNL     1      -2.351  12.233  21.809  0.00  0.00    +0.000 C 
ATOM     19  C   UNL     1      -1.689  11.445  20.675  0.00  0.00    +0.000 C 
ENDBRANCH  11  14
ENDBRANCH   9  11
ENDBRANCH   3   5
BRANCH   2  20
ATOM     20  C   UNL     1       3.549   3.701  18.604  0.00  0.00    +0.000 C 
BRANCH  20  21
ATOM     21  N   UNL     1       4.332   3.686  17.388  0.00  0.00    +0.000 N 
ATOM     22  C   UNL     1       5.506   4.394  17.282  0.00  0.00    +0.000 C 
ATOM     23  O   UNL     1       6.000   4.952  18.260  0.00  0.00    +0.000 OA
ATOM     24  H   UNL     1       3.974   3.221  16.558  0.00  0.00    +0.000 HD
BRANCH  22  25
ATOM     25  C   UNL     1       6.077   4.437  15.949  0.00  0.00    +0.000 A 
ATOM     26  C   UNL     1       7.176   5.115  15.454  0.00  0.00    +0.000 A 
ATOM     27  C   UNL     1       7.279   4.787  14.079  0.00  0.00    +0.000 A 
ATOM     28  C   UNL     1       6.232   3.935  13.812  0.00  0.00    +0.000 A 
ATOM     29 BR   UNL     1       5.875   3.167  12.150  0.00  0.00    +0.000 Br
ATOM     30  O   UNL     1       5.490   3.723  14.934  0.00  0.00    +0.000 OA
ENDBRANCH  22  25
ENDBRANCH  20  21
ENDBRANCH   2  20
TORSDOF 6
ENDMDL
MODEL 9
REMARK VINA RESULT:      -7.5      5.403      8.139
REMARK  Name = 
REMARK  6 active torsions:
REMARK  status: ('A' for Active; 'I' for Inactive)
REMARK    1  A    between atoms: C_2  and  C_3
REMARK    2  A    between atoms: C_3  and  N_4
REMARK    3  A    between atoms: C_5  and  C_7
REMARK    4  A    between atoms: N_13  and  C_14
REMARK    5  A    between atoms: C_18  and  S_19
REMARK    6  A    between atoms: S_19  and  N_22
REMARK                            x       y       z     vdW  Elec       q    Type
REMARK                         _______ _______ _______ _____ _____    ______ ____
ROOT
ATOM      1  O   UNL     1       2.962   7.978  17.374  0.00  0.00    +0.000 OA
ATOM      2  C   UNL     1       2.327   8.438  18.321  0.00  0.00    +0.000 C 
ATOM      3  N   UNL     1       2.022   7.771  19.503  0.00  0.00    +0.000 N 
ATOM      4  H   UNL     1       1.753   8.360  20.290  0.00  0.00    +0.000 HD
ENDROOT
BRANCH   3   5
ATOM      5  C   UNL     1       2.143   6.377  19.740  0.00  0.00    +0.000 A 
ATOM      6  C   UNL     1       1.858   5.787  20.977  0.00  0.00    +0.000 A 
ATOM      7  C   UNL     1       1.979   4.406  21.168  0.00  0.00    +0.000 A 
ATOM      8  C   UNL     1       2.410   3.590  20.129  0.00  0.00    +0.000 A 
ATOM      9  C   UNL     1       2.774   4.170  18.915  0.00  0.00    +0.000 A 
ATOM     10  C   UNL     1       2.610   5.553  18.704  0.00  0.00    +0.000 A 
BRANCH   9  11
ATOM     11  S   UNL     1       3.365   3.119  17.603  0.00  0.00    +0.000 S 
ATOM     12  O   UNL     1       3.543   1.796  18.172  0.00  0.00    +0.000 OA
ATOM     13  O   UNL     1       2.493   3.332  16.466  0.00  0.00    +0.000 OA
BRANCH  11  14
ATOM     14  N   UNL     1       4.879   3.723  17.187  0.00  0.00    +0.000 NA
ATOM     15  C   UNL     1       5.833   4.238  18.198  0.00  0.00    +0.000 C 
ATOM     16  C   UNL     1       5.939   5.765  18.140  0.00  0.00    +0.000 C 
ATOM     17  O   UNL     1       6.220   6.235  16.814  0.00  0.00    +0.000 OA
ATOM     18  C   UNL     1       5.226   5.791  15.879  0.00  0.00    +0.000 C 
ATOM     19  C   UNL     1       5.140   4.262  15.834  0.00  0.00    +0.000 C 
ENDBRANCH  11  14
ENDBRANCH   9  11
ENDBRANCH   3   5
BRANCH   2  20
ATOM     20  C   UNL     1       1.811   9.882  18.266  0.00  0.00    +0.000 C 
BRANCH  20  21
ATOM     21  N   UNL     1       0.485  10.020  17.706  0.00  0.00    +0.000 N 
ATOM     22  C   UNL     1      -0.528  10.635  18.402  0.00  0.00    +0.000 C 
ATOM     23  O   UNL     1      -0.307  11.210  19.467  0.00  0.00    +0.000 OA
ATOM     24  H   UNL     1       0.259   9.578  16.818  0.00  0.00    +0.000 HD
BRANCH  22  25
ATOM     25  C   UNL     1      -1.841  10.528  17.795  0.00  0.00    +0.000 A 
ATOM     26  C   UNL     1      -2.241   9.997  16.583  0.00  0.00    +0.000 A 
ATOM     27  C   UNL     1      -3.647  10.152  16.507  0.00  0.00    +0.000 A 
ATOM     28  C   UNL     1      -4.024  10.777  17.673  0.00  0.00    +0.000 A 
ATOM     29 BR   UNL     1      -5.777  11.227  18.127  0.00  0.00    +0.000 Br
ATOM     30  O   UNL     1      -2.938  11.020  18.458  0.00  0.00    +0.000 OA
ENDBRANCH  22  25
ENDBRANCH  20  21
ENDBRANCH   2  20
TORSDOF 6
ENDMDL
