MODEL 1
REMARK VINA RESULT:      -8.6      0.000      0.000
REMARK  Name = 
REMARK  6 active torsions:
REMARK  status: ('A' for Active; 'I' for Inactive)
REMARK    1  A    between atoms: C_2  and  C_3
REMARK    2  A    between atoms: C_3  and  C_19
REMARK    3  A    between atoms: C_4  and  C_5
REMARK    4  A    between atoms: C_8  and  C_9
REMARK    5  A    between atoms: C_12  and  N_13
REMARK    6  A    between atoms: C_24  and  C_25
REMARK                            x       y       z     vdW  Elec       q    Type
REMARK                         _______ _______ _______ _____ _____    ______ ____
ROOT
ATOM      1  C   UNL     1       1.129   8.954  20.320  0.00  0.00    +0.000 C 
ATOM      2  C   UNL     1       1.301   7.780  20.965  0.00  0.00    +0.000 C 
ENDROOT
BRANCH   1   3
ATOM      3  C   UNL     1       0.525  10.120  21.042  0.00  0.00    +0.000 C 
ATOM      4  O   UNL     1       0.852  10.330  22.207  0.00  0.00    +0.000 OA
ATOM      5  N   UNL     1      -0.397  10.844  20.318  0.00  0.00    +0.000 N 
ATOM      6  C   UNL     1      -1.079  11.899  20.870  0.00  0.00    +0.000 A 
ATOM      7  N   UNL     1      -0.896  12.514  22.009  0.00  0.00    +0.000 NA
ATOM      8  C   UNL     1      -1.880  13.477  22.185  0.00  0.00    +0.000 A 
ATOM      9  C   UNL     1      -2.800  13.558  21.156  0.00  0.00    +0.000 A 
ATOM     10  S   UNL     1      -2.375  12.457  19.907  0.00  0.00    +0.000 S 
ATOM     11  H   UNL     1      -0.691  10.588  19.386  0.00  0.00    +0.000 HD
BRANCH   8  12
ATOM     12  C   UNL     1      -1.913  14.338  23.414  0.00  0.00    +0.000 A 
ATOM     13  C   UNL     1      -2.908  14.259  24.368  0.00  0.00    +0.000 A 
ATOM     14  C   UNL     1      -2.709  15.182  25.438  0.00  0.00    +0.000 A 
ATOM     15  C   UNL     1      -1.575  15.941  25.258  0.00  0.00    +0.000 A 
ATOM     16  S   UNL     1      -0.747  15.522  23.819  0.00  0.00    +0.000 S 
ENDBRANCH   8  12
ENDBRANCH   1   3
BRANCH   2  17
ATOM     17  C   UNL     1       1.876   6.627  20.338  0.00  0.00    +0.000 A 
ATOM     18  C   UNL     1       1.638   5.283  20.594  0.00  0.00    +0.000 A 
ATOM     19  C   UNL     1       2.431   4.516  19.705  0.00  0.00    +0.000 A 
ATOM     20  C   UNL     1       3.132   5.412  18.927  0.00  0.00    +0.000 A 
ATOM     21  O   UNL     1       2.816   6.679  19.325  0.00  0.00    +0.000 OA
BRANCH  20  22
ATOM     22  C   UNL     1       4.079   5.277  17.813  0.00  0.00    +0.000 A 
ATOM     23  C   UNL     1       4.441   4.004  17.337  0.00  0.00    +0.000 A 
ATOM     24  C   UNL     1       5.310   3.850  16.248  0.00  0.00    +0.000 A 
ATOM     25  C   UNL     1       5.834   4.982  15.618  0.00  0.00    +0.000 A 
ATOM     26  C   UNL     1       5.502   6.260  16.079  0.00  0.00    +0.000 A 
ATOM     27  C   UNL     1       4.631   6.400  17.170  0.00  0.00    +0.000 A 
BRANCH  25  28
ATOM     28  N   UNL     1       6.725   4.822  14.459  0.00  0.00    +0.000 N 
ATOM     29  O   UNL     1       6.411   3.987  13.598  0.00  0.00    +0.000 OA
ATOM     30  O   UNL     1       7.739   5.533  14.411  0.00  0.00    +0.000 OA
ENDBRANCH  25  28
ENDBRANCH  20  22
ENDBRANCH   2  17
BRANCH   1  32
ATOM     31  N   UNL     1       1.779   9.103  17.620  0.00  0.00    +0.000 NA
ATOM     32  C   UNL     1       1.484   9.035  18.844  0.00  0.00    +0.000 C 
ENDBRANCH   1  32
TORSDOF 6
ENDMDL
MODEL 2
REMARK VINA RESULT:      -8.6      4.016     11.675
REMARK  Name = 
REMARK  6 active torsions:
REMARK  status: ('A' for Active; 'I' for Inactive)
REMARK    1  A    between atoms: C_2  and  C_3
REMARK    2  A    between atoms: C_3  and  C_19
REMARK    3  A    between atoms: C_4  and  C_5
REMARK    4  A    between atoms: C_8  and  C_9
REMARK    5  A    between atoms: C_12  and  N_13
REMARK    6  A    between atoms: C_24  and  C_25
REMARK                            x       y       z     vdW  Elec       q    Type
REMARK                         _______ _______ _______ _____ _____    ______ ____
ROOT
ATOM      1  C   UNL     1       0.487  10.219  18.801  0.00  0.00    +0.000 C 
ATOM      2  C   UNL     1       0.784  11.096  19.784  0.00  0.00    +0.000 C 
ENDROOT
BRANCH   1   3
ATOM      3  C   UNL     1       1.495   9.188  18.392  0.00  0.00    +0.000 C 
ATOM      4  O   UNL     1       2.055   9.305  17.305  0.00  0.00    +0.000 OA
ATOM      5  N   UNL     1       1.673   8.155  19.285  0.00  0.00    +0.000 N 
ATOM      6  C   UNL     1       2.515   7.106  19.017  0.00  0.00    +0.000 A 
ATOM      7  N   UNL     1       3.388   6.955  18.056  0.00  0.00    +0.000 NA
ATOM      8  C   UNL     1       3.958   5.692  18.136  0.00  0.00    +0.000 A 
ATOM      9  C   UNL     1       3.485   4.908  19.171  0.00  0.00    +0.000 A 
ATOM     10  S   UNL     1       2.358   5.802  20.110  0.00  0.00    +0.000 S 
ATOM     11  H   UNL     1       1.133   8.061  20.134  0.00  0.00    +0.000 HD
BRANCH   8  12
ATOM     12  C   UNL     1       5.000   5.247  17.150  0.00  0.00    +0.000 A 
ATOM     13  C   UNL     1       4.861   4.128  16.354  0.00  0.00    +0.000 A 
ATOM     14  C   UNL     1       5.988   3.922  15.504  0.00  0.00    +0.000 A 
ATOM     15  C   UNL     1       6.953   4.886  15.688  0.00  0.00    +0.000 A 
ATOM     16  S   UNL     1       6.487   6.041  16.862  0.00  0.00    +0.000 S 
ENDBRANCH   8  12
ENDBRANCH   1   3
BRANCH   2  17
ATOM     17  C   UNL     1      -0.133  12.102  20.228  0.00  0.00    +0.000 A 
ATOM     18  C   UNL     1      -0.077  13.478  20.046  0.00  0.00    +0.000 A 
ATOM     19  C   UNL     1      -1.221  14.053  20.653  0.00  0.00    +0.000 A 
ATOM     20  C   UNL     1      -1.948  13.012  21.190  0.00  0.00    +0.000 A 
ATOM     21  O   UNL     1      -1.281  11.845  20.955  0.00  0.00    +0.000 OA
BRANCH  20  22
ATOM     22  C   UNL     1      -3.227  12.921  21.905  0.00  0.00    +0.000 A 
ATOM     23  C   UNL     1      -4.439  12.882  21.192  0.00  0.00    +0.000 A 
ATOM     24  C   UNL     1      -5.671  12.752  21.849  0.00  0.00    +0.000 A 
ATOM     25  C   UNL     1      -5.702  12.660  23.244  0.00  0.00    +0.000 A 
ATOM     26  C   UNL     1      -4.512  12.710  23.979  0.00  0.00    +0.000 A 
ATOM     27  C   UNL     1      -3.287  12.840  23.307  0.00  0.00    +0.000 A 
BRANCH  25  28
ATOM     28  N   UNL     1      -6.991  12.498  23.933  0.00  0.00    +0.000 N 
ATOM     29  O   UNL     1      -7.516  11.374  23.921  0.00  0.00    +0.000 OA
ATOM     30  O   UNL     1      -7.476  13.494  24.487  0.00  0.00    +0.000 OA
ENDBRANCH  25  28
ENDBRANCH  20  22
ENDBRANCH   2  17
BRANCH   1  32
ATOM     31  N   UNL     1      -1.947  10.467  17.479  0.00  0.00    +0.000 NA
ATOM     32  C   UNL     1      -0.844  10.355  18.078  0.00  0.00    +0.000 C 
ENDBRANCH   1  32
TORSDOF 6
ENDMDL
MODEL 3
REMARK VINA RESULT:      -8.6      0.956      1.130
REMARK  Name = 
REMARK  6 active torsions:
REMARK  status: ('A' for Active; 'I' for Inactive)
REMARK    1  A    between atoms: C_2  and  C_3
REMARK    2  A    between atoms: C_3  and  C_19
REMARK    3  A    between atoms: C_4  and  C_5
REMARK    4  A    between atoms: C_8  and  C_9
REMARK    5  A    between atoms: C_12  and  N_13
REMARK    6  A    between atoms: C_24  and  C_25
REMARK                            x       y       z     vdW  Elec       q    Type
REMARK                         _______ _______ _______ _____ _____    ______ ____
ROOT
ATOM      1  C   UNL     1       1.209   8.965  20.324  0.00  0.00    +0.000 C 
ATOM      2  C   UNL     1       1.375   7.777  20.946  0.00  0.00    +0.000 C 
ENDROOT
BRANCH   1   3
ATOM      3  C   UNL     1       0.649  10.130  21.081  0.00  0.00    +0.000 C 
ATOM      4  O   UNL     1      -0.025   9.917  22.085  0.00  0.00    +0.000 OA
ATOM      5  N   UNL     1       0.921  11.367  20.539  0.00  0.00    +0.000 N 
ATOM      6  C   UNL     1       0.420  12.521  21.086  0.00  0.00    +0.000 A 
ATOM      7  N   UNL     1      -0.196  12.713  22.223  0.00  0.00    +0.000 NA
ATOM      8  C   UNL     1      -0.594  14.038  22.322  0.00  0.00    +0.000 A 
ATOM      9  C   UNL     1      -0.267  14.824  21.233  0.00  0.00    +0.000 A 
ATOM     10  S   UNL     1       0.626  13.897  20.095  0.00  0.00    +0.000 S 
ATOM     11  H   UNL     1       1.418  11.490  19.668  0.00  0.00    +0.000 HD
BRANCH   8  12
ATOM     12  C   UNL     1      -1.328  14.540  23.533  0.00  0.00    +0.000 A 
ATOM     13  C   UNL     1      -2.558  14.053  23.929  0.00  0.00    +0.000 A 
ATOM     14  C   UNL     1      -3.041  14.694  25.109  0.00  0.00    +0.000 A 
ATOM     15  C   UNL     1      -2.167  15.655  25.566  0.00  0.00    +0.000 A 
ATOM     16  S   UNL     1      -0.766  15.762  24.589  0.00  0.00    +0.000 S 
ENDBRANCH   8  12
ENDBRANCH   1   3
BRANCH   2  17
ATOM     17  C   UNL     1       1.909   6.624  20.285  0.00  0.00    +0.000 A 
ATOM     18  C   UNL     1       1.614   5.283  20.493  0.00  0.00    +0.000 A 
ATOM     19  C   UNL     1       2.385   4.514  19.585  0.00  0.00    +0.000 A 
ATOM     20  C   UNL     1       3.129   5.407  18.845  0.00  0.00    +0.000 A 
ATOM     21  O   UNL     1       2.861   6.671  19.283  0.00  0.00    +0.000 OA
BRANCH  20  22
ATOM     22  C   UNL     1       4.082   5.271  17.736  0.00  0.00    +0.000 A 
ATOM     23  C   UNL     1       4.480   3.996  17.292  0.00  0.00    +0.000 A 
ATOM     24  C   UNL     1       5.355   3.840  16.207  0.00  0.00    +0.000 A 
ATOM     25  C   UNL     1       5.847   4.970  15.550  0.00  0.00    +0.000 A 
ATOM     26  C   UNL     1       5.479   6.250  15.978  0.00  0.00    +0.000 A 
ATOM     27  C   UNL     1       4.602   6.392  17.065  0.00  0.00    +0.000 A 
BRANCH  25  28
ATOM     28  N   UNL     1       6.745   4.807  14.396  0.00  0.00    +0.000 N 
ATOM     29  O   UNL     1       7.754   5.525  14.341  0.00  0.00    +0.000 OA
ATOM     30  O   UNL     1       6.439   3.959  13.545  0.00  0.00    +0.000 OA
ENDBRANCH  25  28
ENDBRANCH  20  22
ENDBRANCH   2  17
BRANCH   1  32
ATOM     31  N   UNL     1       1.788   9.145  17.610  0.00  0.00    +0.000 NA
ATOM     32  C   UNL     1       1.526   9.063  18.841  0.00  0.00    +0.000 C 
ENDBRANCH   1  32
TORSDOF 6
ENDMDL
MODEL 4
REMARK VINA RESULT:      -8.4      0.649      1.104
REMARK  Name = 
REMARK  6 active torsions:
REMARK  status: ('A' for Active; 'I' for Inactive)
REMARK    1  A    between atoms: C_2  and  C_3
REMARK    2  A    between atoms: C_3  and  C_19
REMARK    3  A    between atoms: C_4  and  C_5
REMARK    4  A    between atoms: C_8  and  C_9
REMARK    5  A    between atoms: C_12  and  N_13
REMARK    6  A    between atoms: C_24  and  C_25
REMARK                            x       y       z     vdW  Elec       q    Type
REMARK                         _______ _______ _______ _____ _____    ______ ____
ROOT
ATOM      1  C   UNL     1       1.111   9.112  20.174  0.00  0.00    +0.000 C 
ATOM      2  C   UNL     1       1.268   7.968  20.874  0.00  0.00    +0.000 C 
ENDROOT
BRANCH   1   3
ATOM      3  C   UNL     1       0.478  10.303  20.825  0.00  0.00    +0.000 C 
ATOM      4  O   UNL     1       0.865  10.646  21.939  0.00  0.00    +0.000 OA
ATOM      5  N   UNL     1      -0.537  10.895  20.105  0.00  0.00    +0.000 N 
ATOM      6  C   UNL     1      -1.252  11.955  20.603  0.00  0.00    +0.000 A 
ATOM      7  N   UNL     1      -1.038  12.688  21.664  0.00  0.00    +0.000 NA
ATOM      8  C   UNL     1      -2.072  13.601  21.819  0.00  0.00    +0.000 A 
ATOM      9  C   UNL     1      -3.060  13.524  20.855  0.00  0.00    +0.000 A 
ATOM     10  S   UNL     1      -2.644  12.335  19.688  0.00  0.00    +0.000 S 
ATOM     11  H   UNL     1      -0.873  10.531  19.225  0.00  0.00    +0.000 HD
BRANCH   8  12
ATOM     12  C   UNL     1      -2.083  14.575  22.962  0.00  0.00    +0.000 A 
ATOM     13  C   UNL     1      -1.226  14.486  24.040  0.00  0.00    +0.000 A 
ATOM     14  C   UNL     1      -1.438  15.531  24.989  0.00  0.00    +0.000 A 
ATOM     15  C   UNL     1      -2.456  16.375  24.605  0.00  0.00    +0.000 A 
ATOM     16  S   UNL     1      -3.131  15.919  23.100  0.00  0.00    +0.000 S 
ENDBRANCH   8  12
ENDBRANCH   1   3
BRANCH   2  17
ATOM     17  C   UNL     1       1.869   6.793  20.316  0.00  0.00    +0.000 A 
ATOM     18  C   UNL     1       1.722   5.468  20.704  0.00  0.00    +0.000 A 
ATOM     19  C   UNL     1       2.505   4.664  19.838  0.00  0.00    +0.000 A 
ATOM     20  C   UNL     1       3.108   5.520  18.942  0.00  0.00    +0.000 A 
ATOM     21  O   UNL     1       2.745   6.800  19.245  0.00  0.00    +0.000 OA
BRANCH  20  22
ATOM     22  C   UNL     1       3.995   5.332  17.787  0.00  0.00    +0.000 A 
ATOM     23  C   UNL     1       4.532   6.444  17.114  0.00  0.00    +0.000 A 
ATOM     24  C   UNL     1       5.416   6.291  16.036  0.00  0.00    +0.000 A 
ATOM     25  C   UNL     1       5.773   5.007  15.615  0.00  0.00    +0.000 A 
ATOM     26  C   UNL     1       5.243   3.882  16.257  0.00  0.00    +0.000 A 
ATOM     27  C   UNL     1       4.361   4.051  17.335  0.00  0.00    +0.000 A 
BRANCH  25  28
ATOM     28  N   UNL     1       6.720   4.844  14.501  0.00  0.00    +0.000 N 
ATOM     29  O   UNL     1       6.429   4.036  13.607  0.00  0.00    +0.000 OA
ATOM     30  O   UNL     1       7.754   5.527  14.521  0.00  0.00    +0.000 OA
ENDBRANCH  25  28
ENDBRANCH  20  22
ENDBRANCH   2  17
BRANCH   1  32
ATOM     31  N   UNL     1       1.850   9.150  17.493  0.00  0.00    +0.000 NA
ATOM     32  C   UNL     1       1.515   9.133  18.709  0.00  0.00    +0.000 C 
ENDBRANCH   1  32
TORSDOF 6
ENDMDL
MODEL 5
REMARK VINA RESULT:      -8.2      3.978     11.781
REMARK  Name = 
REMARK  6 active torsions:
REMARK  status: ('A' for Active; 'I' for Inactive)
REMARK    1  A    between atoms: C_2  and  C_3
REMARK    2  A    between atoms: C_3  and  C_19
REMARK    3  A    between atoms: C_4  and  C_5
REMARK    4  A    between atoms: C_8  and  C_9
REMARK    5  A    between atoms: C_12  and  N_13
REMARK    6  A    between atoms: C_24  and  C_25
REMARK                            x       y       z     vdW  Elec       q    Type
REMARK                         _______ _______ _______ _____ _____    ______ ____
ROOT
ATOM      1  C   UNL     1       0.499  10.685  19.546  0.00  0.00    +0.000 C 
ATOM      2  C   UNL     1       0.725  11.132  20.800  0.00  0.00    +0.000 C 
ENDROOT
BRANCH   1   3
ATOM      3  C   UNL     1       1.363   9.602  18.974  0.00  0.00    +0.000 C 
ATOM      4  O   UNL     1       1.834   9.751  17.850  0.00  0.00    +0.000 OA
ATOM      5  N   UNL     1       1.518   8.492  19.775  0.00  0.00    +0.000 N 
ATOM      6  C   UNL     1       2.229   7.395  19.357  0.00  0.00    +0.000 A 
ATOM      7  N   UNL     1       2.994   7.240  18.310  0.00  0.00    +0.000 NA
ATOM      8  C   UNL     1       3.445   5.928  18.249  0.00  0.00    +0.000 A 
ATOM      9  C   UNL     1       2.992   5.114  19.269  0.00  0.00    +0.000 A 
ATOM     10  S   UNL     1       2.044   6.031  20.369  0.00  0.00    +0.000 S 
ATOM     11  H   UNL     1       1.049   8.382  20.663  0.00  0.00    +0.000 HD
BRANCH   8  12
ATOM     12  C   UNL     1       4.348   5.468  17.141  0.00  0.00    +0.000 A 
ATOM     13  C   UNL     1       4.585   4.137  16.861  0.00  0.00    +0.000 A 
ATOM     14  C   UNL     1       5.478   3.965  15.761  0.00  0.00    +0.000 A 
ATOM     15  C   UNL     1       5.900   5.170  15.247  0.00  0.00    +0.000 A 
ATOM     16  S   UNL     1       5.202   6.497  16.074  0.00  0.00    +0.000 S 
ENDBRANCH   8  12
ENDBRANCH   1   3
BRANCH   2  17
ATOM     17  C   UNL     1      -0.065  12.160  21.411  0.00  0.00    +0.000 A 
ATOM     18  C   UNL     1       0.269  13.485  21.663  0.00  0.00    +0.000 A 
ATOM     19  C   UNL     1      -0.847  14.115  22.268  0.00  0.00    +0.000 A 
ATOM     20  C   UNL     1      -1.834  13.158  22.368  0.00  0.00    +0.000 A 
ATOM     21  O   UNL     1      -1.355  11.980  21.876  0.00  0.00    +0.000 OA
BRANCH  20  22
ATOM     22  C   UNL     1      -3.219  13.166  22.856  0.00  0.00    +0.000 A 
ATOM     23  C   UNL     1      -4.206  13.911  22.185  0.00  0.00    +0.000 A 
ATOM     24  C   UNL     1      -5.543  13.900  22.605  0.00  0.00    +0.000 A 
ATOM     25  C   UNL     1      -5.910  13.137  23.717  0.00  0.00    +0.000 A 
ATOM     26  C   UNL     1      -4.948  12.397  24.412  0.00  0.00    +0.000 A 
ATOM     27  C   UNL     1      -3.613  12.417  23.979  0.00  0.00    +0.000 A 
BRANCH  25  28
ATOM     28  N   UNL     1      -7.318  13.104  24.144  0.00  0.00    +0.000 N 
ATOM     29  O   UNL     1      -7.915  12.019  24.086  0.00  0.00    +0.000 OA
ATOM     30  O   UNL     1      -7.824  14.165  24.537  0.00  0.00    +0.000 OA
ENDBRANCH  25  28
ENDBRANCH  20  22
ENDBRANCH   2  17
BRANCH   1  32
ATOM     31  N   UNL     1      -1.484  11.908  18.028  0.00  0.00    +0.000 NA
ATOM     32  C   UNL     1      -0.585  11.354  18.716  0.00  0.00    +0.000 C 
ENDBRANCH   1  32
TORSDOF 6
ENDMDL
MODEL 6
REMARK VINA RESULT:      -8.1      1.331      1.816
REMARK  Name = 
REMARK  6 active torsions:
REMARK  status: ('A' for Active; 'I' for Inactive)
REMARK    1  A    between atoms: C_2  and  C_3
REMARK    2  A    between atoms: C_3  and  C_19
REMARK    3  A    between atoms: C_4  and  C_5
REMARK    4  A    between atoms: C_8  and  C_9
REMARK    5  A    between atoms: C_12  and  N_13
REMARK    6  A    between atoms: C_24  and  C_25
REMARK                            x       y       z     vdW  Elec       q    Type
REMARK                         _______ _______ _______ _____ _____    ______ ____
ROOT
ATOM      1  C   UNL     1       1.068   9.414  20.391  0.00  0.00    +0.000 C 
ATOM      2  C   UNL     1       1.374   8.294  21.082  0.00  0.00    +0.000 C 
ENDROOT
BRANCH   1   3
ATOM      3  C   UNL     1       0.639  10.648  21.124  0.00  0.00    +0.000 C 
ATOM      4  O   UNL     1      -0.085  10.531  22.110  0.00  0.00    +0.000 OA
ATOM      5  N   UNL     1       1.080  11.835  20.582  0.00  0.00    +0.000 N 
ATOM      6  C   UNL     1       0.713  13.049  21.107  0.00  0.00    +0.000 A 
ATOM      7  N   UNL     1       0.095  13.327  22.224  0.00  0.00    +0.000 NA
ATOM      8  C   UNL     1      -0.136  14.694  22.304  0.00  0.00    +0.000 A 
ATOM      9  C   UNL     1       0.318  15.420  21.219  0.00  0.00    +0.000 A 
ATOM     10  S   UNL     1       1.119  14.378  20.114  0.00  0.00    +0.000 S 
ATOM     11  H   UNL     1       1.611  11.886  19.724  0.00  0.00    +0.000 HD
BRANCH   8  12
ATOM     12  C   UNL     1      -0.833  15.296  23.490  0.00  0.00    +0.000 A 
ATOM     13  C   UNL     1      -0.492  16.521  24.027  0.00  0.00    +0.000 A 
ATOM     14  C   UNL     1      -1.306  16.868  25.147  0.00  0.00    +0.000 A 
ATOM     15  C   UNL     1      -2.233  15.890  25.431  0.00  0.00    +0.000 A 
ATOM     16  S   UNL     1      -2.133  14.577  24.338  0.00  0.00    +0.000 S 
ENDBRANCH   8  12
ENDBRANCH   1   3
BRANCH   2  17
ATOM     17  C   UNL     1       1.796   7.082  20.446  0.00  0.00    +0.000 A 
ATOM     18  C   UNL     1       1.406   5.775  20.710  0.00  0.00    +0.000 A 
ATOM     19  C   UNL     1       2.085   4.919  19.808  0.00  0.00    +0.000 A 
ATOM     20  C   UNL     1       2.871   5.726  19.014  0.00  0.00    +0.000 A 
ATOM     21  O   UNL     1       2.715   7.021  19.415  0.00  0.00    +0.000 OA
BRANCH  20  22
ATOM     22  C   UNL     1       3.774   5.480  17.882  0.00  0.00    +0.000 A 
ATOM     23  C   UNL     1       4.442   6.550  17.260  0.00  0.00    +0.000 A 
ATOM     24  C   UNL     1       5.342   6.336  16.205  0.00  0.00    +0.000 A 
ATOM     25  C   UNL     1       5.582   5.034  15.757  0.00  0.00    +0.000 A 
ATOM     26  C   UNL     1       4.921   3.952  16.349  0.00  0.00    +0.000 A 
ATOM     27  C   UNL     1       4.024   4.181  17.404  0.00  0.00    +0.000 A 
BRANCH  25  28
ATOM     28  N   UNL     1       6.545   4.806  14.669  0.00  0.00    +0.000 N 
ATOM     29  O   UNL     1       7.606   5.447  14.690  0.00  0.00    +0.000 OA
ATOM     30  O   UNL     1       6.238   3.984  13.793  0.00  0.00    +0.000 OA
ENDBRANCH  25  28
ENDBRANCH  20  22
ENDBRANCH   2  17
BRANCH   1  32
ATOM     31  N   UNL     1       1.114   9.323  17.612  0.00  0.00    +0.000 NA
ATOM     32  C   UNL     1       1.093   9.364  18.872  0.00  0.00    +0.000 C 
ENDBRANCH   1  32
TORSDOF 6
ENDMDL
MODEL 7
REMARK VINA RESULT:      -8.1      4.120     11.741
REMARK  Name = 
REMARK  6 active torsions:
REMARK  status: ('A' for Active; 'I' for Inactive)
REMARK    1  A    between atoms: C_2  and  C_3
REMARK    2  A    between atoms: C_3  and  C_19
REMARK    3  A    between atoms: C_4  and  C_5
REMARK    4  A    between atoms: C_8  and  C_9
REMARK    5  A    between atoms: C_12  and  N_13
REMARK    6  A    between atoms: C_24  and  C_25
REMARK                            x       y       z     vdW  Elec       q    Type
REMARK                         _______ _______ _______ _____ _____    ______ ____
ROOT
ATOM      1  C   UNL     1       0.972  10.043  19.595  0.00  0.00    +0.000 C 
ATOM      2  C   UNL     1       0.290  10.902  18.805  0.00  0.00    +0.000 C 
ENDROOT
BRANCH   1   3
ATOM      3  C   UNL     1       1.872   9.017  18.977  0.00  0.00    +0.000 C 
ATOM      4  O   UNL     1       2.429   9.279  17.914  0.00  0.00    +0.000 OA
ATOM      5  N   UNL     1       1.961   7.826  19.664  0.00  0.00    +0.000 N 
ATOM      6  C   UNL     1       2.697   6.771  19.186  0.00  0.00    +0.000 A 
ATOM      7  N   UNL     1       3.540   6.719  18.188  0.00  0.00    +0.000 NA
ATOM      8  C   UNL     1       3.988   5.416  18.022  0.00  0.00    +0.000 A 
ATOM      9  C   UNL     1       3.455   4.503  18.912  0.00  0.00    +0.000 A 
ATOM     10  S   UNL     1       2.429   5.309  20.029  0.00  0.00    +0.000 S 
ATOM     11  H   UNL     1       1.424   7.628  20.496  0.00  0.00    +0.000 HD
BRANCH   8  12
ATOM     12  C   UNL     1       4.972   5.065  16.942  0.00  0.00    +0.000 A 
ATOM     13  C   UNL     1       4.712   4.138  15.953  0.00  0.00    +0.000 A 
ATOM     14  C   UNL     1       5.805   3.987  15.050  0.00  0.00    +0.000 A 
ATOM     15  C   UNL     1       6.867   4.797  15.387  0.00  0.00    +0.000 A 
ATOM     16  S   UNL     1       6.530   5.748  16.770  0.00  0.00    +0.000 S 
ENDBRANCH   8  12
ENDBRANCH   1   3
BRANCH   2  17
ATOM     17  C   UNL     1      -0.583  11.910  19.328  0.00  0.00    +0.000 A 
ATOM     18  C   UNL     1      -0.494  13.291  19.209  0.00  0.00    +0.000 A 
ATOM     19  C   UNL     1      -1.601  13.865  19.883  0.00  0.00    +0.000 A 
ATOM     20  C   UNL     1      -2.338  12.819  20.394  0.00  0.00    +0.000 A 
ATOM     21  O   UNL     1      -1.713  11.648  20.082  0.00  0.00    +0.000 OA
BRANCH  20  22
ATOM     22  C   UNL     1      -3.595  12.727  21.148  0.00  0.00    +0.000 A 
ATOM     23  C   UNL     1      -3.592  12.828  22.552  0.00  0.00    +0.000 A 
ATOM     24  C   UNL     1      -4.782  12.786  23.291  0.00  0.00    +0.000 A 
ATOM     25  C   UNL     1      -6.002  12.639  22.625  0.00  0.00    +0.000 A 
ATOM     26  C   UNL     1      -6.034  12.523  21.231  0.00  0.00    +0.000 A 
ATOM     27  C   UNL     1      -4.835  12.567  20.504  0.00  0.00    +0.000 A 
BRANCH  25  28
ATOM     28  N   UNL     1      -7.254  12.621  23.397  0.00  0.00    +0.000 N 
ATOM     29  O   UNL     1      -7.868  13.691  23.530  0.00  0.00    +0.000 OA
ATOM     30  O   UNL     1      -7.623  11.536  23.869  0.00  0.00    +0.000 OA
ENDBRANCH  25  28
ENDBRANCH  20  22
ENDBRANCH   2  17
BRANCH   1  32
ATOM     31  N   UNL     1       0.552  10.135  22.342  0.00  0.00    +0.000 NA
ATOM     32  C   UNL     1       0.742  10.094  21.097  0.00  0.00    +0.000 C 
ENDBRANCH   1  32
TORSDOF 6
ENDMDL
MODEL 8
REMARK VINA RESULT:      -8.1      2.944      3.753
REMARK  Name = 
REMARK  6 active torsions:
REMARK  status: ('A' for Active; 'I' for Inactive)
REMARK    1  A    between atoms: C_2  and  C_3
REMARK    2  A    between atoms: C_3  and  C_19
REMARK    3  A    between atoms: C_4  and  C_5
REMARK    4  A    between atoms: C_8  and  C_9
REMARK    5  A    between atoms: C_12  and  N_13
REMARK    6  A    between atoms: C_24  and  C_25
REMARK                            x       y       z     vdW  Elec       q    Type
REMARK                         _______ _______ _______ _____ _____    ______ ____
ROOT
ATOM      1  C   UNL     1      -0.725  10.948  19.430  0.00  0.00    +0.000 C 
ATOM      2  C   UNL     1       0.497  10.537  19.834  0.00  0.00    +0.000 C 
ENDROOT
BRANCH   1   3
ATOM      3  C   UNL     1      -1.501  11.915  20.271  0.00  0.00    +0.000 C 
ATOM      4  O   UNL     1      -0.944  12.452  21.225  0.00  0.00    +0.000 OA
ATOM      5  N   UNL     1      -2.818  12.085  19.905  0.00  0.00    +0.000 N 
ATOM      6  C   UNL     1      -3.669  12.890  20.620  0.00  0.00    +0.000 A 
ATOM      7  N   UNL     1      -3.413  13.734  21.585  0.00  0.00    +0.000 NA
ATOM      8  C   UNL     1      -4.599  14.269  22.066  0.00  0.00    +0.000 A 
ATOM      9  C   UNL     1      -5.740  13.799  21.443  0.00  0.00    +0.000 A 
ATOM     10  S   UNL     1      -5.310  12.722  20.177  0.00  0.00    +0.000 S 
ATOM     11  H   UNL     1      -3.255  11.563  19.157  0.00  0.00    +0.000 HD
BRANCH   8  12
ATOM     12  C   UNL     1      -4.602  15.273  23.183  0.00  0.00    +0.000 A 
ATOM     13  C   UNL     1      -5.622  16.181  23.383  0.00  0.00    +0.000 A 
ATOM     14  C   UNL     1      -5.387  17.023  24.510  0.00  0.00    +0.000 A 
ATOM     15  C   UNL     1      -4.189  16.736  25.125  0.00  0.00    +0.000 A 
ATOM     16  S   UNL     1      -3.371  15.443  24.358  0.00  0.00    +0.000 S 
ENDBRANCH   8  12
ENDBRANCH   1   3
BRANCH   2  17
ATOM     17  C   UNL     1       1.295   9.619  19.077  0.00  0.00    +0.000 A 
ATOM     18  C   UNL     1       1.978   9.830  17.886  0.00  0.00    +0.000 A 
ATOM     19  C   UNL     1       2.638   8.626  17.535  0.00  0.00    +0.000 A 
ATOM     20  C   UNL     1       2.343   7.711  18.523  0.00  0.00    +0.000 A 
ATOM     21  O   UNL     1       1.516   8.301  19.434  0.00  0.00    +0.000 OA
BRANCH  20  22
ATOM     22  C   UNL     1       2.733   6.319  18.776  0.00  0.00    +0.000 A 
ATOM     23  C   UNL     1       3.513   5.617  17.838  0.00  0.00    +0.000 A 
ATOM     24  C   UNL     1       3.935   4.301  18.077  0.00  0.00    +0.000 A 
ATOM     25  C   UNL     1       3.574   3.666  19.268  0.00  0.00    +0.000 A 
ATOM     26  C   UNL     1       2.787   4.336  20.212  0.00  0.00    +0.000 A 
ATOM     27  C   UNL     1       2.373   5.652  19.961  0.00  0.00    +0.000 A 
BRANCH  25  28
ATOM     28  N   UNL     1       4.037   2.295  19.531  0.00  0.00    +0.000 N 
ATOM     29  O   UNL     1       3.575   1.384  18.828  0.00  0.00    +0.000 OA
ATOM     30  O   UNL     1       4.863   2.131  20.440  0.00  0.00    +0.000 OA
ENDBRANCH  25  28
ENDBRANCH  20  22
ENDBRANCH   2  17
BRANCH   1  32
ATOM     31  N   UNL     1      -1.804   9.856  17.111  0.00  0.00    +0.000 NA
ATOM     32  C   UNL     1      -1.315  10.351  18.163  0.00  0.00    +0.000 C 
ENDBRANCH   1  32
TORSDOF 6
ENDMDL
MODEL 9
REMARK VINA RESULT:      -8.0      1.133      1.287
REMARK  Name = 
REMARK  6 active torsions:
REMARK  status: ('A' for Active; 'I' for Inactive)
REMARK    1  A    between atoms: C_2  and  C_3
REMARK    2  A    between atoms: C_3  and  C_19
REMARK    3  A    between atoms: C_4  and  C_5
REMARK    4  A    between atoms: C_8  and  C_9
REMARK    5  A    between atoms: C_12  and  N_13
REMARK    6  A    between atoms: C_24  and  C_25
REMARK                            x       y       z     vdW  Elec       q    Type
REMARK                         _______ _______ _______ _____ _____    ______ ____
ROOT
ATOM      1  C   UNL     1       1.466   8.167  20.051  0.00  0.00    +0.000 C 
ATOM      2  C   UNL     1       1.696   6.991  20.675  0.00  0.00    +0.000 C 
ENDROOT
BRANCH   1   3
ATOM      3  C   UNL     1       0.615   9.208  20.712  0.00  0.00    +0.000 C 
ATOM      4  O   UNL     1       0.281   9.045  21.883  0.00  0.00    +0.000 OA
ATOM      5  N   UNL     1       0.245  10.262  19.906  0.00  0.00    +0.000 N 
ATOM      6  C   UNL     1      -0.586  11.258  20.355  0.00  0.00    +0.000 A 
ATOM      7  N   UNL     1      -1.012  11.513  21.564  0.00  0.00    +0.000 NA
ATOM      8  C   UNL     1      -1.903  12.577  21.531  0.00  0.00    +0.000 A 
ATOM      9  C   UNL     1      -2.132  13.100  20.272  0.00  0.00    +0.000 A 
ATOM     10  S   UNL     1      -1.152  12.290  19.118  0.00  0.00    +0.000 S 
ATOM     11  H   UNL     1       0.481  10.315  18.925  0.00  0.00    +0.000 HD
BRANCH   8  12
ATOM     12  C   UNL     1      -2.551  13.087  22.786  0.00  0.00    +0.000 A 
ATOM     13  C   UNL     1      -3.495  12.371  23.495  0.00  0.00    +0.000 A 
ATOM     14  C   UNL     1      -3.954  13.074  24.649  0.00  0.00    +0.000 A 
ATOM     15  C   UNL     1      -3.352  14.306  24.775  0.00  0.00    +0.000 A 
ATOM     16  S   UNL     1      -2.224  14.596  23.520  0.00  0.00    +0.000 S 
ENDBRANCH   8  12
ENDBRANCH   1   3
BRANCH   2  17
ATOM     17  C   UNL     1       2.503   5.955  20.103  0.00  0.00    +0.000 A 
ATOM     18  C   UNL     1       2.632   4.630  20.499  0.00  0.00    +0.000 A 
ATOM     19  C   UNL     1       3.535   3.989  19.613  0.00  0.00    +0.000 A 
ATOM     20  C   UNL     1       3.931   4.941  18.698  0.00  0.00    +0.000 A 
ATOM     21  O   UNL     1       3.330   6.126  19.009  0.00  0.00    +0.000 OA
BRANCH  20  22
ATOM     22  C   UNL     1       4.807   4.923  17.520  0.00  0.00    +0.000 A 
ATOM     23  C   UNL     1       4.495   4.111  16.414  0.00  0.00    +0.000 A 
ATOM     24  C   UNL     1       5.292   4.109  15.260  0.00  0.00    +0.000 A 
ATOM     25  C   UNL     1       6.424   4.927  15.202  0.00  0.00    +0.000 A 
ATOM     26  C   UNL     1       6.765   5.734  16.292  0.00  0.00    +0.000 A 
ATOM     27  C   UNL     1       5.958   5.727  17.440  0.00  0.00    +0.000 A 
BRANCH  25  28
ATOM     28  N   UNL     1       7.246   4.945  13.983  0.00  0.00    +0.000 N 
ATOM     29  O   UNL     1       6.903   4.212  13.042  0.00  0.00    +0.000 OA
ATOM     30  O   UNL     1       8.234   5.692  13.966  0.00  0.00    +0.000 OA
ENDBRANCH  25  28
ENDBRANCH  20  22
ENDBRANCH   2  17
BRANCH   1  32
ATOM     31  N   UNL     1       2.475   8.538  17.486  0.00  0.00    +0.000 NA
ATOM     32  C   UNL     1       2.018   8.370  18.649  0.00  0.00    +0.000 C 
ENDBRANCH   1  32
TORSDOF 6
ENDMDL
