MODEL 1
REMARK VINA RESULT:      -6.6      0.000      0.000
REMARK  Name = 
REMARK  10 active torsions:
REMARK  status: ('A' for Active; 'I' for Inactive)
REMARK    1  A    between atoms: C_1  and  C_2
REMARK    2  A    between atoms: C_2  and  N_3
REMARK    3  A    between atoms: N_3  and  C_4
REMARK    4  A    between atoms: N_3  and  C_6
REMARK    5  A    between atoms: C_4  and  C_5
REMARK    6  A    between atoms: C_13  and  N_14
REMARK    7  A    between atoms: C_15  and  C_16
REMARK    8  A    between atoms: C_18  and  C_19
REMARK    9  A    between atoms: C_21  and  O_22
REMARK   10  A    between atoms: O_22  and  C_23
REMARK                            x       y       z     vdW  Elec       q    Type
REMARK                         _______ _______ _______ _____ _____    ______ ____
ROOT
ATOM      1  C   UNL     1       2.283   7.709  18.906  0.00  0.00    +0.000 A 
ATOM      2  C   UNL     1       2.218   8.910  18.166  0.00  0.00    +0.000 A 
ATOM      3  C   UNL     1       1.413  10.003  18.540  0.00  0.00    +0.000 A 
ATOM      4  C   UNL     1       0.651   9.945  19.707  0.00  0.00    +0.000 A 
ATOM      5  C   UNL     1       0.694   8.743  20.409  0.00  0.00    +0.000 A 
ATOM      6  C   UNL     1       1.488   7.663  20.044  0.00  0.00    +0.000 A 
ATOM      7  O   UNL     1      -0.011   8.563  21.562  0.00  0.00    +0.000 OA
ATOM      8  C   UNL     1      -0.167   9.680  22.341  0.00  0.00    +0.000 C 
ATOM      9  C   UNL     1      -0.399  10.889  21.790  0.00  0.00    +0.000 C 
ATOM     10  C   UNL     1      -0.186  11.086  20.282  0.00  0.00    +0.000 C 
ENDROOT
BRANCH  10  11
ATOM     11  C   UNL     1       0.421  12.465  19.977  0.00  0.00    +0.000 A 
ATOM     12  C   UNL     1       1.734  12.798  20.404  0.00  0.00    +0.000 A 
ATOM     13  C   UNL     1       2.294  14.065  20.179  0.00  0.00    +0.000 A 
ATOM     14  C   UNL     1       1.512  14.990  19.509  0.00  0.00    +0.000 A 
ATOM     15  C   UNL     1       0.239  14.670  19.080  0.00  0.00    +0.000 A 
ATOM     16  C   UNL     1      -0.333  13.430  19.292  0.00  0.00    +0.000 A 
ATOM     17  O   UNL     1      -0.379  15.705  18.446  0.00  0.00    +0.000 OA
ATOM     18  C   UNL     1       0.619  16.732  18.568  0.00  0.00    +0.000 C 
ATOM     19  O   UNL     1       1.835  16.272  19.184  0.00  0.00    +0.000 OA
BRANCH  13  20
ATOM     20  O   UNL     1       3.557  14.227  20.670  0.00  0.00    +0.000 OA
ATOM     21  C   UNL     1       3.696  14.972  21.874  0.00  0.00    +0.000 C 
ENDBRANCH  13  20
ENDBRANCH  10  11
BRANCH   8  22
ATOM     22  N   UNL     1      -0.002   9.386  23.676  0.00  0.00    +0.000 N 
ATOM     23  H   UNL     1       0.933   9.708  23.941  0.00  0.00    +0.000 HD
ATOM     24  H   UNL     1      -0.581  10.073  24.173  0.00  0.00    +0.000 HD
ENDBRANCH   8  22
BRANCH   9  25
ATOM     25  C   UNL     1      -0.777  11.987  22.611  0.00  0.00    +0.000 C 
ATOM     26  N   UNL     1      -1.087  12.921  23.242  0.00  0.00    +0.000 NA
ENDBRANCH   9  25
BRANCH   1  27
ATOM     27  N   UNL     1       3.102   6.624  18.550  0.00  0.00    +0.000 N 
BRANCH  27  29
ATOM     28  C   UNL     1       1.936   4.523  17.848  0.00  0.00    +0.000 C 
ATOM     29  C   UNL     1       2.695   5.265  18.947  0.00  0.00    +0.000 C 
ENDBRANCH  27  29
BRANCH  27  30
ATOM     30  C   UNL     1       4.098   6.876  17.498  0.00  0.00    +0.000 C 
ATOM     31  C   UNL     1       5.465   6.234  17.626  0.00  0.00    +0.000 C 
ENDBRANCH  27  30
ENDBRANCH   1  27
TORSDOF 7
ENDMDL
MODEL 2
REMARK VINA RESULT:      -6.5      0.374      1.244
REMARK  Name = 
REMARK  10 active torsions:
REMARK  status: ('A' for Active; 'I' for Inactive)
REMARK    1  A    between atoms: C_1  and  C_2
REMARK    2  A    between atoms: C_2  and  N_3
REMARK    3  A    between atoms: N_3  and  C_4
REMARK    4  A    between atoms: N_3  and  C_6
REMARK    5  A    between atoms: C_4  and  C_5
REMARK    6  A    between atoms: C_13  and  N_14
REMARK    7  A    between atoms: C_15  and  C_16
REMARK    8  A    between atoms: C_18  and  C_19
REMARK    9  A    between atoms: C_21  and  O_22
REMARK   10  A    between atoms: O_22  and  C_23
REMARK                            x       y       z     vdW  Elec       q    Type
REMARK                         _______ _______ _______ _____ _____    ______ ____
ROOT
ATOM      1  C   UNL     1       2.381   7.753  18.638  0.00  0.00    +0.000 A 
ATOM      2  C   UNL     1       2.279   8.959  17.910  0.00  0.00    +0.000 A 
ATOM      3  C   UNL     1       1.465  10.035  18.311  0.00  0.00    +0.000 A 
ATOM      4  C   UNL     1       0.732   9.955  19.496  0.00  0.00    +0.000 A 
ATOM      5  C   UNL     1       0.812   8.749  20.186  0.00  0.00    +0.000 A 
ATOM      6  C   UNL     1       1.613   7.685  19.794  0.00  0.00    +0.000 A 
ATOM      7  O   UNL     1       0.137   8.548  21.354  0.00  0.00    +0.000 OA
ATOM      8  C   UNL     1      -0.018   9.657  22.146  0.00  0.00    +0.000 C 
ATOM      9  C   UNL     1      -0.282  10.866  21.610  0.00  0.00    +0.000 C 
ATOM     10  C   UNL     1      -0.109  11.078  20.099  0.00  0.00    +0.000 C 
ENDROOT
BRANCH  10  11
ATOM     11  C   UNL     1       0.469  12.470  19.792  0.00  0.00    +0.000 A 
ATOM     12  C   UNL     1       1.812  12.793  20.119  0.00  0.00    +0.000 A 
ATOM     13  C   UNL     1       2.350  14.070  19.892  0.00  0.00    +0.000 A 
ATOM     14  C   UNL     1       1.513  15.013  19.320  0.00  0.00    +0.000 A 
ATOM     15  C   UNL     1       0.210  14.702  18.988  0.00  0.00    +0.000 A 
ATOM     16  C   UNL     1      -0.341  13.454  19.206  0.00  0.00    +0.000 A 
ATOM     17  O   UNL     1      -0.461  15.756  18.443  0.00  0.00    +0.000 OA
ATOM     18  C   UNL     1       0.542  16.783  18.517  0.00  0.00    +0.000 C 
ATOM     19  O   UNL     1       1.806  16.307  19.013  0.00  0.00    +0.000 OA
BRANCH  13  20
ATOM     20  O   UNL     1       3.649  14.220  20.280  0.00  0.00    +0.000 OA
ATOM     21  C   UNL     1       3.900  14.341  21.676  0.00  0.00    +0.000 C 
ENDBRANCH  13  20
ENDBRANCH  10  11
BRANCH   8  22
ATOM     22  N   UNL     1       0.183   9.354  23.474  0.00  0.00    +0.000 N 
ATOM     23  H   UNL     1       1.176   9.512  23.670  0.00  0.00    +0.000 HD
ATOM     24  H   UNL     1      -0.234  10.138  23.991  0.00  0.00    +0.000 HD
ENDBRANCH   8  22
BRANCH   9  25
ATOM     25  C   UNL     1      -0.659  11.951  22.450  0.00  0.00    +0.000 C 
ATOM     26  N   UNL     1      -0.948  12.877  23.102  0.00  0.00    +0.000 NA
ENDBRANCH   9  25
BRANCH   1  27
ATOM     27  N   UNL     1       3.208   6.684  18.254  0.00  0.00    +0.000 N 
BRANCH  27  29
ATOM     28  C   UNL     1       4.871   6.351  16.412  0.00  0.00    +0.000 C 
ATOM     29  C   UNL     1       4.570   6.974  17.775  0.00  0.00    +0.000 C 
ENDBRANCH  27  29
BRANCH  27  30
ATOM     30  C   UNL     1       2.796   5.346  18.705  0.00  0.00    +0.000 C 
ATOM     31  C   UNL     1       1.884   4.529  17.812  0.00  0.00    +0.000 C 
ENDBRANCH  27  30
ENDBRANCH   1  27
TORSDOF 7
ENDMDL
MODEL 3
REMARK VINA RESULT:      -6.4      0.559      1.989
REMARK  Name = 
REMARK  10 active torsions:
REMARK  status: ('A' for Active; 'I' for Inactive)
REMARK    1  A    between atoms: C_1  and  C_2
REMARK    2  A    between atoms: C_2  and  N_3
REMARK    3  A    between atoms: N_3  and  C_4
REMARK    4  A    between atoms: N_3  and  C_6
REMARK    5  A    between atoms: C_4  and  C_5
REMARK    6  A    between atoms: C_13  and  N_14
REMARK    7  A    between atoms: C_15  and  C_16
REMARK    8  A    between atoms: C_18  and  C_19
REMARK    9  A    between atoms: C_21  and  O_22
REMARK   10  A    between atoms: O_22  and  C_23
REMARK                            x       y       z     vdW  Elec       q    Type
REMARK                         _______ _______ _______ _____ _____    ______ ____
ROOT
ATOM      1  C   UNL     1       2.259   7.840  18.865  0.00  0.00    +0.000 A 
ATOM      2  C   UNL     1       2.248   9.059  18.151  0.00  0.00    +0.000 A 
ATOM      3  C   UNL     1       1.462  10.165  18.527  0.00  0.00    +0.000 A 
ATOM      4  C   UNL     1       0.666  10.102  19.671  0.00  0.00    +0.000 A 
ATOM      5  C   UNL     1       0.658   8.885  20.347  0.00  0.00    +0.000 A 
ATOM      6  C   UNL     1       1.432   7.792  19.979  0.00  0.00    +0.000 A 
ATOM      7  O   UNL     1      -0.084   8.699  21.476  0.00  0.00    +0.000 OA
ATOM      8  C   UNL     1      -0.230   9.803  22.276  0.00  0.00    +0.000 C 
ATOM      9  C   UNL     1      -0.414  11.030  21.746  0.00  0.00    +0.000 C 
ATOM     10  C   UNL     1      -0.155  11.253  20.249  0.00  0.00    +0.000 C 
ENDROOT
BRANCH  10  11
ATOM     11  C   UNL     1       0.498  12.622  19.992  0.00  0.00    +0.000 A 
ATOM     12  C   UNL     1      -0.215  13.662  19.339  0.00  0.00    +0.000 A 
ATOM     13  C   UNL     1       0.372  14.904  19.051  0.00  0.00    +0.000 A 
ATOM     14  C   UNL     1       1.689  15.083  19.441  0.00  0.00    +0.000 A 
ATOM     15  C   UNL     1       2.384  14.081  20.088  0.00  0.00    +0.000 A 
ATOM     16  C   UNL     1       1.827  12.850  20.379  0.00  0.00    +0.000 A 
ATOM     17  O   UNL     1       3.664  14.437  20.388  0.00  0.00    +0.000 OA
ATOM     18  C   UNL     1       3.721  15.753  19.813  0.00  0.00    +0.000 C 
ATOM     19  O   UNL     1       2.464  16.190  19.268  0.00  0.00    +0.000 OA
BRANCH  13  20
ATOM     20  O   UNL     1      -0.443  15.785  18.403  0.00  0.00    +0.000 OA
ATOM     21  C   UNL     1      -1.007  16.838  19.177  0.00  0.00    +0.000 C 
ENDBRANCH  13  20
ENDBRANCH  10  11
BRANCH   8  22
ATOM     22  N   UNL     1      -0.110   9.474  23.608  0.00  0.00    +0.000 N 
ATOM     23  H   UNL     1      -0.779   8.721  23.792  0.00  0.00    +0.000 HD
ATOM     24  H   UNL     1       0.774   8.956  23.675  0.00  0.00    +0.000 HD
ENDBRANCH   8  22
BRANCH   9  25
ATOM     25  C   UNL     1      -0.785  12.119  22.582  0.00  0.00    +0.000 C 
ATOM     26  N   UNL     1      -1.074  12.985  23.312  0.00  0.00    +0.000 NA
ENDBRANCH   9  25
BRANCH   1  27
ATOM     27  N   UNL     1       3.057   6.741  18.506  0.00  0.00    +0.000 N 
BRANCH  27  29
ATOM     28  C   UNL     1       1.905   4.622  17.833  0.00  0.00    +0.000 C 
ATOM     29  C   UNL     1       2.643   5.393  18.928  0.00  0.00    +0.000 C 
ENDBRANCH  27  29
BRANCH  27  30
ATOM     30  C   UNL     1       4.035   6.967  17.432  0.00  0.00    +0.000 C 
ATOM     31  C   UNL     1       5.383   6.281  17.521  0.00  0.00    +0.000 C 
ENDBRANCH  27  30
ENDBRANCH   1  27
TORSDOF 7
ENDMDL
MODEL 4
REMARK VINA RESULT:      -6.3      0.630      2.318
REMARK  Name = 
REMARK  10 active torsions:
REMARK  status: ('A' for Active; 'I' for Inactive)
REMARK    1  A    between atoms: C_1  and  C_2
REMARK    2  A    between atoms: C_2  and  N_3
REMARK    3  A    between atoms: N_3  and  C_4
REMARK    4  A    between atoms: N_3  and  C_6
REMARK    5  A    between atoms: C_4  and  C_5
REMARK    6  A    between atoms: C_13  and  N_14
REMARK    7  A    between atoms: C_15  and  C_16
REMARK    8  A    between atoms: C_18  and  C_19
REMARK    9  A    between atoms: C_21  and  O_22
REMARK   10  A    between atoms: O_22  and  C_23
REMARK                            x       y       z     vdW  Elec       q    Type
REMARK                         _______ _______ _______ _____ _____    ______ ____
ROOT
ATOM      1  C   UNL     1       2.270   7.865  18.651  0.00  0.00    +0.000 A 
ATOM      2  C   UNL     1       2.233   9.099  17.965  0.00  0.00    +0.000 A 
ATOM      3  C   UNL     1       1.451  10.192  18.387  0.00  0.00    +0.000 A 
ATOM      4  C   UNL     1       0.687  10.098  19.551  0.00  0.00    +0.000 A 
ATOM      5  C   UNL     1       0.703   8.866  20.198  0.00  0.00    +0.000 A 
ATOM      6  C   UNL     1       1.473   7.786  19.786  0.00  0.00    +0.000 A 
ATOM      7  O   UNL     1      -0.007   8.650  21.342  0.00  0.00    +0.000 OA
ATOM      8  C   UNL     1      -0.139   9.735  22.171  0.00  0.00    +0.000 C 
ATOM      9  C   UNL     1      -0.343  10.972  21.674  0.00  0.00    +0.000 C 
ATOM     10  C   UNL     1      -0.125  11.231  20.176  0.00  0.00    +0.000 C 
ENDROOT
BRANCH  10  11
ATOM     11  C   UNL     1       0.513  12.609  19.933  0.00  0.00    +0.000 A 
ATOM     12  C   UNL     1      -0.224  13.660  19.326  0.00  0.00    +0.000 A 
ATOM     13  C   UNL     1       0.348  14.912  19.051  0.00  0.00    +0.000 A 
ATOM     14  C   UNL     1       1.675  15.090  19.407  0.00  0.00    +0.000 A 
ATOM     15  C   UNL     1       2.394  14.076  20.009  0.00  0.00    +0.000 A 
ATOM     16  C   UNL     1       1.852  12.836  20.286  0.00  0.00    +0.000 A 
ATOM     17  O   UNL     1       3.681  14.432  20.280  0.00  0.00    +0.000 OA
ATOM     18  C   UNL     1       3.714  15.762  19.735  0.00  0.00    +0.000 C 
ATOM     19  O   UNL     1       2.439  16.204  19.237  0.00  0.00    +0.000 OA
BRANCH  13  20
ATOM     20  O   UNL     1      -0.489  15.804  18.449  0.00  0.00    +0.000 OA
ATOM     21  C   UNL     1      -0.984  16.873  19.247  0.00  0.00    +0.000 C 
ENDBRANCH  13  20
ENDBRANCH  10  11
BRANCH   8  22
ATOM     22  N   UNL     1       0.018   9.377  23.491  0.00  0.00    +0.000 N 
ATOM     23  H   UNL     1       0.990   9.076  23.606  0.00  0.00    +0.000 HD
ATOM     24  H   UNL     1       0.038  10.266  24.006  0.00  0.00    +0.000 HD
ENDBRANCH   8  22
BRANCH   9  25
ATOM     25  C   UNL     1      -0.698  12.040  22.543  0.00  0.00    +0.000 C 
ATOM     26  N   UNL     1      -1.037  12.923  23.231  0.00  0.00    +0.000 NA
ENDBRANCH   9  25
BRANCH   1  27
ATOM     27  N   UNL     1       3.064   6.779  18.247  0.00  0.00    +0.000 N 
BRANCH  27  29
ATOM     28  C   UNL     1       4.820   5.962  16.660  0.00  0.00    +0.000 C 
ATOM     29  C   UNL     1       4.381   7.045  17.644  0.00  0.00    +0.000 C 
ENDBRANCH  27  29
BRANCH  27  30
ATOM     30  C   UNL     1       2.695   5.463  18.789  0.00  0.00    +0.000 C 
ATOM     31  C   UNL     1       1.782   4.572  17.970  0.00  0.00    +0.000 C 
ENDBRANCH  27  30
ENDBRANCH   1  27
TORSDOF 7
ENDMDL
MODEL 5
REMARK VINA RESULT:      -5.9      4.063      8.253
REMARK  Name = 
REMARK  10 active torsions:
REMARK  status: ('A' for Active; 'I' for Inactive)
REMARK    1  A    between atoms: C_1  and  C_2
REMARK    2  A    between atoms: C_2  and  N_3
REMARK    3  A    between atoms: N_3  and  C_4
REMARK    4  A    between atoms: N_3  and  C_6
REMARK    5  A    between atoms: C_4  and  C_5
REMARK    6  A    between atoms: C_13  and  N_14
REMARK    7  A    between atoms: C_15  and  C_16
REMARK    8  A    between atoms: C_18  and  C_19
REMARK    9  A    between atoms: C_21  and  O_22
REMARK   10  A    between atoms: O_22  and  C_23
REMARK                            x       y       z     vdW  Elec       q    Type
REMARK                         _______ _______ _______ _____ _____    ______ ____
ROOT
ATOM      1  C   UNL     1       0.795   9.223  18.747  0.00  0.00    +0.000 A 
ATOM      2  C   UNL     1       2.049   9.298  18.102  0.00  0.00    +0.000 A 
ATOM      3  C   UNL     1       3.075   8.354  18.300  0.00  0.00    +0.000 A 
ATOM      4  C   UNL     1       2.869   7.263  19.145  0.00  0.00    +0.000 A 
ATOM      5  C   UNL     1       1.643   7.219  19.803  0.00  0.00    +0.000 A 
ATOM      6  C   UNL     1       0.628   8.148  19.610  0.00  0.00    +0.000 A 
ATOM      7  O   UNL     1       1.326   6.205  20.658  0.00  0.00    +0.000 OA
ATOM      8  C   UNL     1       1.857   4.980  20.344  0.00  0.00    +0.000 C 
ATOM      9  C   UNL     1       3.112   4.864  19.865  0.00  0.00    +0.000 C 
ATOM     10  C   UNL     1       3.852   6.117  19.374  0.00  0.00    +0.000 C 
ENDROOT
BRANCH  10  11
ATOM     11  C   UNL     1       4.697   5.815  18.126  0.00  0.00    +0.000 A 
ATOM     12  C   UNL     1       5.942   6.464  17.909  0.00  0.00    +0.000 A 
ATOM     13  C   UNL     1       6.710   6.241  16.756  0.00  0.00    +0.000 A 
ATOM     14  C   UNL     1       6.207   5.345  15.828  0.00  0.00    +0.000 A 
ATOM     15  C   UNL     1       5.005   4.701  16.037  0.00  0.00    +0.000 A 
ATOM     16  C   UNL     1       4.231   4.907  17.163  0.00  0.00    +0.000 A 
ATOM     17  O   UNL     1       4.671   3.863  15.016  0.00  0.00    +0.000 OA
ATOM     18  C   UNL     1       5.765   4.088  14.112  0.00  0.00    +0.000 C 
ATOM     19  O   UNL     1       6.767   4.975  14.642  0.00  0.00    +0.000 OA
BRANCH  13  20
ATOM     20  O   UNL     1       7.869   6.958  16.694  0.00  0.00    +0.000 OA
ATOM     21  C   UNL     1       7.991   8.074  17.567  0.00  0.00    +0.000 C 
ENDBRANCH  13  20
ENDBRANCH  10  11
BRANCH   8  22
ATOM     22  N   UNL     1       0.936   3.973  20.536  0.00  0.00    +0.000 N 
ATOM     23  H   UNL     1       0.178   4.364  21.102  0.00  0.00    +0.000 HD
ATOM     24  H   UNL     1       0.459   3.874  19.632  0.00  0.00    +0.000 HD
ENDBRANCH   8  22
BRANCH   9  25
ATOM     25  C   UNL     1       3.719   3.582  19.758  0.00  0.00    +0.000 C 
ATOM     26  N   UNL     1       4.204   2.528  19.617  0.00  0.00    +0.000 NA
ENDBRANCH   9  25
BRANCH   1  27
ATOM     27  N   UNL     1      -0.240  10.150  18.536  0.00  0.00    +0.000 N 
BRANCH  27  29
ATOM     28  C   UNL     1      -2.645  10.053  17.846  0.00  0.00    +0.000 C 
ATOM     29  C   UNL     1      -1.181   9.925  17.426  0.00  0.00    +0.000 C 
ENDBRANCH  27  29
BRANCH  27  30
ATOM     30  C   UNL     1      -0.535  11.063  19.650  0.00  0.00    +0.000 C 
ATOM     31  C   UNL     1       0.622  11.642  20.439  0.00  0.00    +0.000 C 
ENDBRANCH  27  30
ENDBRANCH   1  27
TORSDOF 7
ENDMDL
MODEL 6
REMARK VINA RESULT:      -5.9      3.793      7.264
REMARK  Name = 
REMARK  10 active torsions:
REMARK  status: ('A' for Active; 'I' for Inactive)
REMARK    1  A    between atoms: C_1  and  C_2
REMARK    2  A    between atoms: C_2  and  N_3
REMARK    3  A    between atoms: N_3  and  C_4
REMARK    4  A    between atoms: N_3  and  C_6
REMARK    5  A    between atoms: C_4  and  C_5
REMARK    6  A    between atoms: C_13  and  N_14
REMARK    7  A    between atoms: C_15  and  C_16
REMARK    8  A    between atoms: C_18  and  C_19
REMARK    9  A    between atoms: C_21  and  O_22
REMARK   10  A    between atoms: O_22  and  C_23
REMARK                            x       y       z     vdW  Elec       q    Type
REMARK                         _______ _______ _______ _____ _____    ______ ____
ROOT
ATOM      1  C   UNL     1      -4.793  11.317  18.619  0.00  0.00    +0.000 A 
ATOM      2  C   UNL     1      -3.893  10.401  18.033  0.00  0.00    +0.000 A 
ATOM      3  C   UNL     1      -2.495  10.563  18.069  0.00  0.00    +0.000 A 
ATOM      4  C   UNL     1      -1.934  11.654  18.734  0.00  0.00    +0.000 A 
ATOM      5  C   UNL     1      -2.831  12.569  19.277  0.00  0.00    +0.000 A 
ATOM      6  C   UNL     1      -4.210  12.413  19.244  0.00  0.00    +0.000 A 
ATOM      7  O   UNL     1      -2.404  13.678  19.947  0.00  0.00    +0.000 OA
ATOM      8  C   UNL     1      -1.234  13.532  20.647  0.00  0.00    +0.000 C 
ATOM      9  C   UNL     1      -0.206  12.815  20.148  0.00  0.00    +0.000 C 
ATOM     10  C   UNL     1      -0.440  11.901  18.936  0.00  0.00    +0.000 C 
ENDROOT
BRANCH  10  11
ATOM     11  C   UNL     1       0.356  10.591  19.062  0.00  0.00    +0.000 A 
ATOM     12  C   UNL     1       0.394   9.872  20.286  0.00  0.00    +0.000 A 
ATOM     13  C   UNL     1       1.150   8.699  20.440  0.00  0.00    +0.000 A 
ATOM     14  C   UNL     1       1.860   8.258  19.336  0.00  0.00    +0.000 A 
ATOM     15  C   UNL     1       1.818   8.945  18.140  0.00  0.00    +0.000 A 
ATOM     16  C   UNL     1       1.084  10.103  17.966  0.00  0.00    +0.000 A 
ATOM     17  O   UNL     1       2.582   8.366  17.172  0.00  0.00    +0.000 OA
ATOM     18  C   UNL     1       3.156   7.268  17.901  0.00  0.00    +0.000 C 
ATOM     19  O   UNL     1       2.660   7.159  19.247  0.00  0.00    +0.000 OA
BRANCH  13  20
ATOM     20  O   UNL     1       1.093   8.142  21.684  0.00  0.00    +0.000 OA
ATOM     21  C   UNL     1       1.068   9.032  22.794  0.00  0.00    +0.000 C 
ENDBRANCH  13  20
ENDBRANCH  10  11
BRANCH   8  22
ATOM     22  N   UNL     1      -1.307  14.150  21.876  0.00  0.00    +0.000 N 
ATOM     23  H   UNL     1      -0.638  14.925  21.861  0.00  0.00    +0.000 HD
ATOM     24  H   UNL     1      -2.192  14.670  21.859  0.00  0.00    +0.000 HD
ENDBRANCH   8  22
BRANCH   9  25
ATOM     25  C   UNL     1       1.068  12.860  20.779  0.00  0.00    +0.000 C 
ATOM     26  N   UNL     1       2.107  12.951  21.306  0.00  0.00    +0.000 NA
ENDBRANCH   9  25
BRANCH   1  27
ATOM     27  N   UNL     1      -6.188  11.149  18.605  0.00  0.00    +0.000 N 
BRANCH  27  29
ATOM     28  C   UNL     1      -7.736  13.115  18.548  0.00  0.00    +0.000 C 
ATOM     29  C   UNL     1      -7.003  12.034  17.756  0.00  0.00    +0.000 C 
ENDBRANCH  27  29
BRANCH  27  30
ATOM     30  C   UNL     1      -6.697   9.878  19.140  0.00  0.00    +0.000 C 
ATOM     31  C   UNL     1      -7.459   9.895  20.450  0.00  0.00    +0.000 C 
ENDBRANCH  27  30
ENDBRANCH   1  27
TORSDOF 7
ENDMDL
MODEL 7
REMARK VINA RESULT:      -5.8      4.149      8.341
REMARK  Name = 
REMARK  10 active torsions:
REMARK  status: ('A' for Active; 'I' for Inactive)
REMARK    1  A    between atoms: C_1  and  C_2
REMARK    2  A    between atoms: C_2  and  N_3
REMARK    3  A    between atoms: N_3  and  C_4
REMARK    4  A    between atoms: N_3  and  C_6
REMARK    5  A    between atoms: C_4  and  C_5
REMARK    6  A    between atoms: C_13  and  N_14
REMARK    7  A    between atoms: C_15  and  C_16
REMARK    8  A    between atoms: C_18  and  C_19
REMARK    9  A    between atoms: C_21  and  O_22
REMARK   10  A    between atoms: O_22  and  C_23
REMARK                            x       y       z     vdW  Elec       q    Type
REMARK                         _______ _______ _______ _____ _____    ______ ____
ROOT
ATOM      1  C   UNL     1       0.757   9.197  18.659  0.00  0.00    +0.000 A 
ATOM      2  C   UNL     1       2.018   9.275  18.029  0.00  0.00    +0.000 A 
ATOM      3  C   UNL     1       3.045   8.335  18.240  0.00  0.00    +0.000 A 
ATOM      4  C   UNL     1       2.832   7.243  19.082  0.00  0.00    +0.000 A 
ATOM      5  C   UNL     1       1.598   7.195  19.725  0.00  0.00    +0.000 A 
ATOM      6  C   UNL     1       0.583   8.121  19.519  0.00  0.00    +0.000 A 
ATOM      7  O   UNL     1       1.274   6.180  20.576  0.00  0.00    +0.000 OA
ATOM      8  C   UNL     1       1.812   4.956  20.269  0.00  0.00    +0.000 C 
ATOM      9  C   UNL     1       3.073   4.845  19.805  0.00  0.00    +0.000 C 
ATOM     10  C   UNL     1       3.816   6.100  19.323  0.00  0.00    +0.000 C 
ENDROOT
BRANCH  10  11
ATOM     11  C   UNL     1       4.677   5.800  18.085  0.00  0.00    +0.000 A 
ATOM     12  C   UNL     1       5.908   6.475  17.869  0.00  0.00    +0.000 A 
ATOM     13  C   UNL     1       6.690   6.254  16.725  0.00  0.00    +0.000 A 
ATOM     14  C   UNL     1       6.215   5.334  15.805  0.00  0.00    +0.000 A 
ATOM     15  C   UNL     1       5.026   4.666  16.014  0.00  0.00    +0.000 A 
ATOM     16  C   UNL     1       4.238   4.870  17.132  0.00  0.00    +0.000 A 
ATOM     17  O   UNL     1       4.718   3.807  15.002  0.00  0.00    +0.000 OA
ATOM     18  C   UNL     1       5.815   4.045  14.103  0.00  0.00    +0.000 C 
ATOM     19  O   UNL     1       6.792   4.961  14.629  0.00  0.00    +0.000 OA
BRANCH  13  20
ATOM     20  O   UNL     1       7.833   6.996  16.662  0.00  0.00    +0.000 OA
ATOM     21  C   UNL     1       7.884   8.179  17.450  0.00  0.00    +0.000 C 
ENDBRANCH  13  20
ENDBRANCH  10  11
BRANCH   8  22
ATOM     22  N   UNL     1       0.892   3.947  20.449  0.00  0.00    +0.000 N 
ATOM     23  H   UNL     1       0.444   4.109  21.355  0.00  0.00    +0.000 HD
ATOM     24  H   UNL     1       0.117   4.178  19.816  0.00  0.00    +0.000 HD
ENDBRANCH   8  22
BRANCH   9  25
ATOM     25  C   UNL     1       3.686   3.565  19.705  0.00  0.00    +0.000 C 
ATOM     26  N   UNL     1       4.154   2.495  19.662  0.00  0.00    +0.000 NA
ENDBRANCH   9  25
BRANCH   1  27
ATOM     27  N   UNL     1      -0.279  10.120  18.435  0.00  0.00    +0.000 N 
BRANCH  27  29
ATOM     28  C   UNL     1      -0.692  11.709  20.324  0.00  0.00    +0.000 C 
ATOM     29  C   UNL     1      -0.120  11.500  18.923  0.00  0.00    +0.000 C 
ENDBRANCH  27  29
BRANCH  27  30
ATOM     30  C   UNL     1      -1.273   9.751  17.416  0.00  0.00    +0.000 C 
ATOM     31  C   UNL     1      -2.410  10.712  17.131  0.00  0.00    +0.000 C 
ENDBRANCH  27  30
ENDBRANCH   1  27
TORSDOF 7
ENDMDL
MODEL 8
REMARK VINA RESULT:      -5.8      3.550      7.154
REMARK  Name = 
REMARK  10 active torsions:
REMARK  status: ('A' for Active; 'I' for Inactive)
REMARK    1  A    between atoms: C_1  and  C_2
REMARK    2  A    between atoms: C_2  and  N_3
REMARK    3  A    between atoms: N_3  and  C_4
REMARK    4  A    between atoms: N_3  and  C_6
REMARK    5  A    between atoms: C_4  and  C_5
REMARK    6  A    between atoms: C_13  and  N_14
REMARK    7  A    between atoms: C_15  and  C_16
REMARK    8  A    between atoms: C_18  and  C_19
REMARK    9  A    between atoms: C_21  and  O_22
REMARK   10  A    between atoms: O_22  and  C_23
REMARK                            x       y       z     vdW  Elec       q    Type
REMARK                         _______ _______ _______ _____ _____    ______ ____
ROOT
ATOM      1  C   UNL     1      -2.853  10.720  17.515  0.00  0.00    +0.000 A 
ATOM      2  C   UNL     1      -1.772  10.023  16.932  0.00  0.00    +0.000 A 
ATOM      3  C   UNL     1      -0.535   9.840  17.578  0.00  0.00    +0.000 A 
ATOM      4  C   UNL     1      -0.340  10.330  18.870  0.00  0.00    +0.000 A 
ATOM      5  C   UNL     1      -1.399  11.045  19.421  0.00  0.00    +0.000 A 
ATOM      6  C   UNL     1      -2.621  11.228  18.787  0.00  0.00    +0.000 A 
ATOM      7  O   UNL     1      -1.327  11.578  20.674  0.00  0.00    +0.000 OA
ATOM      8  C   UNL     1      -0.581  10.865  21.578  0.00  0.00    +0.000 C 
ATOM      9  C   UNL     1       0.572  10.268  21.214  0.00  0.00    +0.000 C 
ATOM     10  C   UNL     1       0.909  10.118  19.723  0.00  0.00    +0.000 C 
ENDROOT
BRANCH  10  11
ATOM     11  C   UNL     1       1.590   8.770  19.436  0.00  0.00    +0.000 A 
ATOM     12  C   UNL     1       1.375   7.647  20.279  0.00  0.00    +0.000 A 
ATOM     13  C   UNL     1       2.020   6.419  20.066  0.00  0.00    +0.000 A 
ATOM     14  C   UNL     1       2.880   6.338  18.983  0.00  0.00    +0.000 A 
ATOM     15  C   UNL     1       3.084   7.422  18.153  0.00  0.00    +0.000 A 
ATOM     16  C   UNL     1       2.462   8.641  18.345  0.00  0.00    +0.000 A 
ATOM     17  O   UNL     1       3.965   7.157  17.147  0.00  0.00    +0.000 OA
ATOM     18  C   UNL     1       4.338   5.805  17.464  0.00  0.00    +0.000 C 
ATOM     19  O   UNL     1       3.615   5.263  18.583  0.00  0.00    +0.000 OA
BRANCH  13  20
ATOM     20  O   UNL     1       1.719   5.449  20.977  0.00  0.00    +0.000 OA
ATOM     21  C   UNL     1       1.061   4.284  20.492  0.00  0.00    +0.000 C 
ENDBRANCH  13  20
ENDBRANCH  10  11
BRANCH   8  22
ATOM     22  N   UNL     1      -1.196  10.821  22.809  0.00  0.00    +0.000 N 
ATOM     23  H   UNL     1      -0.596  10.264  23.424  0.00  0.00    +0.000 HD
ATOM     24  H   UNL     1      -1.054  11.756  23.210  0.00  0.00    +0.000 HD
ENDBRANCH   8  22
BRANCH   9  25
ATOM     25  C   UNL     1       1.439   9.728  22.204  0.00  0.00    +0.000 C 
ATOM     26  N   UNL     1       2.106   9.266  23.045  0.00  0.00    +0.000 NA
ENDBRANCH   9  25
BRANCH   1  27
ATOM     27  N   UNL     1      -4.097  10.887  16.884  0.00  0.00    +0.000 N 
BRANCH  27  29
ATOM     28  C   UNL     1      -5.973  12.464  17.395  0.00  0.00    +0.000 C 
ATOM     29  C   UNL     1      -5.289  11.135  17.712  0.00  0.00    +0.000 C 
ENDBRANCH  27  29
BRANCH  27  30
ATOM     30  C   UNL     1      -4.064  11.173  15.442  0.00  0.00    +0.000 C 
ATOM     31  C   UNL     1      -3.740  10.043  14.485  0.00  0.00    +0.000 C 
ENDBRANCH  27  30
ENDBRANCH   1  27
TORSDOF 7
ENDMDL
MODEL 9
REMARK VINA RESULT:      -5.7      3.849      7.235
REMARK  Name = 
REMARK  10 active torsions:
REMARK  status: ('A' for Active; 'I' for Inactive)
REMARK    1  A    between atoms: C_1  and  C_2
REMARK    2  A    between atoms: C_2  and  N_3
REMARK    3  A    between atoms: N_3  and  C_4
REMARK    4  A    between atoms: N_3  and  C_6
REMARK    5  A    between atoms: C_4  and  C_5
REMARK    6  A    between atoms: C_13  and  N_14
REMARK    7  A    between atoms: C_15  and  C_16
REMARK    8  A    between atoms: C_18  and  C_19
REMARK    9  A    between atoms: C_21  and  O_22
REMARK   10  A    between atoms: O_22  and  C_23
REMARK                            x       y       z     vdW  Elec       q    Type
REMARK                         _______ _______ _______ _____ _____    ______ ____
ROOT
ATOM      1  C   UNL     1      -5.333  11.818  19.113  0.00  0.00    +0.000 A 
ATOM      2  C   UNL     1      -4.430  10.965  18.443  0.00  0.00    +0.000 A 
ATOM      3  C   UNL     1      -3.035  11.161  18.448  0.00  0.00    +0.000 A 
ATOM      4  C   UNL     1      -2.480  12.223  19.163  0.00  0.00    +0.000 A 
ATOM      5  C   UNL     1      -3.382  13.078  19.790  0.00  0.00    +0.000 A 
ATOM      6  C   UNL     1      -4.758  12.887  19.788  0.00  0.00    +0.000 A 
ATOM      7  O   UNL     1      -2.961  14.153  20.516  0.00  0.00    +0.000 OA
ATOM      8  C   UNL     1      -1.766  13.995  21.170  0.00  0.00    +0.000 C 
ATOM      9  C   UNL     1      -0.738  13.338  20.596  0.00  0.00    +0.000 C 
ATOM     10  C   UNL     1      -0.987  12.495  19.336  0.00  0.00    +0.000 C 
ENDROOT
BRANCH  10  11
ATOM     11  C   UNL     1      -0.156  11.202  19.354  0.00  0.00    +0.000 A 
ATOM     12  C   UNL     1      -0.127  10.366  20.503  0.00  0.00    +0.000 A 
ATOM     13  C   UNL     1       0.660   9.205  20.562  0.00  0.00    +0.000 A 
ATOM     14  C   UNL     1       1.409   8.895  19.440  0.00  0.00    +0.000 A 
ATOM     15  C   UNL     1       1.376   9.695  18.316  0.00  0.00    +0.000 A 
ATOM     16  C   UNL     1       0.612  10.844  18.237  0.00  0.00    +0.000 A 
ATOM     17  O   UNL     1       2.181   9.235  17.317  0.00  0.00    +0.000 OA
ATOM     18  C   UNL     1       2.769   8.087  17.951  0.00  0.00    +0.000 C 
ATOM     19  O   UNL     1       2.244   7.832  19.266  0.00  0.00    +0.000 OA
BRANCH  13  20
ATOM     20  O   UNL     1       0.589   8.527  21.743  0.00  0.00    +0.000 OA
ATOM     21  C   UNL     1       0.069   9.229  22.866  0.00  0.00    +0.000 C 
ENDBRANCH  13  20
ENDBRANCH  10  11
BRANCH   8  22
ATOM     22  N   UNL     1      -1.816  14.532  22.437  0.00  0.00    +0.000 N 
ATOM     23  H   UNL     1      -1.292  15.411  22.410  0.00  0.00    +0.000 HD
ATOM     24  H   UNL     1      -2.773  14.891  22.536  0.00  0.00    +0.000 HD
ENDBRANCH   8  22
BRANCH   9  25
ATOM     25  C   UNL     1       0.554  13.376  21.191  0.00  0.00    +0.000 C 
ATOM     26  N   UNL     1       1.636  13.394  21.631  0.00  0.00    +0.000 NA
ENDBRANCH   9  25
BRANCH   1  27
ATOM     27  N   UNL     1      -6.723  11.615  19.130  0.00  0.00    +0.000 N 
BRANCH  27  29
ATOM     28  C   UNL     1      -7.190   9.291  19.935  0.00  0.00    +0.000 C 
ATOM     29  C   UNL     1      -7.309  10.791  20.200  0.00  0.00    +0.000 C 
ENDBRANCH  27  29
BRANCH  27  30
ATOM     30  C   UNL     1      -7.526  12.532  18.308  0.00  0.00    +0.000 C 
ATOM     31  C   UNL     1      -6.877  13.185  17.104  0.00  0.00    +0.000 C 
ENDBRANCH  27  30
ENDBRANCH   1  27
TORSDOF 7
ENDMDL
