MODEL 1
REMARK VINA RESULT:      -8.0      0.000      0.000
REMARK  Name = 
REMARK  3 active torsions:
REMARK  status: ('A' for Active; 'I' for Inactive)
REMARK    1  A    between atoms: C_4  and  C_5
REMARK    2  A    between atoms: C_13  and  C_14
REMARK    3  A    between atoms: C_17  and  C_18
REMARK                            x       y       z     vdW  Elec       q    Type
REMARK                         _______ _______ _______ _____ _____    ______ ____
ROOT
ATOM      1  O   UNL     1       6.621   3.870  14.159  0.00  0.00    +0.000 OA
ATOM      2  C   UNL     1       6.239   4.309  15.236  0.00  0.00    +0.000 C 
ATOM      3  C   UNL     1       5.074   3.733  15.923  0.00  0.00    +0.000 C 
ATOM      4  C   UNL     1       4.646   4.201  17.103  0.00  0.00    +0.000 C 
ATOM      5  C   UNL     1       5.349   5.335  17.773  0.00  0.00    +0.000 C 
ATOM      6  O   UNL     1       4.982   5.765  18.861  0.00  0.00    +0.000 OA
ATOM      7  C   UNL     1       6.519   5.930  17.060  0.00  0.00    +0.000 C 
ATOM      8  C   UNL     1       6.924   5.440  15.880  0.00  0.00    +0.000 C 
ENDROOT
BRANCH   4   9
ATOM      9  C   UNL     1       3.456   3.590  17.712  0.00  0.00    +0.000 A 
ATOM     10  C   UNL     1       3.527   2.321  18.300  0.00  0.00    +0.000 A 
ATOM     11  C   UNL     1       2.385   1.739  18.855  0.00  0.00    +0.000 A 
ATOM     12  C   UNL     1       1.168   2.419  18.823  0.00  0.00    +0.000 A 
ATOM     13  C   UNL     1       1.090   3.681  18.239  0.00  0.00    +0.000 A 
ATOM     14  C   UNL     1       2.229   4.267  17.684  0.00  0.00    +0.000 A 
ENDBRANCH   4   9
BRANCH   7  15
ATOM     15  C   UNL     1       7.240   7.078  17.628  0.00  0.00    +0.000 A 
ATOM     16  C   UNL     1       7.038   8.361  17.103  0.00  0.00    +0.000 A 
ATOM     17  C   UNL     1       7.732   9.456  17.627  0.00  0.00    +0.000 A 
ATOM     18  C   UNL     1       8.639   9.288  18.683  0.00  0.00    +0.000 A 
ATOM     19  C   UNL     1       8.838   8.000  19.204  0.00  0.00    +0.000 A 
ATOM     20  C   UNL     1       8.145   6.903  18.680  0.00  0.00    +0.000 A 
BRANCH  18  21
ATOM     21  C   UNL     1       9.391  10.462  19.261  0.00  0.00    +0.000 C 
ATOM     22  F   UNL     1      10.707  10.495  18.909  0.00  0.00    +0.000 F 
ATOM     23  F   UNL     1       8.870  11.660  18.874  0.00  0.00    +0.000 F 
ATOM     24  F   UNL     1       9.373  10.470  20.623  0.00  0.00    +0.000 F 
ENDBRANCH  18  21
ENDBRANCH   7  15
TORSDOF 3
ENDMDL
MODEL 2
REMARK VINA RESULT:      -8.0      0.089      1.254
REMARK  Name = 
REMARK  3 active torsions:
REMARK  status: ('A' for Active; 'I' for Inactive)
REMARK    1  A    between atoms: C_4  and  C_5
REMARK    2  A    between atoms: C_13  and  C_14
REMARK    3  A    between atoms: C_17  and  C_18
REMARK                            x       y       z     vdW  Elec       q    Type
REMARK                         _______ _______ _______ _____ _____    ______ ____
ROOT
ATOM      1  O   UNL     1       6.699   3.950  14.099  0.00  0.00    +0.000 OA
ATOM      2  C   UNL     1       6.308   4.373  15.179  0.00  0.00    +0.000 C 
ATOM      3  C   UNL     1       5.143   3.782  15.852  0.00  0.00    +0.000 C 
ATOM      4  C   UNL     1       4.706   4.233  17.036  0.00  0.00    +0.000 C 
ATOM      5  C   UNL     1       5.398   5.364  17.723  0.00  0.00    +0.000 C 
ATOM      6  O   UNL     1       5.022   5.779  18.814  0.00  0.00    +0.000 OA
ATOM      7  C   UNL     1       6.568   5.974  17.023  0.00  0.00    +0.000 C 
ATOM      8  C   UNL     1       6.982   5.502  15.840  0.00  0.00    +0.000 C 
ENDROOT
BRANCH   4   9
ATOM      9  C   UNL     1       3.517   3.607  17.630  0.00  0.00    +0.000 A 
ATOM     10  C   UNL     1       2.267   4.235  17.557  0.00  0.00    +0.000 A 
ATOM     11  C   UNL     1       1.147   3.643  18.145  0.00  0.00    +0.000 A 
ATOM     12  C   UNL     1       1.270   2.424  18.811  0.00  0.00    +0.000 A 
ATOM     13  C   UNL     1       2.510   1.794  18.889  0.00  0.00    +0.000 A 
ATOM     14  C   UNL     1       3.631   2.382  18.301  0.00  0.00    +0.000 A 
ENDBRANCH   4   9
BRANCH   7  15
ATOM     15  C   UNL     1       7.278   7.121  17.609  0.00  0.00    +0.000 A 
ATOM     16  C   UNL     1       7.081   8.407  17.089  0.00  0.00    +0.000 A 
ATOM     17  C   UNL     1       7.765   9.499  17.630  0.00  0.00    +0.000 A 
ATOM     18  C   UNL     1       8.657   9.326  18.698  0.00  0.00    +0.000 A 
ATOM     19  C   UNL     1       8.850   8.035  19.214  0.00  0.00    +0.000 A 
ATOM     20  C   UNL     1       8.168   6.941  18.673  0.00  0.00    +0.000 A 
BRANCH  18  21
ATOM     21  C   UNL     1       9.398  10.499  19.294  0.00  0.00    +0.000 C 
ATOM     22  F   UNL     1       8.888  11.709  18.930  0.00  0.00    +0.000 F 
ATOM     23  F   UNL     1       9.391  10.485  20.656  0.00  0.00    +0.000 F 
ATOM     24  F   UNL     1      10.709  10.525  18.927  0.00  0.00    +0.000 F 
ENDBRANCH  18  21
ENDBRANCH   7  15
TORSDOF 3
ENDMDL
MODEL 3
REMARK VINA RESULT:      -7.8      0.317      1.628
REMARK  Name = 
REMARK  3 active torsions:
REMARK  status: ('A' for Active; 'I' for Inactive)
REMARK    1  A    between atoms: C_4  and  C_5
REMARK    2  A    between atoms: C_13  and  C_14
REMARK    3  A    between atoms: C_17  and  C_18
REMARK                            x       y       z     vdW  Elec       q    Type
REMARK                         _______ _______ _______ _____ _____    ______ ____
ROOT
ATOM      1  O   UNL     1       6.419   3.682  14.311  0.00  0.00    +0.000 OA
ATOM      2  C   UNL     1       6.079   4.171  15.381  0.00  0.00    +0.000 C 
ATOM      3  C   UNL     1       4.933   3.640  16.132  0.00  0.00    +0.000 C 
ATOM      4  C   UNL     1       4.552   4.165  17.305  0.00  0.00    +0.000 C 
ATOM      5  C   UNL     1       5.290   5.318  17.900  0.00  0.00    +0.000 C 
ATOM      6  O   UNL     1       4.965   5.800  18.980  0.00  0.00    +0.000 OA
ATOM      7  C   UNL     1       6.440   5.867  17.121  0.00  0.00    +0.000 C 
ATOM      8  C   UNL     1       6.798   5.322  15.950  0.00  0.00    +0.000 C 
ENDROOT
BRANCH   4   9
ATOM      9  C   UNL     1       3.378   3.595  17.980  0.00  0.00    +0.000 A 
ATOM     10  C   UNL     1       2.090   4.069  17.697  0.00  0.00    +0.000 A 
ATOM     11  C   UNL     1       0.983   3.537  18.362  0.00  0.00    +0.000 A 
ATOM     12  C   UNL     1       1.155   2.532  19.313  0.00  0.00    +0.000 A 
ATOM     13  C   UNL     1       2.433   2.055  19.600  0.00  0.00    +0.000 A 
ATOM     14  C   UNL     1       3.542   2.585  18.938  0.00  0.00    +0.000 A 
ENDBRANCH   4   9
BRANCH   7  15
ATOM     15  C   UNL     1       7.193   7.030  17.613  0.00  0.00    +0.000 A 
ATOM     16  C   UNL     1       8.088   6.885  18.680  0.00  0.00    +0.000 A 
ATOM     17  C   UNL     1       8.794   7.989  19.165  0.00  0.00    +0.000 A 
ATOM     18  C   UNL     1       8.618   9.257  18.592  0.00  0.00    +0.000 A 
ATOM     19  C   UNL     1       7.719   9.396  17.524  0.00  0.00    +0.000 A 
ATOM     20  C   UNL     1       7.010   8.293  17.039  0.00  0.00    +0.000 A 
BRANCH  18  21
ATOM     21  C   UNL     1       9.380  10.457  19.103  0.00  0.00    +0.000 C 
ATOM     22  F   UNL     1       8.711  11.634  18.947  0.00  0.00    +0.000 F 
ATOM     23  F   UNL     1       9.673  10.366  20.429  0.00  0.00    +0.000 F 
ATOM     24  F   UNL     1      10.573  10.623  18.467  0.00  0.00    +0.000 F 
ENDBRANCH  18  21
ENDBRANCH   7  15
TORSDOF 3
ENDMDL
MODEL 4
REMARK VINA RESULT:      -7.7      0.226      1.255
REMARK  Name = 
REMARK  3 active torsions:
REMARK  status: ('A' for Active; 'I' for Inactive)
REMARK    1  A    between atoms: C_4  and  C_5
REMARK    2  A    between atoms: C_13  and  C_14
REMARK    3  A    between atoms: C_17  and  C_18
REMARK                            x       y       z     vdW  Elec       q    Type
REMARK                         _______ _______ _______ _____ _____    ______ ____
ROOT
ATOM      1  O   UNL     1       6.440   3.925  14.155  0.00  0.00    +0.000 OA
ATOM      2  C   UNL     1       6.111   4.353  15.253  0.00  0.00    +0.000 C 
ATOM      3  C   UNL     1       4.988   3.763  15.997  0.00  0.00    +0.000 C 
ATOM      4  C   UNL     1       4.619   4.221  17.201  0.00  0.00    +0.000 C 
ATOM      5  C   UNL     1       5.348   5.357  17.841  0.00  0.00    +0.000 C 
ATOM      6  O   UNL     1       5.034   5.777  18.949  0.00  0.00    +0.000 OA
ATOM      7  C   UNL     1       6.473   5.966  17.071  0.00  0.00    +0.000 C 
ATOM      8  C   UNL     1       6.819   5.487  15.868  0.00  0.00    +0.000 C 
ENDROOT
BRANCH   4   9
ATOM      9  C   UNL     1       3.468   3.596  17.867  0.00  0.00    +0.000 A 
ATOM     10  C   UNL     1       3.655   2.573  18.806  0.00  0.00    +0.000 A 
ATOM     11  C   UNL     1       2.553   1.970  19.416  0.00  0.00    +0.000 A 
ATOM     12  C   UNL     1       1.261   2.382  19.091  0.00  0.00    +0.000 A 
ATOM     13  C   UNL     1       1.068   3.398  18.157  0.00  0.00    +0.000 A 
ATOM     14  C   UNL     1       2.167   4.004  17.546  0.00  0.00    +0.000 A 
ENDBRANCH   4   9
BRANCH   7  15
ATOM     15  C   UNL     1       7.214   7.117  17.608  0.00  0.00    +0.000 A 
ATOM     16  C   UNL     1       8.163   6.928  18.621  0.00  0.00    +0.000 A 
ATOM     17  C   UNL     1       8.859   8.019  19.148  0.00  0.00    +0.000 A 
ATOM     18  C   UNL     1       8.618   9.317  18.674  0.00  0.00    +0.000 A 
ATOM     19  C   UNL     1       7.665   9.499  17.660  0.00  0.00    +0.000 A 
ATOM     20  C   UNL     1       6.967   8.409  17.132  0.00  0.00    +0.000 A 
BRANCH  18  21
ATOM     21  C   UNL     1       9.367  10.503  19.232  0.00  0.00    +0.000 C 
ATOM     22  F   UNL     1       8.942  11.699  18.736  0.00  0.00    +0.000 F 
ATOM     23  F   UNL     1       9.262  10.601  20.586  0.00  0.00    +0.000 F 
ATOM     24  F   UNL     1      10.702  10.447  18.964  0.00  0.00    +0.000 F 
ENDBRANCH  18  21
ENDBRANCH   7  15
TORSDOF 3
ENDMDL
MODEL 5
REMARK VINA RESULT:      -7.7      5.000      6.741
REMARK  Name = 
REMARK  3 active torsions:
REMARK  status: ('A' for Active; 'I' for Inactive)
REMARK    1  A    between atoms: C_4  and  C_5
REMARK    2  A    between atoms: C_13  and  C_14
REMARK    3  A    between atoms: C_17  and  C_18
REMARK                            x       y       z     vdW  Elec       q    Type
REMARK                         _______ _______ _______ _____ _____    ______ ____
ROOT
ATOM      1  O   UNL     1       2.146   3.230  21.047  0.00  0.00    +0.000 OA
ATOM      2  C   UNL     1       2.517   4.156  20.337  0.00  0.00    +0.000 C 
ATOM      3  C   UNL     1       3.568   3.966  19.326  0.00  0.00    +0.000 C 
ATOM      4  C   UNL     1       3.982   4.970  18.540  0.00  0.00    +0.000 C 
ATOM      5  C   UNL     1       3.380   6.331  18.661  0.00  0.00    +0.000 C 
ATOM      6  O   UNL     1       3.735   7.256  17.939  0.00  0.00    +0.000 OA
ATOM      7  C   UNL     1       2.329   6.522  19.705  0.00  0.00    +0.000 C 
ATOM      8  C   UNL     1       1.935   5.499  20.477  0.00  0.00    +0.000 C 
ENDROOT
BRANCH   4   9
ATOM      9  C   UNL     1       5.057   4.707  17.573  0.00  0.00    +0.000 A 
ATOM     10  C   UNL     1       6.400   4.855  17.941  0.00  0.00    +0.000 A 
ATOM     11  C   UNL     1       7.414   4.625  17.008  0.00  0.00    +0.000 A 
ATOM     12  C   UNL     1       7.092   4.249  15.704  0.00  0.00    +0.000 A 
ATOM     13  C   UNL     1       5.757   4.100  15.331  0.00  0.00    +0.000 A 
ATOM     14  C   UNL     1       4.742   4.329  16.261  0.00  0.00    +0.000 A 
ENDBRANCH   4   9
BRANCH   7  15
ATOM     15  C   UNL     1       1.717   7.841  19.921  0.00  0.00    +0.000 A 
ATOM     16  C   UNL     1       1.256   8.199  21.195  0.00  0.00    +0.000 A 
ATOM     17  C   UNL     1       0.658   9.444  21.405  0.00  0.00    +0.000 A 
ATOM     18  C   UNL     1       0.510  10.353  20.347  0.00  0.00    +0.000 A 
ATOM     19  C   UNL     1       0.973   9.988  19.074  0.00  0.00    +0.000 A 
ATOM     20  C   UNL     1       1.570   8.742  18.861  0.00  0.00    +0.000 A 
BRANCH  18  21
ATOM     21  C   UNL     1      -0.129  11.704  20.563  0.00  0.00    +0.000 C 
ATOM     22  F   UNL     1       0.006  12.548  19.501  0.00  0.00    +0.000 F 
ATOM     23  F   UNL     1      -1.467  11.619  20.804  0.00  0.00    +0.000 F 
ATOM     24  F   UNL     1       0.402  12.365  21.629  0.00  0.00    +0.000 F 
ENDBRANCH  18  21
ENDBRANCH   7  15
TORSDOF 3
ENDMDL
MODEL 6
REMARK VINA RESULT:      -7.6      5.030      6.733
REMARK  Name = 
REMARK  3 active torsions:
REMARK  status: ('A' for Active; 'I' for Inactive)
REMARK    1  A    between atoms: C_4  and  C_5
REMARK    2  A    between atoms: C_13  and  C_14
REMARK    3  A    between atoms: C_17  and  C_18
REMARK                            x       y       z     vdW  Elec       q    Type
REMARK                         _______ _______ _______ _____ _____    ______ ____
ROOT
ATOM      1  O   UNL     1       2.158   3.209  21.109  0.00  0.00    +0.000 OA
ATOM      2  C   UNL     1       2.513   4.146  20.406  0.00  0.00    +0.000 C 
ATOM      3  C   UNL     1       3.545   3.975  19.373  0.00  0.00    +0.000 C 
ATOM      4  C   UNL     1       3.942   4.992  18.595  0.00  0.00    +0.000 C 
ATOM      5  C   UNL     1       3.339   6.349  18.748  0.00  0.00    +0.000 C 
ATOM      6  O   UNL     1       3.678   7.286  18.033  0.00  0.00    +0.000 OA
ATOM      7  C   UNL     1       2.307   6.521  19.814  0.00  0.00    +0.000 C 
ATOM      8  C   UNL     1       1.931   5.486  20.577  0.00  0.00    +0.000 C 
ENDROOT
BRANCH   4   9
ATOM      9  C   UNL     1       4.999   4.746  17.604  0.00  0.00    +0.000 A 
ATOM     10  C   UNL     1       4.677   4.353  16.298  0.00  0.00    +0.000 A 
ATOM     11  C   UNL     1       5.690   4.099  15.371  0.00  0.00    +0.000 A 
ATOM     12  C   UNL     1       7.027   4.235  15.742  0.00  0.00    +0.000 A 
ATOM     13  C   UNL     1       7.355   4.625  17.039  0.00  0.00    +0.000 A 
ATOM     14  C   UNL     1       6.345   4.880  17.968  0.00  0.00    +0.000 A 
ENDBRANCH   4   9
BRANCH   7  15
ATOM     15  C   UNL     1       1.696   7.836  20.062  0.00  0.00    +0.000 A 
ATOM     16  C   UNL     1       1.544   8.747  19.009  0.00  0.00    +0.000 A 
ATOM     17  C   UNL     1       0.980  10.004  19.239  0.00  0.00    +0.000 A 
ATOM     18  C   UNL     1       0.558  10.373  20.525  0.00  0.00    +0.000 A 
ATOM     19  C   UNL     1       0.714   9.456  21.576  0.00  0.00    +0.000 A 
ATOM     20  C   UNL     1       1.280   8.198  21.347  0.00  0.00    +0.000 A 
BRANCH  18  21
ATOM     21  C   UNL     1      -0.058  11.727  20.786  0.00  0.00    +0.000 C 
ATOM     22  F   UNL     1      -0.115  12.055  22.108  0.00  0.00    +0.000 F 
ATOM     23  F   UNL     1       0.621  12.738  20.179  0.00  0.00    +0.000 F 
ATOM     24  F   UNL     1      -1.339  11.810  20.330  0.00  0.00    +0.000 F 
ENDBRANCH  18  21
ENDBRANCH   7  15
TORSDOF 3
ENDMDL
MODEL 7
REMARK VINA RESULT:      -7.6      5.024      6.744
REMARK  Name = 
REMARK  3 active torsions:
REMARK  status: ('A' for Active; 'I' for Inactive)
REMARK    1  A    between atoms: C_4  and  C_5
REMARK    2  A    between atoms: C_13  and  C_14
REMARK    3  A    between atoms: C_17  and  C_18
REMARK                            x       y       z     vdW  Elec       q    Type
REMARK                         _______ _______ _______ _____ _____    ______ ____
ROOT
ATOM      1  O   UNL     1       2.066   3.155  20.937  0.00  0.00    +0.000 OA
ATOM      2  C   UNL     1       2.453   4.111  20.278  0.00  0.00    +0.000 C 
ATOM      3  C   UNL     1       3.492   3.955  19.249  0.00  0.00    +0.000 C 
ATOM      4  C   UNL     1       3.924   4.992  18.518  0.00  0.00    +0.000 C 
ATOM      5  C   UNL     1       3.355   6.357  18.721  0.00  0.00    +0.000 C 
ATOM      6  O   UNL     1       3.727   7.314  18.050  0.00  0.00    +0.000 OA
ATOM      7  C   UNL     1       2.316   6.513  19.783  0.00  0.00    +0.000 C 
ATOM      8  C   UNL     1       1.904   5.457  20.499  0.00  0.00    +0.000 C 
ENDROOT
BRANCH   4   9
ATOM      9  C   UNL     1       4.985   4.759  17.529  0.00  0.00    +0.000 A 
ATOM     10  C   UNL     1       4.668   4.411  16.209  0.00  0.00    +0.000 A 
ATOM     11  C   UNL     1       5.685   4.170  15.283  0.00  0.00    +0.000 A 
ATOM     12  C   UNL     1       7.021   4.272  15.668  0.00  0.00    +0.000 A 
ATOM     13  C   UNL     1       7.344   4.617  16.979  0.00  0.00    +0.000 A 
ATOM     14  C   UNL     1       6.331   4.860  17.908  0.00  0.00    +0.000 A 
ENDBRANCH   4   9
BRANCH   7  15
ATOM     15  C   UNL     1       1.738   7.831  20.079  0.00  0.00    +0.000 A 
ATOM     16  C   UNL     1       1.410   8.172  21.398  0.00  0.00    +0.000 A 
ATOM     17  C   UNL     1       0.844   9.417  21.686  0.00  0.00    +0.000 A 
ATOM     18  C   UNL     1       0.595  10.342  20.662  0.00  0.00    +0.000 A 
ATOM     19  C   UNL     1       0.924   9.995  19.343  0.00  0.00    +0.000 A 
ATOM     20  C   UNL     1       1.490   8.749  19.053  0.00  0.00    +0.000 A 
BRANCH  18  21
ATOM     21  C   UNL     1      -0.011  11.693  20.960  0.00  0.00    +0.000 C 
ATOM     22  F   UNL     1       0.808  12.738  20.654  0.00  0.00    +0.000 F 
ATOM     23  F   UNL     1      -1.168  11.911  20.276  0.00  0.00    +0.000 F 
ATOM     24  F   UNL     1      -0.322  11.842  22.278  0.00  0.00    +0.000 F 
ENDBRANCH  18  21
ENDBRANCH   7  15
TORSDOF 3
ENDMDL
MODEL 8
REMARK VINA RESULT:      -7.6      4.973      6.640
REMARK  Name = 
REMARK  3 active torsions:
REMARK  status: ('A' for Active; 'I' for Inactive)
REMARK    1  A    between atoms: C_4  and  C_5
REMARK    2  A    between atoms: C_13  and  C_14
REMARK    3  A    between atoms: C_17  and  C_18
REMARK                            x       y       z     vdW  Elec       q    Type
REMARK                         _______ _______ _______ _____ _____    ______ ____
ROOT
ATOM      1  O   UNL     1       2.303   3.141  21.010  0.00  0.00    +0.000 OA
ATOM      2  C   UNL     1       2.631   4.085  20.304  0.00  0.00    +0.000 C 
ATOM      3  C   UNL     1       3.643   3.932  19.248  0.00  0.00    +0.000 C 
ATOM      4  C   UNL     1       4.009   4.957  18.466  0.00  0.00    +0.000 C 
ATOM      5  C   UNL     1       3.391   6.306  18.638  0.00  0.00    +0.000 C 
ATOM      6  O   UNL     1       3.702   7.250  17.920  0.00  0.00    +0.000 OA
ATOM      7  C   UNL     1       2.380   6.460  19.726  0.00  0.00    +0.000 C 
ATOM      8  C   UNL     1       2.034   5.416  20.493  0.00  0.00    +0.000 C 
ENDROOT
BRANCH   4   9
ATOM      9  C   UNL     1       5.048   4.730  17.452  0.00  0.00    +0.000 A 
ATOM     10  C   UNL     1       6.404   4.848  17.780  0.00  0.00    +0.000 A 
ATOM     11  C   UNL     1       7.383   4.652  16.804  0.00  0.00    +0.000 A 
ATOM     12  C   UNL     1       7.014   4.342  15.496  0.00  0.00    +0.000 A 
ATOM     13  C   UNL     1       5.666   4.224  15.161  0.00  0.00    +0.000 A 
ATOM     14  C   UNL     1       4.685   4.418  16.135  0.00  0.00    +0.000 A 
ENDBRANCH   4   9
BRANCH   7  15
ATOM     15  C   UNL     1       1.757   7.765  19.992  0.00  0.00    +0.000 A 
ATOM     16  C   UNL     1       1.606   8.693  18.955  0.00  0.00    +0.000 A 
ATOM     17  C   UNL     1       1.030   9.942  19.203  0.00  0.00    +0.000 A 
ATOM     18  C   UNL     1       0.596  10.285  20.492  0.00  0.00    +0.000 A 
ATOM     19  C   UNL     1       0.751   9.351  21.527  0.00  0.00    +0.000 A 
ATOM     20  C   UNL     1       1.329   8.101  21.281  0.00  0.00    +0.000 A 
BRANCH  18  21
ATOM     21  C   UNL     1      -0.033  11.629  20.772  0.00  0.00    +0.000 C 
ATOM     22  F   UNL     1       0.762  12.684  20.439  0.00  0.00    +0.000 F 
ATOM     23  F   UNL     1      -1.200  11.812  20.096  0.00  0.00    +0.000 F 
ATOM     24  F   UNL     1      -0.334  11.795  22.090  0.00  0.00    +0.000 F 
ENDBRANCH  18  21
ENDBRANCH   7  15
TORSDOF 3
ENDMDL
MODEL 9
REMARK VINA RESULT:      -7.4      4.465      6.402
REMARK  Name = 
REMARK  3 active torsions:
REMARK  status: ('A' for Active; 'I' for Inactive)
REMARK    1  A    between atoms: C_4  and  C_5
REMARK    2  A    between atoms: C_13  and  C_14
REMARK    3  A    between atoms: C_17  and  C_18
REMARK                            x       y       z     vdW  Elec       q    Type
REMARK                         _______ _______ _______ _____ _____    ______ ____
ROOT
ATOM      1  O   UNL     1       2.118   2.341  18.699  0.00  0.00    +0.000 OA
ATOM      2  C   UNL     1       2.588   3.416  18.352  0.00  0.00    +0.000 C 
ATOM      3  C   UNL     1       3.671   3.491  17.361  0.00  0.00    +0.000 C 
ATOM      4  C   UNL     1       4.193   4.661  16.971  0.00  0.00    +0.000 C 
ATOM      5  C   UNL     1       3.683   5.948  17.531  0.00  0.00    +0.000 C 
ATOM      6  O   UNL     1       4.137   7.029  17.173  0.00  0.00    +0.000 OA
ATOM      7  C   UNL     1       2.597   5.864  18.553  0.00  0.00    +0.000 C 
ATOM      8  C   UNL     1       2.095   4.679  18.925  0.00  0.00    +0.000 C 
ENDROOT
BRANCH   4   9
ATOM      9  C   UNL     1       5.294   4.650  15.997  0.00  0.00    +0.000 A 
ATOM     10  C   UNL     1       6.572   5.094  16.358  0.00  0.00    +0.000 A 
ATOM     11  C   UNL     1       7.605   5.100  15.419  0.00  0.00    +0.000 A 
ATOM     12  C   UNL     1       7.368   4.666  14.115  0.00  0.00    +0.000 A 
ATOM     13  C   UNL     1       6.098   4.224  13.748  0.00  0.00    +0.000 A 
ATOM     14  C   UNL     1       5.063   4.215  14.685  0.00  0.00    +0.000 A 
ENDBRANCH   4   9
BRANCH   7  15
ATOM     15  C   UNL     1       2.070   7.081  19.189  0.00  0.00    +0.000 A 
ATOM     16  C   UNL     1       1.757   7.079  20.554  0.00  0.00    +0.000 A 
ATOM     17  C   UNL     1       1.239   8.225  21.162  0.00  0.00    +0.000 A 
ATOM     18  C   UNL     1       1.024   9.394  20.417  0.00  0.00    +0.000 A 
ATOM     19  C   UNL     1       1.338   9.389  19.049  0.00  0.00    +0.000 A 
ATOM     20  C   UNL     1       1.855   8.242  18.439  0.00  0.00    +0.000 A 
BRANCH  18  21
ATOM     21  C   UNL     1       0.471  10.641  21.063  0.00  0.00    +0.000 C 
ATOM     22  F   UNL     1       1.317  11.708  21.004  0.00  0.00    +0.000 F 
ATOM     23  F   UNL     1      -0.693  11.055  20.490  0.00  0.00    +0.000 F 
ATOM     24  F   UNL     1       0.194  10.462  22.384  0.00  0.00    +0.000 F 
ENDBRANCH  18  21
ENDBRANCH   7  15
TORSDOF 3
ENDMDL
