MODEL 1
REMARK VINA RESULT:      -7.4      0.000      0.000
REMARK  Name = 
REMARK  13 active torsions:
REMARK  status: ('A' for Active; 'I' for Inactive)
REMARK    1  A    between atoms: C_1  and  C_2
REMARK    2  A    between atoms: C_2  and  O_3
REMARK    3  A    between atoms: O_3  and  C_4
REMARK    4  A    between atoms: C_4  and  C_6
REMARK    5  A    between atoms: C_7  and  C_8
REMARK    6  A    between atoms: C_10  and  C_11
REMARK    7  A    between atoms: C_12  and  S_13
REMARK    8  A    between atoms: S_13  and  N_16
REMARK    9  A    between atoms: N_16  and  C_17
REMARK   10  A    between atoms: C_17  and  C_18
REMARK   11  A    between atoms: N_21  and  C_22
REMARK   12  A    between atoms: C_22  and  C_23
REMARK   13  A    between atoms: C_26  and  C_27
REMARK                            x       y       z     vdW  Elec       q    Type
REMARK                         _______ _______ _______ _____ _____    ______ ____
ROOT
ATOM      1  N   UNL     1       2.888   7.339  17.886  0.00  0.00    +0.000 NA
ATOM      2  H   UNL     1       2.517   7.265  16.933  0.00  0.00    +0.000 HD
ENDROOT
BRANCH   1   3
ATOM      3  S   UNL     1       2.889   5.784  18.543  0.00  0.00    +0.000 S 
ATOM      4  O   UNL     1       1.571   5.216  18.366  0.00  0.00    +0.000 OA
ATOM      5  O   UNL     1       3.539   5.843  19.831  0.00  0.00    +0.000 OA
BRANCH   3  12
ATOM      6  C   UNL     1       4.960   5.283  16.681  0.00  0.00    +0.000 A 
ATOM      7  C   UNL     1       5.576   4.151  16.137  0.00  0.00    +0.000 A 
ATOM      8  C   UNL     1       6.657   3.968  15.129  0.00  0.00    +0.000 C 
ATOM      9  N   UNL     1       4.973   3.041  16.674  0.00  0.00    +0.000 N 
ATOM     10  C   UNL     1       3.974   3.401  17.538  0.00  0.00    +0.000 A 
ATOM     11  C   UNL     1       3.149   2.377  18.229  0.00  0.00    +0.000 C 
ATOM     12  C   UNL     1       3.956   4.787  17.585  0.00  0.00    +0.000 A 
ATOM     13  H   UNL     1       5.219   2.086  16.443  0.00  0.00    +0.000 HD
BRANCH   6  14
ATOM     14  C   UNL     1       5.232   6.674  16.331  0.00  0.00    +0.000 C 
ATOM     15  O   UNL     1       5.005   7.137  15.215  0.00  0.00    +0.000 OA
BRANCH  14  16
ATOM     16  O   UNL     1       5.888   7.335  17.323  0.00  0.00    +0.000 OA
BRANCH  16  18
ATOM     17  C   UNL     1       7.998   8.422  17.771  0.00  0.00    +0.000 C 
ATOM     18  C   UNL     1       7.298   7.120  17.452  0.00  0.00    +0.000 C 
ENDBRANCH  16  18
ENDBRANCH  14  16
ENDBRANCH   6  14
ENDBRANCH   3  12
ENDBRANCH   1   3
BRANCH   1  19
ATOM     19  C   UNL     1       2.265   8.391  18.712  0.00  0.00    +0.000 C 
BRANCH  19  20
ATOM     20  C   UNL     1       1.449   9.371  17.846  0.00  0.00    +0.000 C 
ATOM     21  C   UNL     1       2.017  10.795  17.954  0.00  0.00    +0.000 C 
ATOM     22  C   UNL     1       1.765  11.428  19.331  0.00  0.00    +0.000 C 
ATOM     23  N   UNL     1       0.352  11.395  19.742  0.00  0.00    +0.000 NA
ATOM     24  C   UNL     1      -0.261  10.065  19.589  0.00  0.00    +0.000 C 
ATOM     25  C   UNL     1      -0.038   9.448  18.210  0.00  0.00    +0.000 C 
BRANCH  23  26
ATOM     26  C   UNL     1       0.192  11.830  21.148  0.00  0.00    +0.000 C 
BRANCH  26  27
ATOM     27  C   UNL     1      -1.231  12.127  21.569  0.00  0.00    +0.000 A 
ATOM     28  C   UNL     1      -1.666  11.855  22.872  0.00  0.00    +0.000 A 
ATOM     29  C   UNL     1      -2.974  12.158  23.264  0.00  0.00    +0.000 A 
ATOM     30  C   UNL     1      -3.870  12.738  22.359  0.00  0.00    +0.000 A 
ATOM     31  C   UNL     1      -5.283  13.053  22.754  0.00  0.00    +0.000 C 
ATOM     32  C   UNL     1      -3.434  13.022  21.061  0.00  0.00    +0.000 A 
ATOM     33  C   UNL     1      -2.126  12.721  20.670  0.00  0.00    +0.000 A 
ENDBRANCH  26  27
ENDBRANCH  23  26
ENDBRANCH  19  20
ENDBRANCH   1  19
TORSDOF 9
ENDMDL
MODEL 2
REMARK VINA RESULT:      -7.4      3.074      9.093
REMARK  Name = 
REMARK  13 active torsions:
REMARK  status: ('A' for Active; 'I' for Inactive)
REMARK    1  A    between atoms: C_1  and  C_2
REMARK    2  A    between atoms: C_2  and  O_3
REMARK    3  A    between atoms: O_3  and  C_4
REMARK    4  A    between atoms: C_4  and  C_6
REMARK    5  A    between atoms: C_7  and  C_8
REMARK    6  A    between atoms: C_10  and  C_11
REMARK    7  A    between atoms: C_12  and  S_13
REMARK    8  A    between atoms: S_13  and  N_16
REMARK    9  A    between atoms: N_16  and  C_17
REMARK   10  A    between atoms: C_17  and  C_18
REMARK   11  A    between atoms: N_21  and  C_22
REMARK   12  A    between atoms: C_22  and  C_23
REMARK   13  A    between atoms: C_26  and  C_27
REMARK                            x       y       z     vdW  Elec       q    Type
REMARK                         _______ _______ _______ _____ _____    ______ ____
ROOT
ATOM      1  N   UNL     1       1.836   7.250  20.865  0.00  0.00    +0.000 NA
ATOM      2  H   UNL     1       2.337   6.872  21.676  0.00  0.00    +0.000 HD
ENDROOT
BRANCH   1   3
ATOM      3  S   UNL     1       0.953   8.584  21.403  0.00  0.00    +0.000 S 
ATOM      4  O   UNL     1       1.680   9.200  22.490  0.00  0.00    +0.000 OA
ATOM      5  O   UNL     1      -0.430   8.184  21.526  0.00  0.00    +0.000 OA
BRANCH   3  12
ATOM      6  C   UNL     1       0.350  11.088  20.233  0.00  0.00    +0.000 A 
ATOM      7  C   UNL     1       0.558  11.698  18.991  0.00  0.00    +0.000 A 
ATOM      8  C   UNL     1       0.182  13.028  18.436  0.00  0.00    +0.000 C 
ATOM      9  N   UNL     1       1.214  10.802  18.184  0.00  0.00    +0.000 N 
ATOM     10  C   UNL     1       1.431   9.623  18.843  0.00  0.00    +0.000 A 
ATOM     11  C   UNL     1       2.102   8.480  18.172  0.00  0.00    +0.000 C 
ATOM     12  C   UNL     1       0.929   9.775  20.127  0.00  0.00    +0.000 A 
ATOM     13  H   UNL     1       1.480  10.984  17.223  0.00  0.00    +0.000 HD
BRANCH   6  14
ATOM     14  C   UNL     1      -0.381  11.649  21.365  0.00  0.00    +0.000 C 
ATOM     15  O   UNL     1      -1.544  11.345  21.625  0.00  0.00    +0.000 OA
BRANCH  14  16
ATOM     16  O   UNL     1       0.318  12.633  21.992  0.00  0.00    +0.000 OA
BRANCH  16  18
ATOM     17  C   UNL     1      -0.919  14.256  23.285  0.00  0.00    +0.000 C 
ATOM     18  C   UNL     1      -0.228  13.957  21.974  0.00  0.00    +0.000 C 
ENDBRANCH  16  18
ENDBRANCH  14  16
ENDBRANCH   6  14
ENDBRANCH   3  12
ENDBRANCH   1   3
BRANCH   1  19
ATOM     19  C   UNL     1       1.087   6.250  20.080  0.00  0.00    +0.000 C 
BRANCH  19  20
ATOM     20  C   UNL     1       1.287   4.831  20.646  0.00  0.00    +0.000 C 
ATOM     21  C   UNL     1       2.747   4.614  21.072  0.00  0.00    +0.000 C 
ATOM     22  C   UNL     1       3.705   4.529  19.874  0.00  0.00    +0.000 C 
ATOM     23  N   UNL     1       3.299   3.533  18.869  0.00  0.00    +0.000 NA
ATOM     24  C   UNL     1       1.885   3.652  18.479  0.00  0.00    +0.000 C 
ATOM     25  C   UNL     1       0.929   3.705  19.669  0.00  0.00    +0.000 C 
BRANCH  23  26
ATOM     26  C   UNL     1       4.136   3.630  17.650  0.00  0.00    +0.000 C 
BRANCH  26  27
ATOM     27  C   UNL     1       5.114   4.784  17.636  0.00  0.00    +0.000 A 
ATOM     28  C   UNL     1       6.417   4.627  18.124  0.00  0.00    +0.000 A 
ATOM     29  C   UNL     1       7.328   5.688  18.082  0.00  0.00    +0.000 A 
ATOM     30  C   UNL     1       6.950   6.926  17.550  0.00  0.00    +0.000 A 
ATOM     31  C   UNL     1       7.905   8.083  17.513  0.00  0.00    +0.000 C 
ATOM     32  C   UNL     1       5.653   7.082  17.050  0.00  0.00    +0.000 A 
ATOM     33  C   UNL     1       4.744   6.021  17.090  0.00  0.00    +0.000 A 
ENDBRANCH  26  27
ENDBRANCH  23  26
ENDBRANCH  19  20
ENDBRANCH   1  19
TORSDOF 9
ENDMDL
MODEL 3
REMARK VINA RESULT:      -7.4      3.012      9.274
REMARK  Name = 
REMARK  13 active torsions:
REMARK  status: ('A' for Active; 'I' for Inactive)
REMARK    1  A    between atoms: C_1  and  C_2
REMARK    2  A    between atoms: C_2  and  O_3
REMARK    3  A    between atoms: O_3  and  C_4
REMARK    4  A    between atoms: C_4  and  C_6
REMARK    5  A    between atoms: C_7  and  C_8
REMARK    6  A    between atoms: C_10  and  C_11
REMARK    7  A    between atoms: C_12  and  S_13
REMARK    8  A    between atoms: S_13  and  N_16
REMARK    9  A    between atoms: N_16  and  C_17
REMARK   10  A    between atoms: C_17  and  C_18
REMARK   11  A    between atoms: N_21  and  C_22
REMARK   12  A    between atoms: C_22  and  C_23
REMARK   13  A    between atoms: C_26  and  C_27
REMARK                            x       y       z     vdW  Elec       q    Type
REMARK                         _______ _______ _______ _____ _____    ______ ____
ROOT
ATOM      1  N   UNL     1       2.122   8.309  18.992  0.00  0.00    +0.000 NA
ATOM      2  H   UNL     1       1.703   8.005  19.878  0.00  0.00    +0.000 HD
ENDROOT
BRANCH   1   3
ATOM      3  S   UNL     1       1.256   9.660  18.470  0.00  0.00    +0.000 S 
ATOM      4  O   UNL     1       0.257   9.220  17.522  0.00  0.00    +0.000 OA
ATOM      5  O   UNL     1       2.202  10.708  18.165  0.00  0.00    +0.000 OA
BRANCH   3  12
ATOM      6  C   UNL     1      -0.631  11.335  19.752  0.00  0.00    +0.000 A 
ATOM      7  C   UNL     1      -1.092  11.521  21.060  0.00  0.00    +0.000 A 
ATOM      8  C   UNL     1      -2.082  12.454  21.666  0.00  0.00    +0.000 C 
ATOM      9  N   UNL     1      -0.413  10.649  21.875  0.00  0.00    +0.000 N 
ATOM     10  C   UNL     1       0.486   9.910  21.155  0.00  0.00    +0.000 A 
ATOM     11  C   UNL     1       1.365   8.912  21.816  0.00  0.00    +0.000 C 
ATOM     12  C   UNL     1       0.359  10.293  19.828  0.00  0.00    +0.000 A 
ATOM     13  H   UNL     1      -0.546  10.580  22.877  0.00  0.00    +0.000 HD
BRANCH   6  14
ATOM     14  C   UNL     1      -1.021  12.107  18.575  0.00  0.00    +0.000 C 
ATOM     15  O   UNL     1      -0.317  12.994  18.096  0.00  0.00    +0.000 OA
BRANCH  14  16
ATOM     16  O   UNL     1      -2.291  11.829  18.176  0.00  0.00    +0.000 OA
BRANCH  16  18
ATOM     17  C   UNL     1      -3.135   9.909  16.978  0.00  0.00    +0.000 C 
ATOM     18  C   UNL     1      -2.475  11.265  16.873  0.00  0.00    +0.000 C 
ENDBRANCH  16  18
ENDBRANCH  14  16
ENDBRANCH   6  14
ENDBRANCH   3  12
ENDBRANCH   1   3
BRANCH   1  19
ATOM     19  C   UNL     1       2.312   7.237  17.998  0.00  0.00    +0.000 C 
BRANCH  19  20
ATOM     20  C   UNL     1       2.041   5.849  18.613  0.00  0.00    +0.000 C 
ATOM     21  C   UNL     1       2.926   5.619  19.848  0.00  0.00    +0.000 C 
ATOM     22  C   UNL     1       4.408   5.434  19.488  0.00  0.00    +0.000 C 
ATOM     23  N   UNL     1       4.639   4.390  18.476  0.00  0.00    +0.000 NA
ATOM     24  C   UNL     1       3.763   4.524  17.300  0.00  0.00    +0.000 C 
ATOM     25  C   UNL     1       2.286   4.677  17.656  0.00  0.00    +0.000 C 
BRANCH  23  26
ATOM     26  C   UNL     1       6.048   4.389  18.019  0.00  0.00    +0.000 C 
BRANCH  26  27
ATOM     27  C   UNL     1       6.735   5.736  18.060  0.00  0.00    +0.000 A 
ATOM     28  C   UNL     1       7.766   5.990  18.973  0.00  0.00    +0.000 A 
ATOM     29  C   UNL     1       8.417   7.228  18.987  0.00  0.00    +0.000 A 
ATOM     30  C   UNL     1       8.049   8.234  18.086  0.00  0.00    +0.000 A 
ATOM     31  C   UNL     1       8.722   9.575  18.098  0.00  0.00    +0.000 C 
ATOM     32  C   UNL     1       7.029   7.979  17.165  0.00  0.00    +0.000 A 
ATOM     33  C   UNL     1       6.378   6.741  17.150  0.00  0.00    +0.000 A 
ENDBRANCH  26  27
ENDBRANCH  23  26
ENDBRANCH  19  20
ENDBRANCH   1  19
TORSDOF 9
ENDMDL
MODEL 4
REMARK VINA RESULT:      -7.2      3.098      9.816
REMARK  Name = 
REMARK  13 active torsions:
REMARK  status: ('A' for Active; 'I' for Inactive)
REMARK    1  A    between atoms: C_1  and  C_2
REMARK    2  A    between atoms: C_2  and  O_3
REMARK    3  A    between atoms: O_3  and  C_4
REMARK    4  A    between atoms: C_4  and  C_6
REMARK    5  A    between atoms: C_7  and  C_8
REMARK    6  A    between atoms: C_10  and  C_11
REMARK    7  A    between atoms: C_12  and  S_13
REMARK    8  A    between atoms: S_13  and  N_16
REMARK    9  A    between atoms: N_16  and  C_17
REMARK   10  A    between atoms: C_17  and  C_18
REMARK   11  A    between atoms: N_21  and  C_22
REMARK   12  A    between atoms: C_22  and  C_23
REMARK   13  A    between atoms: C_26  and  C_27
REMARK                            x       y       z     vdW  Elec       q    Type
REMARK                         _______ _______ _______ _____ _____    ______ ____
ROOT
ATOM      1  N   UNL     1       1.989   7.581  20.496  0.00  0.00    +0.000 NA
ATOM      2  H   UNL     1       2.938   7.969  20.465  0.00  0.00    +0.000 HD
ENDROOT
BRANCH   1   3
ATOM      3  S   UNL     1       1.003   8.734  21.236  0.00  0.00    +0.000 S 
ATOM      4  O   UNL     1       1.747   9.339  22.317  0.00  0.00    +0.000 OA
ATOM      5  O   UNL     1      -0.303   8.147  21.429  0.00  0.00    +0.000 OA
BRANCH   3  12
ATOM      6  C   UNL     1       0.072  11.272  20.402  0.00  0.00    +0.000 A 
ATOM      7  C   UNL     1       0.056  11.998  19.206  0.00  0.00    +0.000 A 
ATOM      8  C   UNL     1      -0.484  13.336  18.836  0.00  0.00    +0.000 C 
ATOM      9  N   UNL     1       0.646  11.228  18.234  0.00  0.00    +0.000 N 
ATOM     10  C   UNL     1       1.033  10.018  18.744  0.00  0.00    +0.000 A 
ATOM     11  C   UNL     1       1.674   8.991  17.881  0.00  0.00    +0.000 C 
ATOM     12  C   UNL     1       0.715  10.022  20.093  0.00  0.00    +0.000 A 
ATOM     13  H   UNL     1       0.757  11.509  17.268  0.00  0.00    +0.000 HD
BRANCH   6  14
ATOM     14  C   UNL     1      -0.523  11.676  21.672  0.00  0.00    +0.000 C 
ATOM     15  O   UNL     1      -1.551  11.172  22.118  0.00  0.00    +0.000 OA
BRANCH  14  16
ATOM     16  O   UNL     1       0.106  12.754  22.214  0.00  0.00    +0.000 OA
BRANCH  16  18
ATOM     17  C   UNL     1      -1.131  14.244  23.658  0.00  0.00    +0.000 C 
ATOM     18  C   UNL     1      -0.611  13.993  22.260  0.00  0.00    +0.000 C 
ENDBRANCH  16  18
ENDBRANCH  14  16
ENDBRANCH   6  14
ENDBRANCH   3  12
ENDBRANCH   1   3
BRANCH   1  19
ATOM     19  C   UNL     1       1.899   6.210  21.033  0.00  0.00    +0.000 C 
BRANCH  19  20
ATOM     20  C   UNL     1       1.364   5.228  19.972  0.00  0.00    +0.000 C 
ATOM     21  C   UNL     1       1.837   3.796  20.267  0.00  0.00    +0.000 C 
ATOM     22  C   UNL     1       3.343   3.610  20.025  0.00  0.00    +0.000 C 
ATOM     23  N   UNL     1       3.779   4.040  18.687  0.00  0.00    +0.000 NA
ATOM     24  C   UNL     1       3.290   5.382  18.326  0.00  0.00    +0.000 C 
ATOM     25  C   UNL     1       1.788   5.557  18.536  0.00  0.00    +0.000 C 
BRANCH  23  26
ATOM     26  C   UNL     1       5.255   4.029  18.575  0.00  0.00    +0.000 C 
BRANCH  26  27
ATOM     27  C   UNL     1       5.794   4.282  17.184  0.00  0.00    +0.000 A 
ATOM     28  C   UNL     1       7.049   4.873  16.996  0.00  0.00    +0.000 A 
ATOM     29  C   UNL     1       7.556   5.079  15.708  0.00  0.00    +0.000 A 
ATOM     30  C   UNL     1       6.814   4.696  14.585  0.00  0.00    +0.000 A 
ATOM     31  C   UNL     1       7.330   4.926  13.195  0.00  0.00    +0.000 C 
ATOM     32  C   UNL     1       5.566   4.094  14.770  0.00  0.00    +0.000 A 
ATOM     33  C   UNL     1       5.060   3.887  16.057  0.00  0.00    +0.000 A 
ENDBRANCH  26  27
ENDBRANCH  23  26
ENDBRANCH  19  20
ENDBRANCH   1  19
TORSDOF 9
ENDMDL
MODEL 5
REMARK VINA RESULT:      -7.1      2.889      9.308
REMARK  Name = 
REMARK  13 active torsions:
REMARK  status: ('A' for Active; 'I' for Inactive)
REMARK    1  A    between atoms: C_1  and  C_2
REMARK    2  A    between atoms: C_2  and  O_3
REMARK    3  A    between atoms: O_3  and  C_4
REMARK    4  A    between atoms: C_4  and  C_6
REMARK    5  A    between atoms: C_7  and  C_8
REMARK    6  A    between atoms: C_10  and  C_11
REMARK    7  A    between atoms: C_12  and  S_13
REMARK    8  A    between atoms: S_13  and  N_16
REMARK    9  A    between atoms: N_16  and  C_17
REMARK   10  A    between atoms: C_17  and  C_18
REMARK   11  A    between atoms: N_21  and  C_22
REMARK   12  A    between atoms: C_22  and  C_23
REMARK   13  A    between atoms: C_26  and  C_27
REMARK                            x       y       z     vdW  Elec       q    Type
REMARK                         _______ _______ _______ _____ _____    ______ ____
ROOT
ATOM      1  N   UNL     1       1.036   6.901  20.178  0.00  0.00    +0.000 NA
ATOM      2  H   UNL     1       1.063   7.184  19.192  0.00  0.00    +0.000 HD
ENDROOT
BRANCH   1   3
ATOM      3  S   UNL     1       0.733   8.291  21.086  0.00  0.00    +0.000 S 
ATOM      4  O   UNL     1       1.861   8.515  21.962  0.00  0.00    +0.000 OA
ATOM      5  O   UNL     1      -0.624   8.218  21.576  0.00  0.00    +0.000 OA
BRANCH   3  12
ATOM      6  C   UNL     1       0.151  10.949  20.310  0.00  0.00    +0.000 A 
ATOM      7  C   UNL     1       0.352  11.734  19.170  0.00  0.00    +0.000 A 
ATOM      8  C   UNL     1      -0.012  13.137  18.825  0.00  0.00    +0.000 C 
ATOM      9  N   UNL     1       0.984  10.960  18.228  0.00  0.00    +0.000 N 
ATOM     10  C   UNL     1       1.192   9.693  18.702  0.00  0.00    +0.000 A 
ATOM     11  C   UNL     1       1.838   8.654  17.858  0.00  0.00    +0.000 C 
ATOM     12  C   UNL     1       0.710   9.659  20.001  0.00  0.00    +0.000 A 
ATOM     13  H   UNL     1       1.240  11.280  17.302  0.00  0.00    +0.000 HD
BRANCH   6  14
ATOM     14  C   UNL     1      -0.557  11.344  21.524  0.00  0.00    +0.000 C 
ATOM     15  O   UNL     1      -0.041  11.304  22.640  0.00  0.00    +0.000 OA
BRANCH  14  16
ATOM     16  O   UNL     1      -1.869  11.612  21.289  0.00  0.00    +0.000 OA
BRANCH  16  18
ATOM     17  C   UNL     1      -2.736  13.795  21.852  0.00  0.00    +0.000 C 
ATOM     18  C   UNL     1      -2.589  12.353  22.281  0.00  0.00    +0.000 C 
ENDBRANCH  16  18
ENDBRANCH  14  16
ENDBRANCH   6  14
ENDBRANCH   3  12
ENDBRANCH   1   3
BRANCH   1  19
ATOM     19  C   UNL     1       2.179   6.077  20.615  0.00  0.00    +0.000 C 
BRANCH  19  20
ATOM     20  C   UNL     1       1.799   4.585  20.683  0.00  0.00    +0.000 C 
ATOM     21  C   UNL     1       3.048   3.712  20.884  0.00  0.00    +0.000 C 
ATOM     22  C   UNL     1       3.947   3.672  19.640  0.00  0.00    +0.000 C 
ATOM     23  N   UNL     1       3.232   3.287  18.412  0.00  0.00    +0.000 NA
ATOM     24  C   UNL     1       1.986   4.046  18.209  0.00  0.00    +0.000 C 
ATOM     25  C   UNL     1       1.077   4.060  19.436  0.00  0.00    +0.000 C 
BRANCH  23  26
ATOM     26  C   UNL     1       4.089   3.457  17.216  0.00  0.00    +0.000 C 
BRANCH  26  27
ATOM     27  C   UNL     1       5.057   4.618  17.283  0.00  0.00    +0.000 A 
ATOM     28  C   UNL     1       4.639   5.920  16.981  0.00  0.00    +0.000 A 
ATOM     29  C   UNL     1       5.530   6.995  17.072  0.00  0.00    +0.000 A 
ATOM     30  C   UNL     1       6.856   6.785  17.467  0.00  0.00    +0.000 A 
ATOM     31  C   UNL     1       7.833   7.921  17.551  0.00  0.00    +0.000 C 
ATOM     32  C   UNL     1       7.273   5.488  17.780  0.00  0.00    +0.000 A 
ATOM     33  C   UNL     1       6.382   4.414  17.691  0.00  0.00    +0.000 A 
ENDBRANCH  26  27
ENDBRANCH  23  26
ENDBRANCH  19  20
ENDBRANCH   1  19
TORSDOF 9
ENDMDL
MODEL 6
REMARK VINA RESULT:      -7.0      2.937      9.240
REMARK  Name = 
REMARK  13 active torsions:
REMARK  status: ('A' for Active; 'I' for Inactive)
REMARK    1  A    between atoms: C_1  and  C_2
REMARK    2  A    between atoms: C_2  and  O_3
REMARK    3  A    between atoms: O_3  and  C_4
REMARK    4  A    between atoms: C_4  and  C_6
REMARK    5  A    between atoms: C_7  and  C_8
REMARK    6  A    between atoms: C_10  and  C_11
REMARK    7  A    between atoms: C_12  and  S_13
REMARK    8  A    between atoms: S_13  and  N_16
REMARK    9  A    between atoms: N_16  and  C_17
REMARK   10  A    between atoms: C_17  and  C_18
REMARK   11  A    between atoms: N_21  and  C_22
REMARK   12  A    between atoms: C_22  and  C_23
REMARK   13  A    between atoms: C_26  and  C_27
REMARK                            x       y       z     vdW  Elec       q    Type
REMARK                         _______ _______ _______ _____ _____    ______ ____
ROOT
ATOM      1  N   UNL     1       2.159   7.176  20.377  0.00  0.00    +0.000 NA
ATOM      2  H   UNL     1       3.068   7.628  20.227  0.00  0.00    +0.000 HD
ENDROOT
BRANCH   1   3
ATOM      3  S   UNL     1       1.156   8.313  21.120  0.00  0.00    +0.000 S 
ATOM      4  O   UNL     1       1.873   8.893  22.233  0.00  0.00    +0.000 OA
ATOM      5  O   UNL     1      -0.155   7.723  21.268  0.00  0.00    +0.000 OA
BRANCH   3  12
ATOM      6  C   UNL     1       0.295  10.891  20.335  0.00  0.00    +0.000 A 
ATOM      7  C   UNL     1       0.289  11.636  19.150  0.00  0.00    +0.000 A 
ATOM      8  C   UNL     1      -0.213  12.996  18.807  0.00  0.00    +0.000 C 
ATOM      9  N   UNL     1       0.844  10.863  18.161  0.00  0.00    +0.000 N 
ATOM     10  C   UNL     1       1.200   9.634  18.647  0.00  0.00    +0.000 A 
ATOM     11  C   UNL     1       1.799   8.601  17.762  0.00  0.00    +0.000 C 
ATOM     12  C   UNL     1       0.895   9.626  20.000  0.00  0.00    +0.000 A 
ATOM     13  H   UNL     1       0.954  11.156  17.197  0.00  0.00    +0.000 HD
BRANCH   6  14
ATOM     14  C   UNL     1      -0.273  11.294  21.618  0.00  0.00    +0.000 C 
ATOM     15  O   UNL     1      -1.131  10.636  22.203  0.00  0.00    +0.000 OA
BRANCH  14  16
ATOM     16  O   UNL     1       0.148  12.529  22.001  0.00  0.00    +0.000 OA
BRANCH  16  18
ATOM     17  C   UNL     1      -1.099  13.942  23.512  0.00  0.00    +0.000 C 
ATOM     18  C   UNL     1      -0.826  13.577  22.071  0.00  0.00    +0.000 C 
ENDBRANCH  16  18
ENDBRANCH  14  16
ENDBRANCH   6  14
ENDBRANCH   3  12
ENDBRANCH   1   3
BRANCH   1  19
ATOM     19  C   UNL     1       2.226   5.851  21.022  0.00  0.00    +0.000 C 
BRANCH  19  20
ATOM     20  C   UNL     1       1.279   4.847  20.337  0.00  0.00    +0.000 C 
ATOM     21  C   UNL     1       1.665   3.403  20.694  0.00  0.00    +0.000 C 
ATOM     22  C   UNL     1       2.986   2.966  20.043  0.00  0.00    +0.000 C 
ATOM     23  N   UNL     1       3.015   3.171  18.585  0.00  0.00    +0.000 NA
ATOM     24  C   UNL     1       2.584   4.521  18.185  0.00  0.00    +0.000 C 
ATOM     25  C   UNL     1       1.256   4.944  18.808  0.00  0.00    +0.000 C 
BRANCH  23  26
ATOM     26  C   UNL     1       4.369   2.926  18.037  0.00  0.00    +0.000 C 
BRANCH  26  27
ATOM     27  C   UNL     1       5.233   4.159  17.889  0.00  0.00    +0.000 A 
ATOM     28  C   UNL     1       5.311   4.839  16.667  0.00  0.00    +0.000 A 
ATOM     29  C   UNL     1       6.088   5.995  16.543  0.00  0.00    +0.000 A 
ATOM     30  C   UNL     1       6.802   6.492  17.639  0.00  0.00    +0.000 A 
ATOM     31  C   UNL     1       7.657   7.719  17.522  0.00  0.00    +0.000 C 
ATOM     32  C   UNL     1       6.716   5.822  18.864  0.00  0.00    +0.000 A 
ATOM     33  C   UNL     1       5.938   4.667  18.989  0.00  0.00    +0.000 A 
ENDBRANCH  26  27
ENDBRANCH  23  26
ENDBRANCH  19  20
ENDBRANCH   1  19
TORSDOF 9
ENDMDL
MODEL 7
REMARK VINA RESULT:      -7.0      2.737      8.914
REMARK  Name = 
REMARK  13 active torsions:
REMARK  status: ('A' for Active; 'I' for Inactive)
REMARK    1  A    between atoms: C_1  and  C_2
REMARK    2  A    between atoms: C_2  and  O_3
REMARK    3  A    between atoms: O_3  and  C_4
REMARK    4  A    between atoms: C_4  and  C_6
REMARK    5  A    between atoms: C_7  and  C_8
REMARK    6  A    between atoms: C_10  and  C_11
REMARK    7  A    between atoms: C_12  and  S_13
REMARK    8  A    between atoms: S_13  and  N_16
REMARK    9  A    between atoms: N_16  and  C_17
REMARK   10  A    between atoms: C_17  and  C_18
REMARK   11  A    between atoms: N_21  and  C_22
REMARK   12  A    between atoms: C_22  and  C_23
REMARK   13  A    between atoms: C_26  and  C_27
REMARK                            x       y       z     vdW  Elec       q    Type
REMARK                         _______ _______ _______ _____ _____    ______ ____
ROOT
ATOM      1  N   UNL     1       1.437   8.091  19.917  0.00  0.00    +0.000 NA
ATOM      2  H   UNL     1       1.797   8.899  19.397  0.00  0.00    +0.000 HD
ENDROOT
BRANCH   1   3
ATOM      3  S   UNL     1       0.694   8.687  21.310  0.00  0.00    +0.000 S 
ATOM      4  O   UNL     1       1.723   8.988  22.279  0.00  0.00    +0.000 OA
ATOM      5  O   UNL     1      -0.431   7.835  21.617  0.00  0.00    +0.000 OA
BRANCH   3  12
ATOM      6  C   UNL     1       0.081  10.903  19.660  0.00  0.00    +0.000 A 
ATOM      7  C   UNL     1      -0.664  12.080  19.787  0.00  0.00    +0.000 A 
ATOM      8  C   UNL     1      -0.921  13.225  18.869  0.00  0.00    +0.000 C 
ATOM      9  N   UNL     1      -1.196  12.111  21.053  0.00  0.00    +0.000 N 
ATOM     10  C   UNL     1      -0.815  11.006  21.766  0.00  0.00    +0.000 A 
ATOM     11  C   UNL     1      -1.240  10.819  23.177  0.00  0.00    +0.000 C 
ATOM     12  C   UNL     1      -0.042  10.223  20.923  0.00  0.00    +0.000 A 
ATOM     13  H   UNL     1      -1.773  12.861  21.414  0.00  0.00    +0.000 HD
BRANCH   6  14
ATOM     14  C   UNL     1       0.883  10.502  18.509  0.00  0.00    +0.000 C 
ATOM     15  O   UNL     1       0.482   9.708  17.660  0.00  0.00    +0.000 OA
BRANCH  14  16
ATOM     16  O   UNL     1       2.152  10.988  18.572  0.00  0.00    +0.000 OA
BRANCH  16  18
ATOM     17  C   UNL     1       2.839  13.296  18.765  0.00  0.00    +0.000 C 
ATOM     18  C   UNL     1       2.452  12.175  17.828  0.00  0.00    +0.000 C 
ENDBRANCH  16  18
ENDBRANCH  14  16
ENDBRANCH   6  14
ENDBRANCH   3  12
ENDBRANCH   1   3
BRANCH   1  19
ATOM     19  C   UNL     1       2.410   7.001  20.117  0.00  0.00    +0.000 C 
BRANCH  19  20
ATOM     20  C   UNL     1       1.734   5.620  20.002  0.00  0.00    +0.000 C 
ATOM     21  C   UNL     1       2.589   4.537  20.679  0.00  0.00    +0.000 C 
ATOM     22  C   UNL     1       3.881   4.235  19.905  0.00  0.00    +0.000 C 
ATOM     23  N   UNL     1       3.652   3.911  18.487  0.00  0.00    +0.000 NA
ATOM     24  C   UNL     1       2.778   4.882  17.809  0.00  0.00    +0.000 C 
ATOM     25  C   UNL     1       1.479   5.160  18.563  0.00  0.00    +0.000 C 
BRANCH  23  26
ATOM     26  C   UNL     1       4.930   3.826  17.744  0.00  0.00    +0.000 C 
BRANCH  26  27
ATOM     27  C   UNL     1       5.794   5.066  17.812  0.00  0.00    +0.000 A 
ATOM     28  C   UNL     1       6.941   5.100  18.614  0.00  0.00    +0.000 A 
ATOM     29  C   UNL     1       7.752   6.238  18.652  0.00  0.00    +0.000 A 
ATOM     30  C   UNL     1       7.430   7.364  17.885  0.00  0.00    +0.000 A 
ATOM     31  C   UNL     1       8.276   8.603  17.925  0.00  0.00    +0.000 C 
ATOM     32  C   UNL     1       6.293   7.329  17.073  0.00  0.00    +0.000 A 
ATOM     33  C   UNL     1       5.483   6.190  17.034  0.00  0.00    +0.000 A 
ENDBRANCH  26  27
ENDBRANCH  23  26
ENDBRANCH  19  20
ENDBRANCH   1  19
TORSDOF 9
ENDMDL
MODEL 8
REMARK VINA RESULT:      -6.9      2.723      9.098
REMARK  Name = 
REMARK  13 active torsions:
REMARK  status: ('A' for Active; 'I' for Inactive)
REMARK    1  A    between atoms: C_1  and  C_2
REMARK    2  A    between atoms: C_2  and  O_3
REMARK    3  A    between atoms: O_3  and  C_4
REMARK    4  A    between atoms: C_4  and  C_6
REMARK    5  A    between atoms: C_7  and  C_8
REMARK    6  A    between atoms: C_10  and  C_11
REMARK    7  A    between atoms: C_12  and  S_13
REMARK    8  A    between atoms: S_13  and  N_16
REMARK    9  A    between atoms: N_16  and  C_17
REMARK   10  A    between atoms: C_17  and  C_18
REMARK   11  A    between atoms: N_21  and  C_22
REMARK   12  A    between atoms: C_22  and  C_23
REMARK   13  A    between atoms: C_26  and  C_27
REMARK                            x       y       z     vdW  Elec       q    Type
REMARK                         _______ _______ _______ _____ _____    ______ ____
ROOT
ATOM      1  N   UNL     1       1.157   8.025  19.941  0.00  0.00    +0.000 NA
ATOM      2  H   UNL     1       1.422   8.780  19.300  0.00  0.00    +0.000 HD
ENDROOT
BRANCH   1   3
ATOM      3  S   UNL     1       0.494   8.747  21.315  0.00  0.00    +0.000 S 
ATOM      4  O   UNL     1       1.559   8.978  22.264  0.00  0.00    +0.000 OA
ATOM      5  O   UNL     1      -0.709   8.027  21.662  0.00  0.00    +0.000 OA
BRANCH   3  12
ATOM      6  C   UNL     1       0.048  10.928  19.568  0.00  0.00    +0.000 A 
ATOM      7  C   UNL     1      -0.554  12.188  19.660  0.00  0.00    +0.000 A 
ATOM      8  C   UNL     1      -0.728  13.304  18.689  0.00  0.00    +0.000 C 
ATOM      9  N   UNL     1      -1.013  12.346  20.944  0.00  0.00    +0.000 N 
ATOM     10  C   UNL     1      -0.722  11.244  21.703  0.00  0.00    +0.000 A 
ATOM     11  C   UNL     1      -1.091  11.182  23.140  0.00  0.00    +0.000 C 
ATOM     12  C   UNL     1      -0.085  10.334  20.873  0.00  0.00    +0.000 A 
ATOM     13  H   UNL     1      -1.483  13.175  21.287  0.00  0.00    +0.000 HD
BRANCH   6  14
ATOM     14  C   UNL     1       0.741  10.378  18.407  0.00  0.00    +0.000 C 
ATOM     15  O   UNL     1       1.950  10.508  18.228  0.00  0.00    +0.000 OA
BRANCH  14  16
ATOM     16  O   UNL     1      -0.121   9.846  17.499  0.00  0.00    +0.000 OA
BRANCH  16  18
ATOM     17  C   UNL     1      -2.366   9.992  16.619  0.00  0.00    +0.000 C 
ATOM     18  C   UNL     1      -1.509   9.788  17.848  0.00  0.00    +0.000 C 
ENDBRANCH  16  18
ENDBRANCH  14  16
ENDBRANCH   6  14
ENDBRANCH   3  12
ENDBRANCH   1   3
BRANCH   1  19
ATOM     19  C   UNL     1       2.209   7.019  20.181  0.00  0.00    +0.000 C 
BRANCH  19  20
ATOM     20  C   UNL     1       1.613   5.602  20.296  0.00  0.00    +0.000 C 
ATOM     21  C   UNL     1       2.618   4.640  20.949  0.00  0.00    +0.000 C 
ATOM     22  C   UNL     1       3.811   4.322  20.036  0.00  0.00    +0.000 C 
ATOM     23  N   UNL     1       3.416   3.841  18.702  0.00  0.00    +0.000 NA
ATOM     24  C   UNL     1       2.399   4.691  18.061  0.00  0.00    +0.000 C 
ATOM     25  C   UNL     1       1.198   4.982  18.957  0.00  0.00    +0.000 C 
BRANCH  23  26
ATOM     26  C   UNL     1       4.587   3.741  17.800  0.00  0.00    +0.000 C 
BRANCH  26  27
ATOM     27  C   UNL     1       5.501   4.947  17.802  0.00  0.00    +0.000 A 
ATOM     28  C   UNL     1       6.714   4.928  18.502  0.00  0.00    +0.000 A 
ATOM     29  C   UNL     1       7.569   6.034  18.477  0.00  0.00    +0.000 A 
ATOM     30  C   UNL     1       7.226   7.180  17.751  0.00  0.00    +0.000 A 
ATOM     31  C   UNL     1       8.120   8.385  17.728  0.00  0.00    +0.000 C 
ATOM     32  C   UNL     1       6.021   7.198  17.042  0.00  0.00    +0.000 A 
ATOM     33  C   UNL     1       5.167   6.091  17.065  0.00  0.00    +0.000 A 
ENDBRANCH  26  27
ENDBRANCH  23  26
ENDBRANCH  19  20
ENDBRANCH   1  19
TORSDOF 9
ENDMDL
MODEL 9
REMARK VINA RESULT:      -6.9      3.094      9.312
REMARK  Name = 
REMARK  13 active torsions:
REMARK  status: ('A' for Active; 'I' for Inactive)
REMARK    1  A    between atoms: C_1  and  C_2
REMARK    2  A    between atoms: C_2  and  O_3
REMARK    3  A    between atoms: O_3  and  C_4
REMARK    4  A    between atoms: C_4  and  C_6
REMARK    5  A    between atoms: C_7  and  C_8
REMARK    6  A    between atoms: C_10  and  C_11
REMARK    7  A    between atoms: C_12  and  S_13
REMARK    8  A    between atoms: S_13  and  N_16
REMARK    9  A    between atoms: N_16  and  C_17
REMARK   10  A    between atoms: C_17  and  C_18
REMARK   11  A    between atoms: N_21  and  C_22
REMARK   12  A    between atoms: C_22  and  C_23
REMARK   13  A    between atoms: C_26  and  C_27
REMARK                            x       y       z     vdW  Elec       q    Type
REMARK                         _______ _______ _______ _____ _____    ______ ____
ROOT
ATOM      1  N   UNL     1       1.977   8.380  19.246  0.00  0.00    +0.000 NA
ATOM      2  H   UNL     1       1.427   8.009  20.028  0.00  0.00    +0.000 HD
ENDROOT
BRANCH   1   3
ATOM      3  S   UNL     1       1.168   9.747  18.675  0.00  0.00    +0.000 S 
ATOM      4  O   UNL     1       0.208   9.324  17.681  0.00  0.00    +0.000 OA
ATOM      5  O   UNL     1       2.153  10.771  18.412  0.00  0.00    +0.000 OA
BRANCH   3  12
ATOM      6  C   UNL     1      -0.642  11.556  19.882  0.00  0.00    +0.000 A 
ATOM      7  C   UNL     1      -1.201  11.728  21.153  0.00  0.00    +0.000 A 
ATOM      8  C   UNL     1      -2.139  12.734  21.723  0.00  0.00    +0.000 C 
ATOM      9  N   UNL     1      -0.698  10.748  21.972  0.00  0.00    +0.000 N 
ATOM     10  C   UNL     1       0.181   9.950  21.292  0.00  0.00    +0.000 A 
ATOM     11  C   UNL     1       0.884   8.829  21.968  0.00  0.00    +0.000 C 
ATOM     12  C   UNL     1       0.221  10.409  19.984  0.00  0.00    +0.000 A 
ATOM     13  H   UNL     1      -0.931  10.645  22.953  0.00  0.00    +0.000 HD
BRANCH   6  14
ATOM     14  C   UNL     1      -0.836  12.423  18.723  0.00  0.00    +0.000 C 
ATOM     15  O   UNL     1      -1.600  12.143  17.801  0.00  0.00    +0.000 OA
BRANCH  14  16
ATOM     16  O   UNL     1       0.024  13.477  18.720  0.00  0.00    +0.000 OA
BRANCH  16  18
ATOM     17  C   UNL     1      -0.083  15.871  18.416  0.00  0.00    +0.000 C 
ATOM     18  C   UNL     1      -0.418  14.702  19.315  0.00  0.00    +0.000 C 
ENDBRANCH  16  18
ENDBRANCH  14  16
ENDBRANCH   6  14
ENDBRANCH   3  12
ENDBRANCH   1   3
BRANCH   1  19
ATOM     19  C   UNL     1       2.360   7.381  18.230  0.00  0.00    +0.000 C 
BRANCH  19  20
ATOM     20  C   UNL     1       2.068   5.948  18.717  0.00  0.00    +0.000 C 
ATOM     21  C   UNL     1       2.976   5.580  19.901  0.00  0.00    +0.000 C 
ATOM     22  C   UNL     1       4.443   5.395  19.484  0.00  0.00    +0.000 C 
ATOM     23  N   UNL     1       4.622   4.448  18.372  0.00  0.00    +0.000 NA
ATOM     24  C   UNL     1       3.722   4.715  17.238  0.00  0.00    +0.000 C 
ATOM     25  C   UNL     1       2.258   4.867  17.647  0.00  0.00    +0.000 C 
BRANCH  23  26
ATOM     26  C   UNL     1       6.019   4.457  17.879  0.00  0.00    +0.000 C 
BRANCH  26  27
ATOM     27  C   UNL     1       6.725   5.791  17.983  0.00  0.00    +0.000 A 
ATOM     28  C   UNL     1       7.749   5.992  18.917  0.00  0.00    +0.000 A 
ATOM     29  C   UNL     1       8.419   7.217  18.989  0.00  0.00    +0.000 A 
ATOM     30  C   UNL     1       8.076   8.265  18.127  0.00  0.00    +0.000 A 
ATOM     31  C   UNL     1       8.768   9.594  18.201  0.00  0.00    +0.000 C 
ATOM     32  C   UNL     1       7.062   8.064  17.185  0.00  0.00    +0.000 A 
ATOM     33  C   UNL     1       6.394   6.838  17.111  0.00  0.00    +0.000 A 
ENDBRANCH  26  27
ENDBRANCH  23  26
ENDBRANCH  19  20
ENDBRANCH   1  19
TORSDOF 9
ENDMDL
