MODEL 1
REMARK VINA RESULT:      -8.7      0.000      0.000
REMARK  Name = 
REMARK  6 active torsions:
REMARK  status: ('A' for Active; 'I' for Inactive)
REMARK    1  A    between atoms: C_1  and  C_2
REMARK    2  A    between atoms: C_2  and  C_4
REMARK    3  A    between atoms: C_4  and  C_5
REMARK    4  A    between atoms: C_5  and  C_6
REMARK    5  A    between atoms: C_5  and  C_12
REMARK    6  A    between atoms: C_13  and  O_14
REMARK                            x       y       z     vdW  Elec       q    Type
REMARK                         _______ _______ _______ _____ _____    ______ ____
ROOT
ATOM      1  C   UNL     1       4.442   4.281  17.054  0.00  0.00    +0.000 A 
ATOM      2  C   UNL     1       3.935   3.057  17.273  0.00  0.00    +0.000 A 
ATOM      3  O   UNL     1       2.584   2.823  17.469  0.00  0.00    +0.000 OA
ATOM      4  C   UNL     1       2.004   3.669  18.368  0.00  0.00    +0.000 A 
ATOM      5  C   UNL     1       0.961   3.174  19.143  0.00  0.00    +0.000 A 
ATOM      6  C   UNL     1       0.628   3.848  20.313  0.00  0.00    +0.000 A 
ATOM      7  C   UNL     1       1.327   5.004  20.677  0.00  0.00    +0.000 A 
ATOM      8  C   UNL     1       2.279   5.574  19.817  0.00  0.00    +0.000 A 
ATOM      9  C   UNL     1       2.588   4.908  18.633  0.00  0.00    +0.000 A 
ATOM     10  C   UNL     1       3.637   5.377  17.682  0.00  0.00    +0.000 A 
ATOM     11  O   UNL     1       3.908   6.561  17.533  0.00  0.00    +0.000 OA
ENDROOT
BRANCH   2  12
ATOM     12  O   UNL     1       4.754   1.963  17.440  0.00  0.00    +0.000 OA
ATOM     13  H   UNL     1       4.551   1.610  18.326  0.00  0.00    +0.000 HD
ENDBRANCH   2  12
BRANCH   1  14
ATOM     14  C   UNL     1       5.739   4.627  16.328  0.00  0.00    +0.000 C 
BRANCH  14  15
ATOM     15  C   UNL     1       6.670   5.519  17.176  0.00  0.00    +0.000 A 
ATOM     16  C   UNL     1       6.958   6.854  16.838  0.00  0.00    +0.000 A 
ATOM     17  C   UNL     1       7.745   7.656  17.665  0.00  0.00    +0.000 A 
ATOM     18  C   UNL     1       8.273   7.139  18.845  0.00  0.00    +0.000 A 
ATOM     19  C   UNL     1       8.004   5.823  19.203  0.00  0.00    +0.000 A 
ATOM     20  C   UNL     1       7.207   5.019  18.380  0.00  0.00    +0.000 A 
ENDBRANCH  14  15
BRANCH  14  21
ATOM     21  C   UNL     1       5.487   5.165  14.913  0.00  0.00    +0.000 C 
BRANCH  21  23
ATOM     22  C   UNL     1       6.197   3.616  12.958  0.00  0.00    +0.000 C 
ATOM     23  C   UNL     1       6.547   4.719  13.921  0.00  0.00    +0.000 C 
ATOM     24  O   UNL     1       7.653   5.263  13.897  0.00  0.00    +0.000 OA
ENDBRANCH  21  23
ENDBRANCH  14  21
ENDBRANCH   1  14
TORSDOF 5
ENDMDL
MODEL 2
REMARK VINA RESULT:      -8.7      0.151      1.015
REMARK  Name = 
REMARK  6 active torsions:
REMARK  status: ('A' for Active; 'I' for Inactive)
REMARK    1  A    between atoms: C_1  and  C_2
REMARK    2  A    between atoms: C_2  and  C_4
REMARK    3  A    between atoms: C_4  and  C_5
REMARK    4  A    between atoms: C_5  and  C_6
REMARK    5  A    between atoms: C_5  and  C_12
REMARK    6  A    between atoms: C_13  and  O_14
REMARK                            x       y       z     vdW  Elec       q    Type
REMARK                         _______ _______ _______ _____ _____    ______ ____
ROOT
ATOM      1  C   UNL     1       4.409   4.244  17.064  0.00  0.00    +0.000 A 
ATOM      2  C   UNL     1       3.922   3.001  17.214  0.00  0.00    +0.000 A 
ATOM      3  O   UNL     1       2.573   2.733  17.374  0.00  0.00    +0.000 OA
ATOM      4  C   UNL     1       1.962   3.522  18.302  0.00  0.00    +0.000 A 
ATOM      5  C   UNL     1       0.915   2.969  19.033  0.00  0.00    +0.000 A 
ATOM      6  C   UNL     1       0.549   3.578  20.230  0.00  0.00    +0.000 A 
ATOM      7  C   UNL     1       1.219   4.728  20.663  0.00  0.00    +0.000 A 
ATOM      8  C   UNL     1       2.174   5.357  19.849  0.00  0.00    +0.000 A 
ATOM      9  C   UNL     1       2.517   4.757  18.640  0.00  0.00    +0.000 A 
ATOM     10  C   UNL     1       3.572   5.292  17.731  0.00  0.00    +0.000 A 
ATOM     11  O   UNL     1       3.823   6.487  17.646  0.00  0.00    +0.000 OA
ENDROOT
BRANCH   2  12
ATOM     12  O   UNL     1       4.760   1.916  17.341  0.00  0.00    +0.000 OA
ATOM     13  H   UNL     1       4.492   1.289  16.644  0.00  0.00    +0.000 HD
ENDBRANCH   2  12
BRANCH   1  14
ATOM     14  C   UNL     1       5.711   4.650  16.380  0.00  0.00    +0.000 C 
BRANCH  14  15
ATOM     15  C   UNL     1       6.585   5.560  17.268  0.00  0.00    +0.000 A 
ATOM     16  C   UNL     1       7.201   5.104  18.448  0.00  0.00    +0.000 A 
ATOM     17  C   UNL     1       8.045   5.931  19.191  0.00  0.00    +0.000 A 
ATOM     18  C   UNL     1       8.285   7.238  18.777  0.00  0.00    +0.000 A 
ATOM     19  C   UNL     1       7.690   7.715  17.614  0.00  0.00    +0.000 A 
ATOM     20  C   UNL     1       6.850   6.884  16.863  0.00  0.00    +0.000 A 
ENDBRANCH  14  15
BRANCH  14  21
ATOM     21  C   UNL     1       5.477   5.204  14.968  0.00  0.00    +0.000 C 
BRANCH  21  23
ATOM     22  C   UNL     1       6.181   3.632  13.028  0.00  0.00    +0.000 C 
ATOM     23  C   UNL     1       6.534   4.745  13.979  0.00  0.00    +0.000 C 
ATOM     24  O   UNL     1       7.641   5.288  13.946  0.00  0.00    +0.000 OA
ENDBRANCH  21  23
ENDBRANCH  14  21
ENDBRANCH   1  14
TORSDOF 5
ENDMDL
MODEL 3
REMARK VINA RESULT:      -8.4      1.277      3.589
REMARK  Name = 
REMARK  6 active torsions:
REMARK  status: ('A' for Active; 'I' for Inactive)
REMARK    1  A    between atoms: C_1  and  C_2
REMARK    2  A    between atoms: C_2  and  C_4
REMARK    3  A    between atoms: C_4  and  C_5
REMARK    4  A    between atoms: C_5  and  C_6
REMARK    5  A    between atoms: C_5  and  C_12
REMARK    6  A    between atoms: C_13  and  O_14
REMARK                            x       y       z     vdW  Elec       q    Type
REMARK                         _______ _______ _______ _____ _____    ______ ____
ROOT
ATOM      1  C   UNL     1       4.739   4.768  16.991  0.00  0.00    +0.000 A 
ATOM      2  C   UNL     1       4.222   3.535  17.116  0.00  0.00    +0.000 A 
ATOM      3  O   UNL     1       2.866   3.296  17.266  0.00  0.00    +0.000 OA
ATOM      4  C   UNL     1       2.270   4.083  18.206  0.00  0.00    +0.000 A 
ATOM      5  C   UNL     1       1.207   3.542  18.923  0.00  0.00    +0.000 A 
ATOM      6  C   UNL     1       0.851   4.139  20.129  0.00  0.00    +0.000 A 
ATOM      7  C   UNL     1       1.546   5.264  20.585  0.00  0.00    +0.000 A 
ATOM      8  C   UNL     1       2.520   5.885  19.786  0.00  0.00    +0.000 A 
ATOM      9  C   UNL     1       2.853   5.298  18.568  0.00  0.00    +0.000 A 
ATOM     10  C   UNL     1       3.925   5.823  17.673  0.00  0.00    +0.000 A 
ATOM     11  O   UNL     1       4.204   7.014  17.610  0.00  0.00    +0.000 OA
ENDROOT
BRANCH   2  12
ATOM     12  O   UNL     1       5.033   2.428  17.227  0.00  0.00    +0.000 OA
ATOM     13  H   UNL     1       4.746   1.967  18.038  0.00  0.00    +0.000 HD
ENDBRANCH   2  12
BRANCH   1  14
ATOM     14  C   UNL     1       6.053   5.155  16.318  0.00  0.00    +0.000 C 
BRANCH  14  15
ATOM     15  C   UNL     1       6.143   4.647  14.864  0.00  0.00    +0.000 A 
ATOM     16  C   UNL     1       5.062   4.032  14.206  0.00  0.00    +0.000 A 
ATOM     17  C   UNL     1       5.152   3.650  12.867  0.00  0.00    +0.000 A 
ATOM     18  C   UNL     1       6.330   3.864  12.157  0.00  0.00    +0.000 A 
ATOM     19  C   UNL     1       7.413   4.470  12.781  0.00  0.00    +0.000 A 
ATOM     20  C   UNL     1       7.322   4.863  14.122  0.00  0.00    +0.000 A 
ENDBRANCH  14  15
BRANCH  14  21
ATOM     21  C   UNL     1       7.273   4.795  17.176  0.00  0.00    +0.000 C 
BRANCH  21  23
ATOM     22  C   UNL     1       7.725   7.231  17.945  0.00  0.00    +0.000 C 
ATOM     23  C   UNL     1       7.505   5.785  18.304  0.00  0.00    +0.000 C 
ATOM     24  O   UNL     1       7.490   5.413  19.479  0.00  0.00    +0.000 OA
ENDBRANCH  21  23
ENDBRANCH  14  21
ENDBRANCH   1  14
TORSDOF 5
ENDMDL
MODEL 4
REMARK VINA RESULT:      -8.4      1.272      3.562
REMARK  Name = 
REMARK  6 active torsions:
REMARK  status: ('A' for Active; 'I' for Inactive)
REMARK    1  A    between atoms: C_1  and  C_2
REMARK    2  A    between atoms: C_2  and  C_4
REMARK    3  A    between atoms: C_4  and  C_5
REMARK    4  A    between atoms: C_5  and  C_6
REMARK    5  A    between atoms: C_5  and  C_12
REMARK    6  A    between atoms: C_13  and  O_14
REMARK                            x       y       z     vdW  Elec       q    Type
REMARK                         _______ _______ _______ _____ _____    ______ ____
ROOT
ATOM      1  C   UNL     1       4.760   4.819  16.941  0.00  0.00    +0.000 A 
ATOM      2  C   UNL     1       4.251   3.581  17.049  0.00  0.00    +0.000 A 
ATOM      3  O   UNL     1       2.897   3.330  17.191  0.00  0.00    +0.000 OA
ATOM      4  C   UNL     1       2.291   4.101  18.139  0.00  0.00    +0.000 A 
ATOM      5  C   UNL     1       1.230   3.544  18.845  0.00  0.00    +0.000 A 
ATOM      6  C   UNL     1       0.866   4.122  20.058  0.00  0.00    +0.000 A 
ATOM      7  C   UNL     1       1.551   5.246  20.530  0.00  0.00    +0.000 A 
ATOM      8  C   UNL     1       2.523   5.884  19.743  0.00  0.00    +0.000 A 
ATOM      9  C   UNL     1       2.864   5.315  18.518  0.00  0.00    +0.000 A 
ATOM     10  C   UNL     1       3.936   5.860  17.634  0.00  0.00    +0.000 A 
ATOM     11  O   UNL     1       4.206   7.053  17.588  0.00  0.00    +0.000 OA
ENDROOT
BRANCH   2  12
ATOM     12  O   UNL     1       5.069   2.478  17.148  0.00  0.00    +0.000 OA
ATOM     13  H   UNL     1       5.964   2.788  16.913  0.00  0.00    +0.000 HD
ENDBRANCH   2  12
BRANCH   1  14
ATOM     14  C   UNL     1       6.073   5.224  16.278  0.00  0.00    +0.000 C 
BRANCH  14  15
ATOM     15  C   UNL     1       6.153   4.774  14.805  0.00  0.00    +0.000 A 
ATOM     16  C   UNL     1       7.316   4.928  14.026  0.00  0.00    +0.000 A 
ATOM     17  C   UNL     1       7.380   4.444  12.718  0.00  0.00    +0.000 A 
ATOM     18  C   UNL     1       6.279   3.806  12.154  0.00  0.00    +0.000 A 
ATOM     19  C   UNL     1       5.118   3.641  12.901  0.00  0.00    +0.000 A 
ATOM     20  C   UNL     1       5.054   4.117  14.216  0.00  0.00    +0.000 A 
ENDBRANCH  14  15
BRANCH  14  21
ATOM     21  C   UNL     1       7.295   4.823  17.116  0.00  0.00    +0.000 C 
BRANCH  21  23
ATOM     22  C   UNL     1       7.685   7.272  17.877  0.00  0.00    +0.000 C 
ATOM     23  C   UNL     1       7.588   5.811  18.231  0.00  0.00    +0.000 C 
ATOM     24  O   UNL     1       7.720   5.425  19.394  0.00  0.00    +0.000 OA
ENDBRANCH  21  23
ENDBRANCH  14  21
ENDBRANCH   1  14
TORSDOF 5
ENDMDL
MODEL 5
REMARK VINA RESULT:      -8.0      0.961      2.172
REMARK  Name = 
REMARK  6 active torsions:
REMARK  status: ('A' for Active; 'I' for Inactive)
REMARK    1  A    between atoms: C_1  and  C_2
REMARK    2  A    between atoms: C_2  and  C_4
REMARK    3  A    between atoms: C_4  and  C_5
REMARK    4  A    between atoms: C_5  and  C_6
REMARK    5  A    between atoms: C_5  and  C_12
REMARK    6  A    between atoms: C_13  and  O_14
REMARK                            x       y       z     vdW  Elec       q    Type
REMARK                         _______ _______ _______ _____ _____    ______ ____
ROOT
ATOM      1  C   UNL     1       4.706   4.859  17.833  0.00  0.00    +0.000 A 
ATOM      2  C   UNL     1       3.976   5.746  18.529  0.00  0.00    +0.000 A 
ATOM      3  O   UNL     1       3.293   5.418  19.688  0.00  0.00    +0.000 OA
ATOM      4  C   UNL     1       2.555   4.276  19.588  0.00  0.00    +0.000 A 
ATOM      5  C   UNL     1       1.374   4.203  20.318  0.00  0.00    +0.000 A 
ATOM      6  C   UNL     1       0.419   3.264  19.940  0.00  0.00    +0.000 A 
ATOM      7  C   UNL     1       0.667   2.411  18.860  0.00  0.00    +0.000 A 
ATOM      8  C   UNL     1       1.918   2.396  18.222  0.00  0.00    +0.000 A 
ATOM      9  C   UNL     1       2.879   3.321  18.623  0.00  0.00    +0.000 A 
ATOM     10  C   UNL     1       4.213   3.451  17.967  0.00  0.00    +0.000 A 
ATOM     11  O   UNL     1       4.790   2.499  17.459  0.00  0.00    +0.000 OA
ENDROOT
BRANCH   2  12
ATOM     12  O   UNL     1       3.761   7.021  18.057  0.00  0.00    +0.000 OA
ATOM     13  H   UNL     1       3.322   6.915  17.193  0.00  0.00    +0.000 HD
ENDBRANCH   2  12
BRANCH   1  14
ATOM     14  C   UNL     1       5.880   5.154  16.904  0.00  0.00    +0.000 C 
BRANCH  14  15
ATOM     15  C   UNL     1       6.844   6.207  17.490  0.00  0.00    +0.000 A 
ATOM     16  C   UNL     1       6.939   7.516  16.981  0.00  0.00    +0.000 A 
ATOM     17  C   UNL     1       7.768   8.467  17.579  0.00  0.00    +0.000 A 
ATOM     18  C   UNL     1       8.530   8.128  18.693  0.00  0.00    +0.000 A 
ATOM     19  C   UNL     1       8.455   6.842  19.217  0.00  0.00    +0.000 A 
ATOM     20  C   UNL     1       7.618   5.889  18.624  0.00  0.00    +0.000 A 
ENDBRANCH  14  15
BRANCH  14  21
ATOM     21  C   UNL     1       5.426   5.460  15.471  0.00  0.00    +0.000 C 
BRANCH  21  23
ATOM     22  C   UNL     1       5.888   3.779  13.550  0.00  0.00    +0.000 C 
ATOM     23  C   UNL     1       6.376   4.902  14.426  0.00  0.00    +0.000 C 
ATOM     24  O   UNL     1       7.506   5.375  14.289  0.00  0.00    +0.000 OA
ENDBRANCH  21  23
ENDBRANCH  14  21
ENDBRANCH   1  14
TORSDOF 5
ENDMDL
MODEL 6
REMARK VINA RESULT:      -8.0      1.012      2.416
REMARK  Name = 
REMARK  6 active torsions:
REMARK  status: ('A' for Active; 'I' for Inactive)
REMARK    1  A    between atoms: C_1  and  C_2
REMARK    2  A    between atoms: C_2  and  C_4
REMARK    3  A    between atoms: C_4  and  C_5
REMARK    4  A    between atoms: C_5  and  C_6
REMARK    5  A    between atoms: C_5  and  C_12
REMARK    6  A    between atoms: C_13  and  O_14
REMARK                            x       y       z     vdW  Elec       q    Type
REMARK                         _______ _______ _______ _____ _____    ______ ____
ROOT
ATOM      1  C   UNL     1       4.668   4.903  17.890  0.00  0.00    +0.000 A 
ATOM      2  C   UNL     1       3.899   5.768  18.572  0.00  0.00    +0.000 A 
ATOM      3  O   UNL     1       3.194   5.416  19.710  0.00  0.00    +0.000 OA
ATOM      4  C   UNL     1       2.486   4.258  19.582  0.00  0.00    +0.000 A 
ATOM      5  C   UNL     1       1.287   4.152  20.279  0.00  0.00    +0.000 A 
ATOM      6  C   UNL     1       0.365   3.193  19.870  0.00  0.00    +0.000 A 
ATOM      7  C   UNL     1       0.662   2.354  18.790  0.00  0.00    +0.000 A 
ATOM      8  C   UNL     1       1.929   2.373  18.187  0.00  0.00    +0.000 A 
ATOM      9  C   UNL     1       2.857   3.318  18.620  0.00  0.00    +0.000 A 
ATOM     10  C   UNL     1       4.205   3.483  18.002  0.00  0.00    +0.000 A 
ATOM     11  O   UNL     1       4.819   2.549  17.503  0.00  0.00    +0.000 OA
ENDROOT
BRANCH   2  12
ATOM     12  O   UNL     1       3.667   7.041  18.103  0.00  0.00    +0.000 OA
ATOM     13  H   UNL     1       2.821   6.998  17.621  0.00  0.00    +0.000 HD
ENDBRANCH   2  12
BRANCH   1  14
ATOM     14  C   UNL     1       5.860   5.233  16.995  0.00  0.00    +0.000 C 
BRANCH  14  15
ATOM     15  C   UNL     1       6.780   6.308  17.611  0.00  0.00    +0.000 A 
ATOM     16  C   UNL     1       7.634   6.044  18.698  0.00  0.00    +0.000 A 
ATOM     17  C   UNL     1       8.507   7.018  19.185  0.00  0.00    +0.000 A 
ATOM     18  C   UNL     1       8.538   8.283  18.605  0.00  0.00    +0.000 A 
ATOM     19  C   UNL     1       7.705   8.571  17.530  0.00  0.00    +0.000 A 
ATOM     20  C   UNL     1       6.835   7.592  17.033  0.00  0.00    +0.000 A 
ENDBRANCH  14  15
BRANCH  14  21
ATOM     21  C   UNL     1       5.438   5.532  15.551  0.00  0.00    +0.000 C 
BRANCH  21  23
ATOM     22  C   UNL     1       5.856   3.838  13.632  0.00  0.00    +0.000 C 
ATOM     23  C   UNL     1       6.384   4.926  14.529  0.00  0.00    +0.000 C 
ATOM     24  O   UNL     1       7.543   5.333  14.428  0.00  0.00    +0.000 OA
ENDBRANCH  21  23
ENDBRANCH  14  21
ENDBRANCH   1  14
TORSDOF 5
ENDMDL
MODEL 7
REMARK VINA RESULT:      -7.9      1.633      3.749
REMARK  Name = 
REMARK  6 active torsions:
REMARK  status: ('A' for Active; 'I' for Inactive)
REMARK    1  A    between atoms: C_1  and  C_2
REMARK    2  A    between atoms: C_2  and  C_4
REMARK    3  A    between atoms: C_4  and  C_5
REMARK    4  A    between atoms: C_5  and  C_6
REMARK    5  A    between atoms: C_5  and  C_12
REMARK    6  A    between atoms: C_13  and  O_14
REMARK                            x       y       z     vdW  Elec       q    Type
REMARK                         _______ _______ _______ _____ _____    ______ ____
ROOT
ATOM      1  C   UNL     1       5.107   5.361  17.201  0.00  0.00    +0.000 A 
ATOM      2  C   UNL     1       5.010   4.253  17.954  0.00  0.00    +0.000 A 
ATOM      3  O   UNL     1       3.799   3.719  18.359  0.00  0.00    +0.000 OA
ATOM      4  C   UNL     1       2.937   4.639  18.878  0.00  0.00    +0.000 A 
ATOM      5  C   UNL     1       2.073   4.221  19.884  0.00  0.00    +0.000 A 
ATOM      6  C   UNL     1       1.487   5.187  20.697  0.00  0.00    +0.000 A 
ATOM      7  C   UNL     1       1.760   6.542  20.481  0.00  0.00    +0.000 A 
ATOM      8  C   UNL     1       2.518   6.959  19.376  0.00  0.00    +0.000 A 
ATOM      9  C   UNL     1       3.079   5.988  18.550  0.00  0.00    +0.000 A 
ATOM     10  C   UNL     1       3.965   6.310  17.393  0.00  0.00    +0.000 A 
ATOM     11  O   UNL     1       3.848   7.341  16.743  0.00  0.00    +0.000 OA
ENDROOT
BRANCH   2  12
ATOM     12  O   UNL     1       6.129   3.646  18.479  0.00  0.00    +0.000 OA
ATOM     13  H   UNL     1       6.206   3.975  19.394  0.00  0.00    +0.000 HD
ENDBRANCH   2  12
BRANCH   1  14
ATOM     14  C   UNL     1       6.256   5.751  16.275  0.00  0.00    +0.000 C 
BRANCH  14  15
ATOM     15  C   UNL     1       6.224   4.982  14.938  0.00  0.00    +0.000 A 
ATOM     16  C   UNL     1       5.096   4.260  14.505  0.00  0.00    +0.000 A 
ATOM     17  C   UNL     1       5.072   3.636  13.257  0.00  0.00    +0.000 A 
ATOM     18  C   UNL     1       6.179   3.709  12.417  0.00  0.00    +0.000 A 
ATOM     19  C   UNL     1       7.307   4.416  12.820  0.00  0.00    +0.000 A 
ATOM     20  C   UNL     1       7.330   5.051  14.067  0.00  0.00    +0.000 A 
ENDBRANCH  14  15
BRANCH  14  21
ATOM     21  C   UNL     1       7.616   5.703  16.985  0.00  0.00    +0.000 C 
BRANCH  21  23
ATOM     22  C   UNL     1       7.784   8.166  17.780  0.00  0.00    +0.000 C 
ATOM     23  C   UNL     1       7.716   6.702  18.124  0.00  0.00    +0.000 C 
ATOM     24  O   UNL     1       7.718   6.320  19.296  0.00  0.00    +0.000 OA
ENDBRANCH  21  23
ENDBRANCH  14  21
ENDBRANCH   1  14
TORSDOF 5
ENDMDL
MODEL 8
REMARK VINA RESULT:      -7.9      2.137      5.969
REMARK  Name = 
REMARK  6 active torsions:
REMARK  status: ('A' for Active; 'I' for Inactive)
REMARK    1  A    between atoms: C_1  and  C_2
REMARK    2  A    between atoms: C_2  and  C_4
REMARK    3  A    between atoms: C_4  and  C_5
REMARK    4  A    between atoms: C_5  and  C_6
REMARK    5  A    between atoms: C_5  and  C_12
REMARK    6  A    between atoms: C_13  and  O_14
REMARK                            x       y       z     vdW  Elec       q    Type
REMARK                         _______ _______ _______ _____ _____    ______ ____
ROOT
ATOM      1  C   UNL     1       3.167   4.728  18.647  0.00  0.00    +0.000 A 
ATOM      2  C   UNL     1       2.889   3.987  17.562  0.00  0.00    +0.000 A 
ATOM      3  O   UNL     1       3.831   3.196  16.926  0.00  0.00    +0.000 OA
ATOM      4  C   UNL     1       5.015   3.831  16.691  0.00  0.00    +0.000 A 
ATOM      5  C   UNL     1       5.725   3.475  15.550  0.00  0.00    +0.000 A 
ATOM      6  C   UNL     1       6.693   4.353  15.071  0.00  0.00    +0.000 A 
ATOM      7  C   UNL     1       6.942   5.553  15.744  0.00  0.00    +0.000 A 
ATOM      8  C   UNL     1       6.322   5.836  16.972  0.00  0.00    +0.000 A 
ATOM      9  C   UNL     1       5.374   4.940  17.459  0.00  0.00    +0.000 A 
ATOM     10  C   UNL     1       4.595   5.173  18.711  0.00  0.00    +0.000 A 
ATOM     11  O   UNL     1       5.049   5.800  19.659  0.00  0.00    +0.000 OA
ENDROOT
BRANCH   2  12
ATOM     12  O   UNL     1       1.666   4.066  16.937  0.00  0.00    +0.000 OA
ATOM     13  H   UNL     1       1.011   4.205  17.647  0.00  0.00    +0.000 HD
ENDBRANCH   2  12
BRANCH   1  14
ATOM     14  C   UNL     1       2.189   5.198  19.721  0.00  0.00    +0.000 C 
BRANCH  14  15
ATOM     15  C   UNL     1       1.940   6.719  19.667  0.00  0.00    +0.000 A 
ATOM     16  C   UNL     1       2.129   7.479  18.497  0.00  0.00    +0.000 A 
ATOM     17  C   UNL     1       1.825   8.841  18.461  0.00  0.00    +0.000 A 
ATOM     18  C   UNL     1       1.336   9.478  19.598  0.00  0.00    +0.000 A 
ATOM     19  C   UNL     1       1.140   8.752  20.767  0.00  0.00    +0.000 A 
ATOM     20  C   UNL     1       1.435   7.384  20.803  0.00  0.00    +0.000 A 
ENDBRANCH  14  15
BRANCH  14  21
ATOM     21  C   UNL     1       2.565   4.681  21.115  0.00  0.00    +0.000 C 
BRANCH  21  23
ATOM     22  C   UNL     1       0.926   2.751  20.549  0.00  0.00    +0.000 C 
ATOM     23  C   UNL     1       2.091   3.258  21.357  0.00  0.00    +0.000 C 
ATOM     24  O   UNL     1       2.662   2.537  22.178  0.00  0.00    +0.000 OA
ENDBRANCH  21  23
ENDBRANCH  14  21
ENDBRANCH   1  14
TORSDOF 5
ENDMDL
MODEL 9
REMARK VINA RESULT:      -7.6      2.133      6.015
REMARK  Name = 
REMARK  6 active torsions:
REMARK  status: ('A' for Active; 'I' for Inactive)
REMARK    1  A    between atoms: C_1  and  C_2
REMARK    2  A    between atoms: C_2  and  C_4
REMARK    3  A    between atoms: C_4  and  C_5
REMARK    4  A    between atoms: C_5  and  C_6
REMARK    5  A    between atoms: C_5  and  C_12
REMARK    6  A    between atoms: C_13  and  O_14
REMARK                            x       y       z     vdW  Elec       q    Type
REMARK                         _______ _______ _______ _____ _____    ______ ____
ROOT
ATOM      1  C   UNL     1       3.170   4.706  18.629  0.00  0.00    +0.000 A 
ATOM      2  C   UNL     1       2.922   3.960  17.540  0.00  0.00    +0.000 A 
ATOM      3  O   UNL     1       3.891   3.197  16.911  0.00  0.00    +0.000 OA
ATOM      4  C   UNL     1       5.059   3.864  16.688  0.00  0.00    +0.000 A 
ATOM      5  C   UNL     1       5.789   3.530  15.552  0.00  0.00    +0.000 A 
ATOM      6  C   UNL     1       6.736   4.435  15.084  0.00  0.00    +0.000 A 
ATOM      7  C   UNL     1       6.947   5.640  15.762  0.00  0.00    +0.000 A 
ATOM      8  C   UNL     1       6.309   5.903  16.984  0.00  0.00    +0.000 A 
ATOM      9  C   UNL     1       5.381   4.980  17.462  0.00  0.00    +0.000 A 
ATOM     10  C   UNL     1       4.585   5.189  18.706  0.00  0.00    +0.000 A 
ATOM     11  O   UNL     1       5.013   5.826  19.660  0.00  0.00    +0.000 OA
ENDROOT
BRANCH   2  12
ATOM     12  O   UNL     1       1.702   4.008  16.904  0.00  0.00    +0.000 OA
ATOM     13  H   UNL     1       1.255   3.169  17.122  0.00  0.00    +0.000 HD
ENDBRANCH   2  12
BRANCH   1  14
ATOM     14  C   UNL     1       2.170   5.147  19.695  0.00  0.00    +0.000 C 
BRANCH  14  15
ATOM     15  C   UNL     1       1.865   6.658  19.629  0.00  0.00    +0.000 A 
ATOM     16  C   UNL     1       1.441   7.396  20.749  0.00  0.00    +0.000 A 
ATOM     17  C   UNL     1       1.244   8.776  20.674  0.00  0.00    +0.000 A 
ATOM     18  C   UNL     1       1.455   9.448  19.474  0.00  0.00    +0.000 A 
ATOM     19  C   UNL     1       1.874   8.743  18.351  0.00  0.00    +0.000 A 
ATOM     20  C   UNL     1       2.082   7.361  18.426  0.00  0.00    +0.000 A 
ENDBRANCH  14  15
BRANCH  14  21
ATOM     21  C   UNL     1       2.559   4.654  21.095  0.00  0.00    +0.000 C 
BRANCH  21  23
ATOM     22  C   UNL     1       0.938   2.711  20.522  0.00  0.00    +0.000 C 
ATOM     23  C   UNL     1       2.049   3.252  21.382  0.00  0.00    +0.000 C 
ATOM     24  O   UNL     1       2.551   2.574  22.281  0.00  0.00    +0.000 OA
ENDBRANCH  21  23
ENDBRANCH  14  21
ENDBRANCH   1  14
TORSDOF 5
ENDMDL
