MODEL 1
REMARK VINA RESULT:      -9.8      0.000      0.000
REMARK  Name = 
REMARK  3 active torsions:
REMARK  status: ('A' for Active; 'I' for Inactive)
REMARK    1  A    between atoms: C_1  and  C_2
REMARK    2  A    between atoms: C_8  and  C_10
REMARK    3  A    between atoms: C_10  and  C_13
REMARK                            x       y       z     vdW  Elec       q    Type
REMARK                         _______ _______ _______ _____ _____    ______ ____
ROOT
ATOM      1  C   UNL     1       4.612   5.639  18.001  0.00  0.00    +0.000 C 
ATOM      2  F   UNL     1       5.482   5.577  19.057  0.00  0.00    +0.000 F 
ATOM      3  F   UNL     1       3.892   6.783  18.222  0.00  0.00    +0.000 F 
ENDROOT
BRANCH   1   4
ATOM      4  C   UNL     1       3.700   4.408  18.012  0.00  0.00    +0.000 C 
ATOM      5  F   UNL     1       2.943   4.382  16.879  0.00  0.00    +0.000 F 
ATOM      6  O   UNL     1       4.391   3.142  17.982  0.00  0.00    +0.000 OA
ATOM      7  C   UNL     1       3.342   2.250  18.367  0.00  0.00    +0.000 C 
ATOM      8  F   UNL     1       3.865   1.046  18.676  0.00  0.00    +0.000 F 
ATOM      9  F   UNL     1       2.547   2.068  17.287  0.00  0.00    +0.000 F 
ATOM     10  C   UNL     1       2.595   2.895  19.510  0.00  0.00    +0.000 C 
ATOM     11  F   UNL     1       3.172   2.563  20.702  0.00  0.00    +0.000 F 
ATOM     12  F   UNL     1       1.300   2.527  19.600  0.00  0.00    +0.000 F 
ATOM     13  C   UNL     1       2.801   4.364  19.238  0.00  0.00    +0.000 C 
ATOM     14  F   UNL     1       3.418   4.942  20.307  0.00  0.00    +0.000 F 
ATOM     15  F   UNL     1       1.643   5.032  19.080  0.00  0.00    +0.000 F 
ENDBRANCH   1   4
BRANCH   1  23
ATOM     16  C   UNL     1       5.651   2.392  11.459  0.00  0.00    +0.000 C 
ATOM     17  C   UNL     1       6.113   3.402  12.463  0.00  0.00    +0.000 A 
ATOM     18  C   UNL     1       7.188   4.244  12.195  0.00  0.00    +0.000 A 
ATOM     19  C   UNL     1       7.563   5.152  13.170  0.00  0.00    +0.000 A 
ATOM     20  N   UNL     1       6.947   5.263  14.363  0.00  0.00    +0.000 NA
ATOM     21  C   UNL     1       5.895   4.466  14.619  0.00  0.00    +0.000 A 
ATOM     22  N   UNL     1       5.222   4.586  15.850  0.00  0.00    +0.000 N 
ATOM     23  C   UNL     1       5.385   5.688  16.676  0.00  0.00    +0.000 C 
ATOM     24  O   UNL     1       6.018   6.699  16.383  0.00  0.00    +0.000 OA
ATOM     25  C   UNL     1       5.462   3.512  13.704  0.00  0.00    +0.000 A 
ATOM     26  H   UNL     1       4.547   3.871  16.095  0.00  0.00    +0.000 HD
ENDBRANCH   1  23
TORSDOF 2
ENDMDL
MODEL 2
REMARK VINA RESULT:      -9.8      1.231      1.440
REMARK  Name = 
REMARK  3 active torsions:
REMARK  status: ('A' for Active; 'I' for Inactive)
REMARK    1  A    between atoms: C_1  and  C_2
REMARK    2  A    between atoms: C_8  and  C_10
REMARK    3  A    between atoms: C_10  and  C_13
REMARK                            x       y       z     vdW  Elec       q    Type
REMARK                         _______ _______ _______ _____ _____    ______ ____
ROOT
ATOM      1  C   UNL     1       5.036   4.821  18.842  0.00  0.00    +0.000 C 
ATOM      2  F   UNL     1       5.576   3.684  19.381  0.00  0.00    +0.000 F 
ATOM      3  F   UNL     1       5.287   5.791  19.776  0.00  0.00    +0.000 F 
ENDROOT
BRANCH   1   4
ATOM      4  C   UNL     1       3.529   4.630  18.642  0.00  0.00    +0.000 C 
ATOM      5  F   UNL     1       3.039   5.615  17.836  0.00  0.00    +0.000 F 
ATOM      6  O   UNL     1       3.158   3.419  17.952  0.00  0.00    +0.000 OA
ATOM      7  C   UNL     1       1.761   3.353  18.249  0.00  0.00    +0.000 C 
ATOM      8  F   UNL     1       1.289   2.132  17.929  0.00  0.00    +0.000 F 
ATOM      9  F   UNL     1       1.132   4.241  17.442  0.00  0.00    +0.000 F 
ATOM     10  C   UNL     1       1.589   3.704  19.708  0.00  0.00    +0.000 C 
ATOM     11  F   UNL     1       1.698   2.585  20.481  0.00  0.00    +0.000 F 
ATOM     12  F   UNL     1       0.395   4.256  20.006  0.00  0.00    +0.000 F 
ATOM     13  C   UNL     1       2.768   4.611  19.958  0.00  0.00    +0.000 C 
ATOM     14  F   UNL     1       3.540   4.088  20.953  0.00  0.00    +0.000 F 
ATOM     15  F   UNL     1       2.402   5.834  20.386  0.00  0.00    +0.000 F 
ENDBRANCH   1   4
BRANCH   1  23
ATOM     16  C   UNL     1       5.637   2.798  11.772  0.00  0.00    +0.000 C 
ATOM     17  C   UNL     1       6.145   3.643  12.899  0.00  0.00    +0.000 A 
ATOM     18  C   UNL     1       7.164   4.572  12.702  0.00  0.00    +0.000 A 
ATOM     19  C   UNL     1       7.586   5.316  13.789  0.00  0.00    +0.000 A 
ATOM     20  N   UNL     1       7.068   5.190  15.027  0.00  0.00    +0.000 NA
ATOM     21  C   UNL     1       6.071   4.310  15.219  0.00  0.00    +0.000 A 
ATOM     22  N   UNL     1       5.501   4.184  16.499  0.00  0.00    +0.000 N 
ATOM     23  C   UNL     1       5.693   5.135  17.490  0.00  0.00    +0.000 C 
ATOM     24  O   UNL     1       6.262   6.211  17.331  0.00  0.00    +0.000 OA
ATOM     25  C   UNL     1       5.597   3.507  14.187  0.00  0.00    +0.000 A 
ATOM     26  H   UNL     1       4.875   3.405  16.667  0.00  0.00    +0.000 HD
ENDBRANCH   1  23
TORSDOF 2
ENDMDL
MODEL 3
REMARK VINA RESULT:      -9.3      1.532      1.871
REMARK  Name = 
REMARK  3 active torsions:
REMARK  status: ('A' for Active; 'I' for Inactive)
REMARK    1  A    between atoms: C_1  and  C_2
REMARK    2  A    between atoms: C_8  and  C_10
REMARK    3  A    between atoms: C_10  and  C_13
REMARK                            x       y       z     vdW  Elec       q    Type
REMARK                         _______ _______ _______ _____ _____    ______ ____
ROOT
ATOM      1  C   UNL     1       2.872   5.836  18.617  0.00  0.00    +0.000 C 
ATOM      2  F   UNL     1       3.024   6.703  19.666  0.00  0.00    +0.000 F 
ATOM      3  F   UNL     1       1.777   6.308  17.943  0.00  0.00    +0.000 F 
ENDROOT
BRANCH   1   4
ATOM      4  C   UNL     1       2.620   4.422  19.150  0.00  0.00    +0.000 C 
ATOM      5  F   UNL     1       2.141   3.628  18.151  0.00  0.00    +0.000 F 
ATOM      6  O   UNL     1       3.800   3.723  19.596  0.00  0.00    +0.000 OA
ATOM      7  C   UNL     1       3.217   2.653  20.344  0.00  0.00    +0.000 C 
ATOM      8  F   UNL     1       4.169   2.048  21.084  0.00  0.00    +0.000 F 
ATOM      9  F   UNL     1       2.767   1.735  19.457  0.00  0.00    +0.000 F 
ATOM     10  C   UNL     1       2.093   3.235  21.168  0.00  0.00    +0.000 C 
ATOM     11  F   UNL     1       2.564   3.678  22.370  0.00  0.00    +0.000 F 
ATOM     12  F   UNL     1       1.104   2.361  21.447  0.00  0.00    +0.000 F 
ATOM     13  C   UNL     1       1.658   4.410  20.328  0.00  0.00    +0.000 C 
ATOM     14  F   UNL     1       1.775   5.557  21.056  0.00  0.00    +0.000 F 
ATOM     15  F   UNL     1       0.363   4.340  19.965  0.00  0.00    +0.000 F 
ENDBRANCH   1   4
BRANCH   1  23
ATOM     16  C   UNL     1       5.929   3.327  12.389  0.00  0.00    +0.000 C 
ATOM     17  C   UNL     1       6.112   4.014  13.706  0.00  0.00    +0.000 A 
ATOM     18  C   UNL     1       7.348   4.533  14.083  0.00  0.00    +0.000 A 
ATOM     19  C   UNL     1       7.446   5.153  15.316  0.00  0.00    +0.000 A 
ATOM     20  N   UNL     1       6.413   5.280  16.172  0.00  0.00    +0.000 NA
ATOM     21  C   UNL     1       5.213   4.799  15.805  0.00  0.00    +0.000 A 
ATOM     22  N   UNL     1       4.116   4.946  16.675  0.00  0.00    +0.000 N 
ATOM     23  C   UNL     1       4.134   5.832  17.742  0.00  0.00    +0.000 C 
ATOM     24  O   UNL     1       5.027   6.643  17.968  0.00  0.00    +0.000 OA
ATOM     25  C   UNL     1       5.028   4.145  14.592  0.00  0.00    +0.000 A 
ATOM     26  H   UNL     1       3.268   4.434  16.463  0.00  0.00    +0.000 HD
ENDBRANCH   1  23
TORSDOF 2
ENDMDL
MODEL 4
REMARK VINA RESULT:      -9.3      1.674      2.617
REMARK  Name = 
REMARK  3 active torsions:
REMARK  status: ('A' for Active; 'I' for Inactive)
REMARK    1  A    between atoms: C_1  and  C_2
REMARK    2  A    between atoms: C_8  and  C_10
REMARK    3  A    between atoms: C_10  and  C_13
REMARK                            x       y       z     vdW  Elec       q    Type
REMARK                         _______ _______ _______ _____ _____    ______ ____
ROOT
ATOM      1  C   UNL     1       6.774   5.437  18.221  0.00  0.00    +0.000 C 
ATOM      2  F   UNL     1       7.583   4.471  18.757  0.00  0.00    +0.000 F 
ATOM      3  F   UNL     1       7.092   6.571  18.920  0.00  0.00    +0.000 F 
ENDROOT
BRANCH   1   4
ATOM      4  C   UNL     1       5.305   5.056  18.435  0.00  0.00    +0.000 C 
ATOM      5  F   UNL     1       5.085   3.787  17.989  0.00  0.00    +0.000 F 
ATOM      6  O   UNL     1       4.889   5.002  19.815  0.00  0.00    +0.000 OA
ATOM      7  C   UNL     1       3.467   4.999  19.671  0.00  0.00    +0.000 C 
ATOM      8  F   UNL     1       2.891   5.241  20.866  0.00  0.00    +0.000 F 
ATOM      9  F   UNL     1       3.098   3.749  19.304  0.00  0.00    +0.000 F 
ATOM     10  C   UNL     1       3.115   6.020  18.614  0.00  0.00    +0.000 C 
ATOM     11  F   UNL     1       2.950   7.251  19.179  0.00  0.00    +0.000 F 
ATOM     12  F   UNL     1       1.974   5.752  17.946  0.00  0.00    +0.000 F 
ATOM     13  C   UNL     1       4.350   6.020  17.749  0.00  0.00    +0.000 C 
ATOM     14  F   UNL     1       4.879   7.276  17.712  0.00  0.00    +0.000 F 
ATOM     15  F   UNL     1       4.089   5.697  16.468  0.00  0.00    +0.000 F 
ENDBRANCH   1   4
BRANCH   1  23
ATOM     16  C   UNL     1       5.609   2.564  11.526  0.00  0.00    +0.000 C 
ATOM     17  C   UNL     1       6.357   3.545  12.375  0.00  0.00    +0.000 A 
ATOM     18  C   UNL     1       7.253   4.451  11.811  0.00  0.00    +0.000 A 
ATOM     19  C   UNL     1       7.912   5.326  12.656  0.00  0.00    +0.000 A 
ATOM     20  N   UNL     1       7.736   5.350  13.991  0.00  0.00    +0.000 NA
ATOM     21  C   UNL     1       6.858   4.492  14.539  0.00  0.00    +0.000 A 
ATOM     22  N   UNL     1       6.643   4.520  15.929  0.00  0.00    +0.000 N 
ATOM     23  C   UNL     1       7.047   5.587  16.718  0.00  0.00    +0.000 C 
ATOM     24  O   UNL     1       7.512   6.640  16.291  0.00  0.00    +0.000 OA
ATOM     25  C   UNL     1       6.166   3.564  13.768  0.00  0.00    +0.000 A 
ATOM     26  H   UNL     1       6.113   3.763  16.345  0.00  0.00    +0.000 HD
ENDBRANCH   1  23
TORSDOF 2
ENDMDL
MODEL 5
REMARK VINA RESULT:      -9.3      3.692      5.691
REMARK  Name = 
REMARK  3 active torsions:
REMARK  status: ('A' for Active; 'I' for Inactive)
REMARK    1  A    between atoms: C_1  and  C_2
REMARK    2  A    between atoms: C_8  and  C_10
REMARK    3  A    between atoms: C_10  and  C_13
REMARK                            x       y       z     vdW  Elec       q    Type
REMARK                         _______ _______ _______ _____ _____    ______ ____
ROOT
ATOM      1  C   UNL     1       4.810   4.599  18.759  0.00  0.00    +0.000 C 
ATOM      2  F   UNL     1       5.389   4.086  17.629  0.00  0.00    +0.000 F 
ATOM      3  F   UNL     1       5.856   4.774  19.626  0.00  0.00    +0.000 F 
ENDROOT
BRANCH   1   4
ATOM      4  C   UNL     1       3.797   3.596  19.319  0.00  0.00    +0.000 C 
ATOM      5  F   UNL     1       4.445   2.619  20.013  0.00  0.00    +0.000 F 
ATOM      6  O   UNL     1       2.877   4.141  20.288  0.00  0.00    +0.000 OA
ATOM      7  C   UNL     1       1.882   3.115  20.325  0.00  0.00    +0.000 C 
ATOM      8  F   UNL     1       0.786   3.573  20.964  0.00  0.00    +0.000 F 
ATOM      9  F   UNL     1       2.374   2.097  21.070  0.00  0.00    +0.000 F 
ATOM     10  C   UNL     1       1.615   2.689  18.901  0.00  0.00    +0.000 C 
ATOM     11  F   UNL     1       0.641   3.468  18.346  0.00  0.00    +0.000 F 
ATOM     12  F   UNL     1       1.197   1.413  18.776  0.00  0.00    +0.000 F 
ATOM     13  C   UNL     1       2.936   2.973  18.231  0.00  0.00    +0.000 C 
ATOM     14  F   UNL     1       2.745   3.853  17.206  0.00  0.00    +0.000 F 
ATOM     15  F   UNL     1       3.483   1.877  17.673  0.00  0.00    +0.000 F 
ENDBRANCH   1   4
BRANCH   1  23
ATOM     16  C   UNL     1       0.228   9.790  21.306  0.00  0.00    +0.000 C 
ATOM     17  C   UNL     1       0.960   9.203  20.139  0.00  0.00    +0.000 A 
ATOM     18  C   UNL     1       0.916   9.805  18.884  0.00  0.00    +0.000 A 
ATOM     19  C   UNL     1       1.612   9.207  17.849  0.00  0.00    +0.000 A 
ATOM     20  N   UNL     1       2.328   8.074  17.989  0.00  0.00    +0.000 NA
ATOM     21  C   UNL     1       2.391   7.499  19.202  0.00  0.00    +0.000 A 
ATOM     22  N   UNL     1       3.156   6.330  19.373  0.00  0.00    +0.000 N 
ATOM     23  C   UNL     1       4.096   5.920  18.439  0.00  0.00    +0.000 C 
ATOM     24  O   UNL     1       4.439   6.569  17.455  0.00  0.00    +0.000 OA
ATOM     25  C   UNL     1       1.707   8.022  20.294  0.00  0.00    +0.000 A 
ATOM     26  H   UNL     1       3.057   5.818  20.242  0.00  0.00    +0.000 HD
ENDBRANCH   1  23
TORSDOF 2
ENDMDL
MODEL 6
REMARK VINA RESULT:      -9.2      3.808      6.539
REMARK  Name = 
REMARK  3 active torsions:
REMARK  status: ('A' for Active; 'I' for Inactive)
REMARK    1  A    between atoms: C_1  and  C_2
REMARK    2  A    between atoms: C_8  and  C_10
REMARK    3  A    between atoms: C_10  and  C_13
REMARK                            x       y       z     vdW  Elec       q    Type
REMARK                         _______ _______ _______ _____ _____    ______ ____
ROOT
ATOM      1  C   UNL     1       3.859   5.820  18.301  0.00  0.00    +0.000 C 
ATOM      2  F   UNL     1       4.015   5.637  16.953  0.00  0.00    +0.000 F 
ATOM      3  F   UNL     1       5.139   5.911  18.782  0.00  0.00    +0.000 F 
ENDROOT
BRANCH   1   4
ATOM      4  C   UNL     1       3.133   4.613  18.904  0.00  0.00    +0.000 C 
ATOM      5  F   UNL     1       3.108   4.716  20.263  0.00  0.00    +0.000 F 
ATOM      6  O   UNL     1       1.738   4.508  18.551  0.00  0.00    +0.000 OA
ATOM      7  C   UNL     1       1.462   3.157  18.930  0.00  0.00    +0.000 C 
ATOM      8  F   UNL     1       0.277   2.776  18.412  0.00  0.00    +0.000 F 
ATOM      9  F   UNL     1       1.328   3.132  20.277  0.00  0.00    +0.000 F 
ATOM     10  C   UNL     1       2.623   2.310  18.466  0.00  0.00    +0.000 C 
ATOM     11  F   UNL     1       2.418   1.881  17.187  0.00  0.00    +0.000 F 
ATOM     12  F   UNL     1       2.829   1.202  19.209  0.00  0.00    +0.000 F 
ATOM     13  C   UNL     1       3.766   3.292  18.496  0.00  0.00    +0.000 C 
ATOM     14  F   UNL     1       4.316   3.387  17.252  0.00  0.00    +0.000 F 
ATOM     15  F   UNL     1       4.767   2.903  19.308  0.00  0.00    +0.000 F 
ENDBRANCH   1   4
BRANCH   1  23
ATOM     16  C   UNL     1      -0.059   9.554  23.315  0.00  0.00    +0.000 C 
ATOM     17  C   UNL     1       0.360   9.404  21.886  0.00  0.00    +0.000 A 
ATOM     18  C   UNL     1      -0.028  10.328  20.919  0.00  0.00    +0.000 A 
ATOM     19  C   UNL     1       0.393  10.126  19.617  0.00  0.00    +0.000 A 
ATOM     20  N   UNL     1       1.156   9.083  19.233  0.00  0.00    +0.000 NA
ATOM     21  C   UNL     1       1.551   8.199  20.165  0.00  0.00    +0.000 A 
ATOM     22  N   UNL     1       2.369   7.118  19.787  0.00  0.00    +0.000 N 
ATOM     23  C   UNL     1       3.045   7.092  18.576  0.00  0.00    +0.000 C 
ATOM     24  O   UNL     1       3.100   8.027  17.781  0.00  0.00    +0.000 OA
ATOM     25  C   UNL     1       1.158   8.314  21.494  0.00  0.00    +0.000 A 
ATOM     26  H   UNL     1       2.516   6.374  20.458  0.00  0.00    +0.000 HD
ENDBRANCH   1  23
TORSDOF 2
ENDMDL
MODEL 7
REMARK VINA RESULT:      -9.1      3.688      6.814
REMARK  Name = 
REMARK  3 active torsions:
REMARK  status: ('A' for Active; 'I' for Inactive)
REMARK    1  A    between atoms: C_1  and  C_2
REMARK    2  A    between atoms: C_8  and  C_10
REMARK    3  A    between atoms: C_10  and  C_13
REMARK                            x       y       z     vdW  Elec       q    Type
REMARK                         _______ _______ _______ _____ _____    ______ ____
ROOT
ATOM      1  C   UNL     1       3.830   4.742  18.380  0.00  0.00    +0.000 C 
ATOM      2  F   UNL     1       3.766   3.449  18.827  0.00  0.00    +0.000 F 
ATOM      3  F   UNL     1       3.377   4.678  17.089  0.00  0.00    +0.000 F 
ENDROOT
BRANCH   1   4
ATOM      4  C   UNL     1       5.282   5.231  18.427  0.00  0.00    +0.000 C 
ATOM      5  F   UNL     1       5.519   5.867  19.609  0.00  0.00    +0.000 F 
ATOM      6  O   UNL     1       6.274   4.184  18.405  0.00  0.00    +0.000 OA
ATOM      7  C   UNL     1       7.451   4.932  18.089  0.00  0.00    +0.000 C 
ATOM      8  F   UNL     1       8.442   4.087  17.741  0.00  0.00    +0.000 F 
ATOM      9  F   UNL     1       7.850   5.560  19.220  0.00  0.00    +0.000 F 
ATOM     10  C   UNL     1       7.086   5.914  17.002  0.00  0.00    +0.000 C 
ATOM     11  F   UNL     1       7.246   5.344  15.772  0.00  0.00    +0.000 F 
ATOM     12  F   UNL     1       7.835   7.037  16.999  0.00  0.00    +0.000 F 
ATOM     13  C   UNL     1       5.621   6.152  17.265  0.00  0.00    +0.000 C 
ATOM     14  F   UNL     1       4.900   5.814  16.158  0.00  0.00    +0.000 F 
ATOM     15  F   UNL     1       5.337   7.446  17.504  0.00  0.00    +0.000 F 
ENDBRANCH   1   4
BRANCH   1  23
ATOM     16  C   UNL     1       0.140  11.122  18.708  0.00  0.00    +0.000 C 
ATOM     17  C   UNL     1       0.687   9.933  19.434  0.00  0.00    +0.000 A 
ATOM     18  C   UNL     1       0.448   9.745  20.793  0.00  0.00    +0.000 A 
ATOM     19  C   UNL     1       0.987   8.625  21.401  0.00  0.00    +0.000 A 
ATOM     20  N   UNL     1       1.730   7.708  20.751  0.00  0.00    +0.000 NA
ATOM     21  C   UNL     1       1.947   7.873  19.435  0.00  0.00    +0.000 A 
ATOM     22  N   UNL     1       2.699   6.912  18.734  0.00  0.00    +0.000 N 
ATOM     23  C   UNL     1       2.958   5.653  19.256  0.00  0.00    +0.000 C 
ATOM     24  O   UNL     1       2.478   5.211  20.295  0.00  0.00    +0.000 OA
ATOM     25  C   UNL     1       1.459   8.979  18.747  0.00  0.00    +0.000 A 
ATOM     26  H   UNL     1       2.996   7.133  17.791  0.00  0.00    +0.000 HD
ENDBRANCH   1  23
TORSDOF 2
ENDMDL
MODEL 8
REMARK VINA RESULT:      -9.0      1.512      2.392
REMARK  Name = 
REMARK  3 active torsions:
REMARK  status: ('A' for Active; 'I' for Inactive)
REMARK    1  A    between atoms: C_1  and  C_2
REMARK    2  A    between atoms: C_8  and  C_10
REMARK    3  A    between atoms: C_10  and  C_13
REMARK                            x       y       z     vdW  Elec       q    Type
REMARK                         _______ _______ _______ _____ _____    ______ ____
ROOT
ATOM      1  C   UNL     1       3.014   5.759  18.542  0.00  0.00    +0.000 C 
ATOM      2  F   UNL     1       3.068   6.783  19.449  0.00  0.00    +0.000 F 
ATOM      3  F   UNL     1       1.861   5.990  17.839  0.00  0.00    +0.000 F 
ENDROOT
BRANCH   1   4
ATOM      4  C   UNL     1       2.944   4.419  19.282  0.00  0.00    +0.000 C 
ATOM      5  F   UNL     1       4.201   3.929  19.474  0.00  0.00    +0.000 F 
ATOM      6  O   UNL     1       2.406   4.492  20.618  0.00  0.00    +0.000 OA
ATOM      7  C   UNL     1       2.133   3.113  20.877  0.00  0.00    +0.000 C 
ATOM      8  F   UNL     1       1.355   3.006  21.974  0.00  0.00    +0.000 F 
ATOM      9  F   UNL     1       3.311   2.513  21.171  0.00  0.00    +0.000 F 
ATOM     10  C   UNL     1       1.503   2.533  19.633  0.00  0.00    +0.000 C 
ATOM     11  F   UNL     1       0.149   2.698  19.664  0.00  0.00    +0.000 F 
ATOM     12  F   UNL     1       1.720   1.211  19.469  0.00  0.00    +0.000 F 
ATOM     13  C   UNL     1       2.096   3.394  18.546  0.00  0.00    +0.000 C 
ATOM     14  F   UNL     1       1.093   4.007  17.855  0.00  0.00    +0.000 F 
ATOM     15  F   UNL     1       2.783   2.681  17.634  0.00  0.00    +0.000 F 
ENDBRANCH   1   4
BRANCH   1  23
ATOM     16  C   UNL     1       5.965   3.349  12.225  0.00  0.00    +0.000 C 
ATOM     17  C   UNL     1       6.168   4.025  13.545  0.00  0.00    +0.000 A 
ATOM     18  C   UNL     1       7.406   4.555  13.900  0.00  0.00    +0.000 A 
ATOM     19  C   UNL     1       7.523   5.164  15.137  0.00  0.00    +0.000 A 
ATOM     20  N   UNL     1       6.507   5.270  16.016  0.00  0.00    +0.000 NA
ATOM     21  C   UNL     1       5.305   4.779  15.670  0.00  0.00    +0.000 A 
ATOM     22  N   UNL     1       4.226   4.903  16.565  0.00  0.00    +0.000 N 
ATOM     23  C   UNL     1       4.256   5.779  17.640  0.00  0.00    +0.000 C 
ATOM     24  O   UNL     1       5.144   6.598  17.855  0.00  0.00    +0.000 OA
ATOM     25  C   UNL     1       5.102   4.134  14.455  0.00  0.00    +0.000 A 
ATOM     26  H   UNL     1       3.379   4.384  16.365  0.00  0.00    +0.000 HD
ENDBRANCH   1  23
TORSDOF 2
ENDMDL
MODEL 9
REMARK VINA RESULT:      -8.9      4.242      6.855
REMARK  Name = 
REMARK  3 active torsions:
REMARK  status: ('A' for Active; 'I' for Inactive)
REMARK    1  A    between atoms: C_1  and  C_2
REMARK    2  A    between atoms: C_8  and  C_10
REMARK    3  A    between atoms: C_10  and  C_13
REMARK                            x       y       z     vdW  Elec       q    Type
REMARK                         _______ _______ _______ _____ _____    ______ ____
ROOT
ATOM      1  C   UNL     1       2.715   5.843  18.210  0.00  0.00    +0.000 C 
ATOM      2  F   UNL     1       1.729   5.340  17.403  0.00  0.00    +0.000 F 
ATOM      3  F   UNL     1       3.851   5.758  17.449  0.00  0.00    +0.000 F 
ENDROOT
BRANCH   1   4
ATOM      4  C   UNL     1       2.836   4.983  19.472  0.00  0.00    +0.000 C 
ATOM      5  F   UNL     1       3.493   5.677  20.445  0.00  0.00    +0.000 F 
ATOM      6  O   UNL     1       1.580   4.642  20.095  0.00  0.00    +0.000 OA
ATOM      7  C   UNL     1       1.987   3.585  20.967  0.00  0.00    +0.000 C 
ATOM      8  F   UNL     1       0.899   2.937  21.429  0.00  0.00    +0.000 F 
ATOM      9  F   UNL     1       2.592   4.150  22.038  0.00  0.00    +0.000 F 
ATOM     10  C   UNL     1       2.933   2.697  20.193  0.00  0.00    +0.000 C 
ATOM     11  F   UNL     1       2.239   1.734  19.521  0.00  0.00    +0.000 F 
ATOM     12  F   UNL     1       3.834   2.049  20.960  0.00  0.00    +0.000 F 
ATOM     13  C   UNL     1       3.544   3.664  19.209  0.00  0.00    +0.000 C 
ATOM     14  F   UNL     1       3.300   3.232  17.939  0.00  0.00    +0.000 F 
ATOM     15  F   UNL     1       4.883   3.741  19.317  0.00  0.00    +0.000 F 
ENDBRANCH   1   4
BRANCH   1  23
ATOM     16  C   UNL     1      -0.556  10.174  23.207  0.00  0.00    +0.000 C 
ATOM     17  C   UNL     1       0.086  10.049  21.861  0.00  0.00    +0.000 A 
ATOM     18  C   UNL     1       0.294  11.166  21.055  0.00  0.00    +0.000 A 
ATOM     19  C   UNL     1       0.890  10.977  19.821  0.00  0.00    +0.000 A 
ATOM     20  N   UNL     1       1.278   9.773  19.355  0.00  0.00    +0.000 NA
ATOM     21  C   UNL     1       1.098   8.695  20.137  0.00  0.00    +0.000 A 
ATOM     22  N   UNL     1       1.520   7.433  19.678  0.00  0.00    +0.000 N 
ATOM     23  C   UNL     1       2.391   7.290  18.608  0.00  0.00    +0.000 C 
ATOM     24  O   UNL     1       2.964   8.215  18.039  0.00  0.00    +0.000 OA
ATOM     25  C   UNL     1       0.490   8.789  21.384  0.00  0.00    +0.000 A 
ATOM     26  H   UNL     1       1.227   6.614  20.198  0.00  0.00    +0.000 HD
ENDBRANCH   1  23
TORSDOF 2
ENDMDL
