MODEL 1
REMARK VINA RESULT:      -6.7      0.000      0.000
REMARK  Name = 
REMARK  5 active torsions:
REMARK  status: ('A' for Active; 'I' for Inactive)
REMARK    1  A    between atoms: C_2  and  O_3
REMARK    2  A    between atoms: C_2  and  C_12
REMARK    3  A    between atoms: O_3  and  C_4
REMARK    4  A    between atoms: C_4  and  C_5
REMARK    5  A    between atoms: C_5  and  C_7
REMARK                            x       y       z     vdW  Elec       q    Type
REMARK                         _______ _______ _______ _____ _____    ______ ____
ROOT
ATOM      1  O   UNL     1       3.872   6.366  18.670  0.00  0.00    +0.000 OA
ENDROOT
BRANCH   1   3
ATOM      2  O   UNL     1       2.203   7.459  19.796  0.00  0.00    +0.000 OA
ATOM      3  C   UNL     1       2.693   6.441  19.333  0.00  0.00    +0.000 C 
BRANCH   3   4
ATOM      4  C   UNL     1       2.039   5.101  19.385  0.00  0.00    +0.000 A 
ATOM      5  C   UNL     1       1.695   4.572  20.637  0.00  0.00    +0.000 A 
ATOM      6  C   UNL     1       1.080   3.322  20.730  0.00  0.00    +0.000 A 
ATOM      7  C   UNL     1       0.799   2.592  19.574  0.00  0.00    +0.000 A 
ATOM      8  C   UNL     1       1.128   3.114  18.325  0.00  0.00    +0.000 A 
ATOM      9  C   UNL     1       1.746   4.365  18.228  0.00  0.00    +0.000 A 
ENDBRANCH   3   4
ENDBRANCH   1   3
BRANCH   1  10
ATOM     10  C   UNL     1       4.915   5.670  19.356  0.00  0.00    +0.000 C 
BRANCH  10  11
ATOM     11  C   UNL     1       5.313   4.327  18.728  0.00  0.00    +0.000 C 
ATOM     12  O   UNL     1       5.277   3.288  19.392  0.00  0.00    +0.000 OA
BRANCH  11  13
ATOM     13  C   UNL     1       5.674   4.370  17.309  0.00  0.00    +0.000 A 
ATOM     14  C   UNL     1       4.897   4.131  16.187  0.00  0.00    +0.000 A 
ATOM     15  C   UNL     1       5.635   4.242  14.971  0.00  0.00    +0.000 A 
ATOM     16  C   UNL     1       6.951   4.569  15.195  0.00  0.00    +0.000 A 
ATOM     17  S   UNL     1       7.289   4.746  16.861  0.00  0.00    +0.000 S 
ENDBRANCH  11  13
ENDBRANCH  10  11
ENDBRANCH   1  10
TORSDOF 5
ENDMDL
MODEL 2
REMARK VINA RESULT:      -6.3      2.480      4.523
REMARK  Name = 
REMARK  5 active torsions:
REMARK  status: ('A' for Active; 'I' for Inactive)
REMARK    1  A    between atoms: C_2  and  O_3
REMARK    2  A    between atoms: C_2  and  C_12
REMARK    3  A    between atoms: O_3  and  C_4
REMARK    4  A    between atoms: C_4  and  C_5
REMARK    5  A    between atoms: C_5  and  C_7
REMARK                            x       y       z     vdW  Elec       q    Type
REMARK                         _______ _______ _______ _____ _____    ______ ____
ROOT
ATOM      1  O   UNL     1       4.790   5.149  19.008  0.00  0.00    +0.000 OA
ENDROOT
BRANCH   1   3
ATOM      2  O   UNL     1       4.384   5.386  16.766  0.00  0.00    +0.000 OA
ATOM      3  C   UNL     1       4.204   5.719  17.927  0.00  0.00    +0.000 C 
BRANCH   3   4
ATOM      4  C   UNL     1       3.263   6.796  18.352  0.00  0.00    +0.000 A 
ATOM      5  C   UNL     1       2.664   6.701  19.616  0.00  0.00    +0.000 A 
ATOM      6  C   UNL     1       1.778   7.689  20.053  0.00  0.00    +0.000 A 
ATOM      7  C   UNL     1       1.486   8.780  19.233  0.00  0.00    +0.000 A 
ATOM      8  C   UNL     1       2.084   8.886  17.979  0.00  0.00    +0.000 A 
ATOM      9  C   UNL     1       2.970   7.898  17.538  0.00  0.00    +0.000 A 
ENDBRANCH   3   4
ENDBRANCH   1   3
BRANCH   1  10
ATOM     10  C   UNL     1       5.184   3.786  18.840  0.00  0.00    +0.000 C 
BRANCH  10  11
ATOM     11  C   UNL     1       4.475   2.792  19.772  0.00  0.00    +0.000 C 
ATOM     12  O   UNL     1       5.126   2.038  20.498  0.00  0.00    +0.000 OA
BRANCH  11  13
ATOM     13  C   UNL     1       3.011   2.849  19.766  0.00  0.00    +0.000 A 
ATOM     14  C   UNL     1       2.132   3.189  20.782  0.00  0.00    +0.000 A 
ATOM     15  C   UNL     1       0.765   3.087  20.385  0.00  0.00    +0.000 A 
ATOM     16  C   UNL     1       0.637   2.681  19.077  0.00  0.00    +0.000 A 
ATOM     17  S   UNL     1       2.157   2.430  18.336  0.00  0.00    +0.000 S 
ENDBRANCH  11  13
ENDBRANCH  10  11
ENDBRANCH   1  10
TORSDOF 5
ENDMDL
MODEL 3
REMARK VINA RESULT:      -6.3      2.818      5.961
REMARK  Name = 
REMARK  5 active torsions:
REMARK  status: ('A' for Active; 'I' for Inactive)
REMARK    1  A    between atoms: C_2  and  O_3
REMARK    2  A    between atoms: C_2  and  C_12
REMARK    3  A    between atoms: O_3  and  C_4
REMARK    4  A    between atoms: C_4  and  C_5
REMARK    5  A    between atoms: C_5  and  C_7
REMARK                            x       y       z     vdW  Elec       q    Type
REMARK                         _______ _______ _______ _____ _____    ______ ____
ROOT
ATOM      1  O   UNL     1       4.446   3.858  17.261  0.00  0.00    +0.000 OA
ENDROOT
BRANCH   1   3
ATOM      2  O   UNL     1       5.655   3.857  15.314  0.00  0.00    +0.000 OA
ATOM      3  C   UNL     1       5.477   4.231  16.464  0.00  0.00    +0.000 C 
BRANCH   3   4
ATOM      4  C   UNL     1       6.356   5.207  17.170  0.00  0.00    +0.000 A 
ATOM      5  C   UNL     1       7.010   4.795  18.340  0.00  0.00    +0.000 A 
ATOM      6  C   UNL     1       7.843   5.677  19.031  0.00  0.00    +0.000 A 
ATOM      7  C   UNL     1       8.034   6.976  18.558  0.00  0.00    +0.000 A 
ATOM      8  C   UNL     1       7.396   7.391  17.391  0.00  0.00    +0.000 A 
ATOM      9  C   UNL     1       6.559   6.511  16.698  0.00  0.00    +0.000 A 
ENDBRANCH   3   4
ENDBRANCH   1   3
BRANCH   1  10
ATOM     10  C   UNL     1       3.481   4.878  17.527  0.00  0.00    +0.000 C 
BRANCH  10  11
ATOM     11  C   UNL     1       2.109   4.362  17.982  0.00  0.00    +0.000 C 
ATOM     12  O   UNL     1       1.161   4.317  17.194  0.00  0.00    +0.000 OA
BRANCH  11  13
ATOM     13  C   UNL     1       2.034   3.893  19.368  0.00  0.00    +0.000 A 
ATOM     14  C   UNL     1       2.275   4.573  20.551  0.00  0.00    +0.000 A 
ATOM     15  C   UNL     1       2.128   3.744  21.703  0.00  0.00    +0.000 A 
ATOM     16  C   UNL     1       1.772   2.458  21.371  0.00  0.00    +0.000 A 
ATOM     17  S   UNL     1       1.612   2.257  19.682  0.00  0.00    +0.000 S 
ENDBRANCH  11  13
ENDBRANCH  10  11
ENDBRANCH   1  10
TORSDOF 5
ENDMDL
MODEL 4
REMARK VINA RESULT:      -6.3      2.007      2.877
REMARK  Name = 
REMARK  5 active torsions:
REMARK  status: ('A' for Active; 'I' for Inactive)
REMARK    1  A    between atoms: C_2  and  O_3
REMARK    2  A    between atoms: C_2  and  C_12
REMARK    3  A    between atoms: O_3  and  C_4
REMARK    4  A    between atoms: C_4  and  C_5
REMARK    5  A    between atoms: C_5  and  C_7
REMARK                            x       y       z     vdW  Elec       q    Type
REMARK                         _______ _______ _______ _____ _____    ______ ____
ROOT
ATOM      1  O   UNL     1       4.876   3.751  17.185  0.00  0.00    +0.000 OA
ENDROOT
BRANCH   1   3
ATOM      2  O   UNL     1       5.677   4.132  19.297  0.00  0.00    +0.000 OA
ATOM      3  C   UNL     1       4.769   3.844  18.533  0.00  0.00    +0.000 C 
BRANCH   3   4
ATOM      4  C   UNL     1       3.363   3.589  18.963  0.00  0.00    +0.000 A 
ATOM      5  C   UNL     1       2.931   4.119  20.186  0.00  0.00    +0.000 A 
ATOM      6  C   UNL     1       1.622   3.904  20.625  0.00  0.00    +0.000 A 
ATOM      7  C   UNL     1       0.735   3.163  19.844  0.00  0.00    +0.000 A 
ATOM      8  C   UNL     1       1.153   2.641  18.622  0.00  0.00    +0.000 A 
ATOM      9  C   UNL     1       2.463   2.852  18.181  0.00  0.00    +0.000 A 
ENDBRANCH   3   4
ENDBRANCH   1   3
BRANCH   1  10
ATOM     10  C   UNL     1       5.455   4.887  16.539  0.00  0.00    +0.000 C 
BRANCH  10  11
ATOM     11  C   UNL     1       6.778   4.607  15.811  0.00  0.00    +0.000 C 
ATOM     12  O   UNL     1       7.843   4.582  16.431  0.00  0.00    +0.000 OA
BRANCH  11  13
ATOM     13  C   UNL     1       6.667   4.328  14.376  0.00  0.00    +0.000 A 
ATOM     14  C   UNL     1       5.766   3.526  13.695  0.00  0.00    +0.000 A 
ATOM     15  C   UNL     1       6.015   3.487  12.290  0.00  0.00    +0.000 A 
ATOM     16  C   UNL     1       7.092   4.265  11.937  0.00  0.00    +0.000 A 
ATOM     17  S   UNL     1       7.792   5.039  13.290  0.00  0.00    +0.000 S 
ENDBRANCH  11  13
ENDBRANCH  10  11
ENDBRANCH   1  10
TORSDOF 5
ENDMDL
MODEL 5
REMARK VINA RESULT:      -6.3      1.037      1.709
REMARK  Name = 
REMARK  5 active torsions:
REMARK  status: ('A' for Active; 'I' for Inactive)
REMARK    1  A    between atoms: C_2  and  O_3
REMARK    2  A    between atoms: C_2  and  C_12
REMARK    3  A    between atoms: O_3  and  C_4
REMARK    4  A    between atoms: C_4  and  C_5
REMARK    5  A    between atoms: C_5  and  C_7
REMARK                            x       y       z     vdW  Elec       q    Type
REMARK                         _______ _______ _______ _____ _____    ______ ____
ROOT
ATOM      1  O   UNL     1       3.924   6.363  18.948  0.00  0.00    +0.000 OA
ENDROOT
BRANCH   1   3
ATOM      2  O   UNL     1       2.090   7.515  19.695  0.00  0.00    +0.000 OA
ATOM      3  C   UNL     1       2.655   6.470  19.411  0.00  0.00    +0.000 C 
BRANCH   3   4
ATOM      4  C   UNL     1       2.014   5.125  19.489  0.00  0.00    +0.000 A 
ATOM      5  C   UNL     1       1.746   4.441  18.294  0.00  0.00    +0.000 A 
ATOM      6  C   UNL     1       1.148   3.180  18.323  0.00  0.00    +0.000 A 
ATOM      7  C   UNL     1       0.816   2.589  19.543  0.00  0.00    +0.000 A 
ATOM      8  C   UNL     1       1.088   3.257  20.735  0.00  0.00    +0.000 A 
ATOM      9  C   UNL     1       1.684   4.522  20.710  0.00  0.00    +0.000 A 
ENDBRANCH   3   4
ENDBRANCH   1   3
BRANCH   1  10
ATOM     10  C   UNL     1       4.658   5.238  19.435  0.00  0.00    +0.000 C 
BRANCH  10  11
ATOM     11  C   UNL     1       6.111   5.155  18.942  0.00  0.00    +0.000 C 
ATOM     12  O   UNL     1       7.050   5.321  19.724  0.00  0.00    +0.000 OA
BRANCH  11  13
ATOM     13  C   UNL     1       6.283   4.819  17.527  0.00  0.00    +0.000 A 
ATOM     14  C   UNL     1       7.302   5.157  16.651  0.00  0.00    +0.000 A 
ATOM     15  C   UNL     1       7.082   4.660  15.331  0.00  0.00    +0.000 A 
ATOM     16  C   UNL     1       5.908   3.952  15.236  0.00  0.00    +0.000 A 
ATOM     17  S   UNL     1       5.082   3.884  16.731  0.00  0.00    +0.000 S 
ENDBRANCH  11  13
ENDBRANCH  10  11
ENDBRANCH   1  10
TORSDOF 5
ENDMDL
MODEL 6
REMARK VINA RESULT:      -6.3      2.349      5.927
REMARK  Name = 
REMARK  5 active torsions:
REMARK  status: ('A' for Active; 'I' for Inactive)
REMARK    1  A    between atoms: C_2  and  O_3
REMARK    2  A    between atoms: C_2  and  C_12
REMARK    3  A    between atoms: O_3  and  C_4
REMARK    4  A    between atoms: C_4  and  C_5
REMARK    5  A    between atoms: C_5  and  C_7
REMARK                            x       y       z     vdW  Elec       q    Type
REMARK                         _______ _______ _______ _____ _____    ______ ____
ROOT
ATOM      1  O   UNL     1       6.938   4.622  17.108  0.00  0.00    +0.000 OA
ENDROOT
BRANCH   1   3
ATOM      2  O   UNL     1       7.619   6.654  16.299  0.00  0.00    +0.000 OA
ATOM      3  C   UNL     1       7.192   5.523  16.128  0.00  0.00    +0.000 C 
BRANCH   3   4
ATOM      4  C   UNL     1       6.917   4.927  14.788  0.00  0.00    +0.000 A 
ATOM      5  C   UNL     1       7.758   5.268  13.719  0.00  0.00    +0.000 A 
ATOM      6  C   UNL     1       7.536   4.731  12.449  0.00  0.00    +0.000 A 
ATOM      7  C   UNL     1       6.477   3.847  12.237  0.00  0.00    +0.000 A 
ATOM      8  C   UNL     1       5.644   3.495  13.296  0.00  0.00    +0.000 A 
ATOM      9  C   UNL     1       5.861   4.033  14.569  0.00  0.00    +0.000 A 
ENDBRANCH   3   4
ENDBRANCH   1   3
BRANCH   1  10
ATOM     10  C   UNL     1       6.266   5.142  18.256  0.00  0.00    +0.000 C 
BRANCH  10  11
ATOM     11  C   UNL     1       4.746   5.295  18.099  0.00  0.00    +0.000 C 
ATOM     12  O   UNL     1       4.243   6.404  17.907  0.00  0.00    +0.000 OA
BRANCH  11  13
ATOM     13  C   UNL     1       3.975   4.050  18.139  0.00  0.00    +0.000 A 
ATOM     14  C   UNL     1       2.940   3.620  17.324  0.00  0.00    +0.000 A 
ATOM     15  C   UNL     1       2.422   2.348  17.716  0.00  0.00    +0.000 A 
ATOM     16  C   UNL     1       3.080   1.840  18.810  0.00  0.00    +0.000 A 
ATOM     17  S   UNL     1       4.314   2.887  19.357  0.00  0.00    +0.000 S 
ENDBRANCH  11  13
ENDBRANCH  10  11
ENDBRANCH   1  10
TORSDOF 5
ENDMDL
MODEL 7
REMARK VINA RESULT:      -6.3      2.521      5.909
REMARK  Name = 
REMARK  5 active torsions:
REMARK  status: ('A' for Active; 'I' for Inactive)
REMARK    1  A    between atoms: C_2  and  O_3
REMARK    2  A    between atoms: C_2  and  C_12
REMARK    3  A    between atoms: O_3  and  C_4
REMARK    4  A    between atoms: C_4  and  C_5
REMARK    5  A    between atoms: C_5  and  C_7
REMARK                            x       y       z     vdW  Elec       q    Type
REMARK                         _______ _______ _______ _____ _____    ______ ____
ROOT
ATOM      1  O   UNL     1       6.157   6.090  16.172  0.00  0.00    +0.000 OA
ENDROOT
BRANCH   1   3
ATOM      2  O   UNL     1       7.916   4.657  16.491  0.00  0.00    +0.000 OA
ATOM      3  C   UNL     1       7.009   5.102  15.805  0.00  0.00    +0.000 C 
BRANCH   3   4
ATOM      4  C   UNL     1       6.660   4.590  14.447  0.00  0.00    +0.000 A 
ATOM      5  C   UNL     1       7.560   4.814  13.396  0.00  0.00    +0.000 A 
ATOM      6  C   UNL     1       7.272   4.350  12.110  0.00  0.00    +0.000 A 
ATOM      7  C   UNL     1       6.086   3.656  11.865  0.00  0.00    +0.000 A 
ATOM      8  C   UNL     1       5.191   3.420  12.906  0.00  0.00    +0.000 A 
ATOM      9  C   UNL     1       5.475   3.885  14.195  0.00  0.00    +0.000 A 
ENDBRANCH   3   4
ENDBRANCH   1   3
BRANCH   1  10
ATOM     10  C   UNL     1       6.107   6.363  17.573  0.00  0.00    +0.000 C 
BRANCH  10  11
ATOM     11  C   UNL     1       5.597   5.202  18.438  0.00  0.00    +0.000 C 
ATOM     12  O   UNL     1       6.265   4.784  19.387  0.00  0.00    +0.000 OA
BRANCH  11  13
ATOM     13  C   UNL     1       4.270   4.686  18.090  0.00  0.00    +0.000 A 
ATOM     14  C   UNL     1       3.910   3.478  17.514  0.00  0.00    +0.000 A 
ATOM     15  C   UNL     1       2.503   3.367  17.301  0.00  0.00    +0.000 A 
ATOM     16  C   UNL     1       1.828   4.486  17.727  0.00  0.00    +0.000 A 
ATOM     17  S   UNL     1       2.885   5.658  18.383  0.00  0.00    +0.000 S 
ENDBRANCH  11  13
ENDBRANCH  10  11
ENDBRANCH   1  10
TORSDOF 5
ENDMDL
MODEL 8
REMARK VINA RESULT:      -6.2      2.112      2.946
REMARK  Name = 
REMARK  5 active torsions:
REMARK  status: ('A' for Active; 'I' for Inactive)
REMARK    1  A    between atoms: C_2  and  O_3
REMARK    2  A    between atoms: C_2  and  C_12
REMARK    3  A    between atoms: O_3  and  C_4
REMARK    4  A    between atoms: C_4  and  C_5
REMARK    5  A    between atoms: C_5  and  C_7
REMARK                            x       y       z     vdW  Elec       q    Type
REMARK                         _______ _______ _______ _____ _____    ______ ____
ROOT
ATOM      1  O   UNL     1       2.780   6.380  17.625  0.00  0.00    +0.000 OA
ENDROOT
BRANCH   1   3
ATOM      2  O   UNL     1       2.508   7.048  19.800  0.00  0.00    +0.000 OA
ATOM      3  C   UNL     1       2.467   6.191  18.930  0.00  0.00    +0.000 C 
BRANCH   3   4
ATOM      4  C   UNL     1       2.017   4.788  19.160  0.00  0.00    +0.000 A 
ATOM      5  C   UNL     1       2.133   3.867  18.110  0.00  0.00    +0.000 A 
ATOM      6  C   UNL     1       1.724   2.543  18.285  0.00  0.00    +0.000 A 
ATOM      7  C   UNL     1       1.201   2.127  19.510  0.00  0.00    +0.000 A 
ATOM      8  C   UNL     1       1.091   3.033  20.562  0.00  0.00    +0.000 A 
ATOM      9  C   UNL     1       1.497   4.360  20.390  0.00  0.00    +0.000 A 
ENDBRANCH   3   4
ENDBRANCH   1   3
BRANCH   1  10
ATOM     10  C   UNL     1       3.773   7.376  17.374  0.00  0.00    +0.000 C 
BRANCH  10  11
ATOM     11  C   UNL     1       5.050   6.856  16.698  0.00  0.00    +0.000 C 
ATOM     12  O   UNL     1       5.092   6.689  15.477  0.00  0.00    +0.000 OA
BRANCH  11  13
ATOM     13  C   UNL     1       6.194   6.634  17.587  0.00  0.00    +0.000 A 
ATOM     14  C   UNL     1       7.400   7.311  17.669  0.00  0.00    +0.000 A 
ATOM     15  C   UNL     1       8.276   6.760  18.652  0.00  0.00    +0.000 A 
ATOM     16  C   UNL     1       7.713   5.686  19.299  0.00  0.00    +0.000 A 
ATOM     17  S   UNL     1       6.138   5.349  18.726  0.00  0.00    +0.000 S 
ENDBRANCH  11  13
ENDBRANCH  10  11
ENDBRANCH   1  10
TORSDOF 5
ENDMDL
MODEL 9
REMARK VINA RESULT:      -6.2      1.596      5.532
REMARK  Name = 
REMARK  5 active torsions:
REMARK  status: ('A' for Active; 'I' for Inactive)
REMARK    1  A    between atoms: C_2  and  O_3
REMARK    2  A    between atoms: C_2  and  C_12
REMARK    3  A    between atoms: O_3  and  C_4
REMARK    4  A    between atoms: C_4  and  C_5
REMARK    5  A    between atoms: C_5  and  C_7
REMARK                            x       y       z     vdW  Elec       q    Type
REMARK                         _______ _______ _______ _____ _____    ______ ____
ROOT
ATOM      1  O   UNL     1       5.013   5.729  19.046  0.00  0.00    +0.000 OA
ENDROOT
BRANCH   1   3
ATOM      2  O   UNL     1       5.242   3.464  19.307  0.00  0.00    +0.000 OA
ATOM      3  C   UNL     1       5.343   4.480  18.637  0.00  0.00    +0.000 C 
BRANCH   3   4
ATOM      4  C   UNL     1       5.815   4.502  17.221  0.00  0.00    +0.000 A 
ATOM      5  C   UNL     1       4.948   4.044  16.220  0.00  0.00    +0.000 A 
ATOM      6  C   UNL     1       5.350   4.050  14.882  0.00  0.00    +0.000 A 
ATOM      7  C   UNL     1       6.618   4.518  14.534  0.00  0.00    +0.000 A 
ATOM      8  C   UNL     1       7.482   4.984  15.522  0.00  0.00    +0.000 A 
ATOM      9  C   UNL     1       7.084   4.978  16.863  0.00  0.00    +0.000 A 
ENDBRANCH   3   4
ENDBRANCH   1   3
BRANCH   1  10
ATOM     10  C   UNL     1       3.804   6.252  18.491  0.00  0.00    +0.000 C 
BRANCH  10  11
ATOM     11  C   UNL     1       2.593   6.214  19.435  0.00  0.00    +0.000 C 
ATOM     12  O   UNL     1       2.186   7.244  19.977  0.00  0.00    +0.000 OA
BRANCH  11  13
ATOM     13  C   UNL     1       1.950   4.906  19.591  0.00  0.00    +0.000 A 
ATOM     14  C   UNL     1       1.556   4.241  20.740  0.00  0.00    +0.000 A 
ATOM     15  C   UNL     1       0.992   2.958  20.469  0.00  0.00    +0.000 A 
ATOM     16  C   UNL     1       0.962   2.683  19.122  0.00  0.00    +0.000 A 
ATOM     17  S   UNL     1       1.607   3.966  18.195  0.00  0.00    +0.000 S 
ENDBRANCH  11  13
ENDBRANCH  10  11
ENDBRANCH   1  10
TORSDOF 5
ENDMDL
