MODEL 1
REMARK VINA RESULT:      -8.2      0.000      0.000
REMARK  Name = 
REMARK  8 active torsions:
REMARK  status: ('A' for Active; 'I' for Inactive)
REMARK    1  A    between atoms: C_1  and  N_2
REMARK    2  A    between atoms: C_4  and  C_5
REMARK    3  A    between atoms: C_8  and  N_9
REMARK    4  A    between atoms: N_9  and  C_10
REMARK    5  A    between atoms: C_10  and  C_11
REMARK    6  A    between atoms: C_11  and  C_12
REMARK    7  A    between atoms: C_12  and  O_13
REMARK    8  A    between atoms: C_14  and  N_15
REMARK                            x       y       z     vdW  Elec       q    Type
REMARK                         _______ _______ _______ _____ _____    ______ ____
ROOT
ATOM      1  C   UNL     1       2.312   7.508  19.155  0.00  0.00    +0.000 A 
ATOM      2  C   UNL     1       2.179   8.249  17.974  0.00  0.00    +0.000 A 
ATOM      3  C   UNL     1       1.426   9.432  17.951  0.00  0.00    +0.000 A 
ATOM      4  C   UNL     1       0.766   9.897  19.095  0.00  0.00    +0.000 A 
ATOM      5  C   UNL     1       0.990   9.176  20.280  0.00  0.00    +0.000 A 
ATOM      6  C   UNL     1       1.764   8.009  20.332  0.00  0.00    +0.000 A 
ENDROOT
BRANCH   1  10
ATOM      7  C   UNL     1       6.341   5.321  17.864  0.00  0.00    +0.000 C 
ATOM      8  N   UNL     1       5.069   5.190  18.548  0.00  0.00    +0.000 N 
ATOM      9  N   UNL     1       4.266   6.294  18.566  0.00  0.00    +0.000 NA
ATOM     10  C   UNL     1       3.090   6.230  19.118  0.00  0.00    +0.000 A 
ATOM     11  C   UNL     1       2.548   4.964  19.684  0.00  0.00    +0.000 A 
ATOM     12  C   UNL     1       1.220   4.791  20.102  0.00  0.00    +0.000 A 
ATOM     13  C   UNL     1       0.806   3.587  20.679  0.00  0.00    +0.000 A 
ATOM     14  C   UNL     1       1.701   2.529  20.804  0.00  0.00    +0.000 A 
ATOM     15  C   UNL     1       3.003   2.669  20.332  0.00  0.00    +0.000 A 
ATOM     16  C   UNL     1       3.419   3.883  19.763  0.00  0.00    +0.000 A 
ATOM     17  C   UNL     1       4.766   3.989  19.176  0.00  0.00    +0.000 A 
ATOM     18  O   UNL     1       5.533   3.029  19.233  0.00  0.00    +0.000 OA
ENDBRANCH   1  10
BRANCH   5  19
ATOM     19  N   UNL     1       0.329   9.575  21.508  0.00  0.00    +0.000 N 
ATOM     20  O   UNL     1       0.699  10.637  22.034  0.00  0.00    +0.000 OA
ATOM     21  O   UNL     1      -0.509   8.790  21.974  0.00  0.00    +0.000 OA
ENDBRANCH   5  19
BRANCH   4  22
ATOM     22  N   UNL     1      -0.036  11.040  19.088  0.00  0.00    +0.000 N 
ATOM     23  H   UNL     1       0.253  11.682  18.345  0.00  0.00    +0.000 HD
BRANCH  22  24
ATOM     24  C   UNL     1      -1.487  10.900  19.169  0.00  0.00    +0.000 C 
BRANCH  24  25
ATOM     25  C   UNL     1      -1.956  10.044  17.992  0.00  0.00    +0.000 C 
BRANCH  25  26
ATOM     26  C   UNL     1      -2.280  10.903  16.782  0.00  0.00    +0.000 C 
BRANCH  26  27
ATOM     27  O   UNL     1      -1.754  12.213  16.952  0.00  0.00    +0.000 OA
ATOM     28  H   UNL     1      -1.145  12.187  17.712  0.00  0.00    +0.000 HD
ENDBRANCH  26  27
ENDBRANCH  25  26
ENDBRANCH  24  25
ENDBRANCH  22  24
ENDBRANCH   4  22
TORSDOF 7
ENDMDL
MODEL 2
REMARK VINA RESULT:      -8.1      1.787      1.894
REMARK  Name = 
REMARK  8 active torsions:
REMARK  status: ('A' for Active; 'I' for Inactive)
REMARK    1  A    between atoms: C_1  and  N_2
REMARK    2  A    between atoms: C_4  and  C_5
REMARK    3  A    between atoms: C_8  and  N_9
REMARK    4  A    between atoms: N_9  and  C_10
REMARK    5  A    between atoms: C_10  and  C_11
REMARK    6  A    between atoms: C_11  and  C_12
REMARK    7  A    between atoms: C_12  and  O_13
REMARK    8  A    between atoms: C_14  and  N_15
REMARK                            x       y       z     vdW  Elec       q    Type
REMARK                         _______ _______ _______ _____ _____    ______ ____
ROOT
ATOM      1  C   UNL     1       2.380   7.830  18.594  0.00  0.00    +0.000 A 
ATOM      2  C   UNL     1       1.849   8.747  17.678  0.00  0.00    +0.000 A 
ATOM      3  C   UNL     1       0.916   9.711  18.086  0.00  0.00    +0.000 A 
ATOM      4  C   UNL     1       0.466   9.773  19.411  0.00  0.00    +0.000 A 
ATOM      5  C   UNL     1       1.081   8.895  20.319  0.00  0.00    +0.000 A 
ATOM      6  C   UNL     1       2.039   7.945  19.938  0.00  0.00    +0.000 A 
ENDROOT
BRANCH   1  10
ATOM      7  C   UNL     1       6.782   6.881  17.045  0.00  0.00    +0.000 C 
ATOM      8  N   UNL     1       5.492   6.328  17.412  0.00  0.00    +0.000 N 
ATOM      9  N   UNL     1       4.534   7.217  17.808  0.00  0.00    +0.000 NA
ATOM     10  C   UNL     1       3.340   6.793  18.101  0.00  0.00    +0.000 A 
ATOM     11  C   UNL     1       2.949   5.364  17.960  0.00  0.00    +0.000 A 
ATOM     12  C   UNL     1       1.632   4.891  18.066  0.00  0.00    +0.000 A 
ATOM     13  C   UNL     1       1.357   3.524  17.981  0.00  0.00    +0.000 A 
ATOM     14  C   UNL     1       2.387   2.618  17.745  0.00  0.00    +0.000 A 
ATOM     15  C   UNL     1       3.688   3.084  17.573  0.00  0.00    +0.000 A 
ATOM     16  C   UNL     1       3.963   4.457  17.671  0.00  0.00    +0.000 A 
ATOM     17  C   UNL     1       5.322   4.950  17.389  0.00  0.00    +0.000 A 
ATOM     18  O   UNL     1       6.217   4.150  17.118  0.00  0.00    +0.000 OA
ENDBRANCH   1  10
BRANCH   5  19
ATOM     19  N   UNL     1       0.661   8.878  21.708  0.00  0.00    +0.000 N 
ATOM     20  O   UNL     1       1.483   9.264  22.555  0.00  0.00    +0.000 OA
ATOM     21  O   UNL     1      -0.463   8.414  21.947  0.00  0.00    +0.000 OA
ENDBRANCH   5  19
BRANCH   4  22
ATOM     22  N   UNL     1      -0.504  10.685  19.833  0.00  0.00    +0.000 N 
ATOM     23  H   UNL     1      -1.193  10.228  20.438  0.00  0.00    +0.000 HD
BRANCH  22  24
ATOM     24  C   UNL     1      -0.089  11.987  20.348  0.00  0.00    +0.000 C 
BRANCH  24  25
ATOM     25  C   UNL     1      -0.945  13.064  19.683  0.00  0.00    +0.000 C 
BRANCH  25  26
ATOM     26  C   UNL     1      -0.503  13.311  18.251  0.00  0.00    +0.000 C 
BRANCH  26  27
ATOM     27  O   UNL     1      -1.273  12.522  17.354  0.00  0.00    +0.000 OA
ATOM     28  H   UNL     1      -0.899  11.622  17.362  0.00  0.00    +0.000 HD
ENDBRANCH  26  27
ENDBRANCH  25  26
ENDBRANCH  24  25
ENDBRANCH  22  24
ENDBRANCH   4  22
TORSDOF 7
ENDMDL
MODEL 3
REMARK VINA RESULT:      -8.1      2.224      2.578
REMARK  Name = 
REMARK  8 active torsions:
REMARK  status: ('A' for Active; 'I' for Inactive)
REMARK    1  A    between atoms: C_1  and  N_2
REMARK    2  A    between atoms: C_4  and  C_5
REMARK    3  A    between atoms: C_8  and  N_9
REMARK    4  A    between atoms: N_9  and  C_10
REMARK    5  A    between atoms: C_10  and  C_11
REMARK    6  A    between atoms: C_11  and  C_12
REMARK    7  A    between atoms: C_12  and  O_13
REMARK    8  A    between atoms: C_14  and  N_15
REMARK                            x       y       z     vdW  Elec       q    Type
REMARK                         _______ _______ _______ _____ _____    ______ ____
ROOT
ATOM      1  C   UNL     1       2.430   7.761  18.566  0.00  0.00    +0.000 A 
ATOM      2  C   UNL     1       1.936   8.723  17.675  0.00  0.00    +0.000 A 
ATOM      3  C   UNL     1       1.030   9.702  18.105  0.00  0.00    +0.000 A 
ATOM      4  C   UNL     1       0.569   9.737  19.427  0.00  0.00    +0.000 A 
ATOM      5  C   UNL     1       1.148   8.813  20.313  0.00  0.00    +0.000 A 
ATOM      6  C   UNL     1       2.079   7.846  19.911  0.00  0.00    +0.000 A 
ENDROOT
BRANCH   1  10
ATOM      7  C   UNL     1       6.766   6.754  16.876  0.00  0.00    +0.000 C 
ATOM      8  N   UNL     1       5.484   6.218  17.291  0.00  0.00    +0.000 N 
ATOM      9  N   UNL     1       4.550   7.120  17.712  0.00  0.00    +0.000 NA
ATOM     10  C   UNL     1       3.362   6.711  18.050  0.00  0.00    +0.000 A 
ATOM     11  C   UNL     1       2.952   5.284  17.933  0.00  0.00    +0.000 A 
ATOM     12  C   UNL     1       1.635   4.826  18.088  0.00  0.00    +0.000 A 
ATOM     13  C   UNL     1       1.343   3.461  18.023  0.00  0.00    +0.000 A 
ATOM     14  C   UNL     1       2.355   2.543  17.759  0.00  0.00    +0.000 A 
ATOM     15  C   UNL     1       3.654   2.994  17.540  0.00  0.00    +0.000 A 
ATOM     16  C   UNL     1       3.946   4.365  17.617  0.00  0.00    +0.000 A 
ATOM     17  C   UNL     1       5.300   4.841  17.285  0.00  0.00    +0.000 A 
ATOM     18  O   UNL     1       6.176   4.030  16.991  0.00  0.00    +0.000 OA
ENDBRANCH   1  10
BRANCH   5  19
ATOM     19  N   UNL     1       0.715   8.765  21.697  0.00  0.00    +0.000 N 
ATOM     20  O   UNL     1      -0.395   8.259  21.928  0.00  0.00    +0.000 OA
ATOM     21  O   UNL     1       1.458   9.296  22.535  0.00  0.00    +0.000 OA
ENDBRANCH   5  19
BRANCH   4  22
ATOM     22  N   UNL     1      -0.376  10.665  19.870  0.00  0.00    +0.000 N 
ATOM     23  H   UNL     1      -0.907  10.293  20.662  0.00  0.00    +0.000 HD
BRANCH  22  24
ATOM     24  C   UNL     1       0.023  12.055  20.072  0.00  0.00    +0.000 C 
BRANCH  24  25
ATOM     25  C   UNL     1      -0.086  12.377  21.562  0.00  0.00    +0.000 C 
BRANCH  25  26
ATOM     26  C   UNL     1      -1.293  11.697  22.184  0.00  0.00    +0.000 C 
BRANCH  26  27
ATOM     27  O   UNL     1      -0.908  10.978  23.349  0.00  0.00    +0.000 OA
ATOM     28  H   UNL     1      -0.193  11.480  23.779  0.00  0.00    +0.000 HD
ENDBRANCH  26  27
ENDBRANCH  25  26
ENDBRANCH  24  25
ENDBRANCH  22  24
ENDBRANCH   4  22
TORSDOF 7
ENDMDL
MODEL 4
REMARK VINA RESULT:      -8.1      1.533      2.976
REMARK  Name = 
REMARK  8 active torsions:
REMARK  status: ('A' for Active; 'I' for Inactive)
REMARK    1  A    between atoms: C_1  and  N_2
REMARK    2  A    between atoms: C_4  and  C_5
REMARK    3  A    between atoms: C_8  and  N_9
REMARK    4  A    between atoms: N_9  and  C_10
REMARK    5  A    between atoms: C_10  and  C_11
REMARK    6  A    between atoms: C_11  and  C_12
REMARK    7  A    between atoms: C_12  and  O_13
REMARK    8  A    between atoms: C_14  and  N_15
REMARK                            x       y       z     vdW  Elec       q    Type
REMARK                         _______ _______ _______ _____ _____    ______ ____
ROOT
ATOM      1  C   UNL     1       2.167   7.298  18.864  0.00  0.00    +0.000 A 
ATOM      2  C   UNL     1       2.089   8.215  17.808  0.00  0.00    +0.000 A 
ATOM      3  C   UNL     1       1.550   9.494  18.006  0.00  0.00    +0.000 A 
ATOM      4  C   UNL     1       1.050   9.887  19.254  0.00  0.00    +0.000 A 
ATOM      5  C   UNL     1       1.221   8.976  20.309  0.00  0.00    +0.000 A 
ATOM      6  C   UNL     1       1.787   7.704  20.139  0.00  0.00    +0.000 A 
ENDROOT
BRANCH   1  10
ATOM      7  C   UNL     1       2.035   2.661  19.939  0.00  0.00    +0.000 C 
ATOM      8  N   UNL     1       2.599   3.677  19.072  0.00  0.00    +0.000 N 
ATOM      9  N   UNL     1       2.205   4.965  19.300  0.00  0.00    +0.000 NA
ATOM     10  C   UNL     1       2.712   5.931  18.592  0.00  0.00    +0.000 A 
ATOM     11  C   UNL     1       3.769   5.695  17.569  0.00  0.00    +0.000 A 
ATOM     12  C   UNL     1       4.489   6.714  16.928  0.00  0.00    +0.000 A 
ATOM     13  C   UNL     1       5.423   6.410  15.935  0.00  0.00    +0.000 A 
ATOM     14  C   UNL     1       5.680   5.083  15.602  0.00  0.00    +0.000 A 
ATOM     15  C   UNL     1       5.018   4.062  16.279  0.00  0.00    +0.000 A 
ATOM     16  C   UNL     1       4.072   4.371  17.268  0.00  0.00    +0.000 A 
ATOM     17  C   UNL     1       3.451   3.287  18.048  0.00  0.00    +0.000 A 
ATOM     18  O   UNL     1       3.730   2.116  17.792  0.00  0.00    +0.000 OA
ENDBRANCH   1  10
BRANCH   5  19
ATOM     19  N   UNL     1       0.715   9.293  21.631  0.00  0.00    +0.000 N 
ATOM     20  O   UNL     1      -0.322   8.715  21.997  0.00  0.00    +0.000 OA
ATOM     21  O   UNL     1       1.320  10.168  22.267  0.00  0.00    +0.000 OA
ENDBRANCH   5  19
BRANCH   4  22
ATOM     22  N   UNL     1       0.456  11.133  19.468  0.00  0.00    +0.000 N 
ATOM     23  H   UNL     1       0.819  11.826  18.807  0.00  0.00    +0.000 HD
BRANCH  22  24
ATOM     24  C   UNL     1      -0.993  11.220  19.625  0.00  0.00    +0.000 C 
BRANCH  24  25
ATOM     25  C   UNL     1      -1.650  10.468  18.469  0.00  0.00    +0.000 C 
BRANCH  25  26
ATOM     26  C   UNL     1      -2.093  11.422  17.373  0.00  0.00    +0.000 C 
BRANCH  26  27
ATOM     27  O   UNL     1      -1.285  12.591  17.382  0.00  0.00    +0.000 OA
ATOM     28  H   UNL     1      -1.702  13.230  17.987  0.00  0.00    +0.000 HD
ENDBRANCH  26  27
ENDBRANCH  25  26
ENDBRANCH  24  25
ENDBRANCH  22  24
ENDBRANCH   4  22
TORSDOF 7
ENDMDL
MODEL 5
REMARK VINA RESULT:      -8.0      2.038      3.410
REMARK  Name = 
REMARK  8 active torsions:
REMARK  status: ('A' for Active; 'I' for Inactive)
REMARK    1  A    between atoms: C_1  and  N_2
REMARK    2  A    between atoms: C_4  and  C_5
REMARK    3  A    between atoms: C_8  and  N_9
REMARK    4  A    between atoms: N_9  and  C_10
REMARK    5  A    between atoms: C_10  and  C_11
REMARK    6  A    between atoms: C_11  and  C_12
REMARK    7  A    between atoms: C_12  and  O_13
REMARK    8  A    between atoms: C_14  and  N_15
REMARK                            x       y       z     vdW  Elec       q    Type
REMARK                         _______ _______ _______ _____ _____    ______ ____
ROOT
ATOM      1  C   UNL     1       2.140   7.218  19.031  0.00  0.00    +0.000 A 
ATOM      2  C   UNL     1       2.040   8.186  18.024  0.00  0.00    +0.000 A 
ATOM      3  C   UNL     1       1.520   9.458  18.301  0.00  0.00    +0.000 A 
ATOM      4  C   UNL     1       1.061   9.794  19.580  0.00  0.00    +0.000 A 
ATOM      5  C   UNL     1       1.254   8.831  20.584  0.00  0.00    +0.000 A 
ATOM      6  C   UNL     1       1.802   7.564  20.336  0.00  0.00    +0.000 A 
ENDROOT
BRANCH   1  10
ATOM      7  C   UNL     1       1.941   2.528  19.832  0.00  0.00    +0.000 C 
ATOM      8  N   UNL     1       2.517   3.585  19.024  0.00  0.00    +0.000 N 
ATOM      9  N   UNL     1       2.144   4.863  19.329  0.00  0.00    +0.000 NA
ATOM     10  C   UNL     1       2.663   5.861  18.676  0.00  0.00    +0.000 A 
ATOM     11  C   UNL     1       3.712   5.670  17.637  0.00  0.00    +0.000 A 
ATOM     12  C   UNL     1       4.445   6.714  17.053  0.00  0.00    +0.000 A 
ATOM     13  C   UNL     1       5.370   6.455  16.039  0.00  0.00    +0.000 A 
ATOM     14  C   UNL     1       5.606   5.147  15.628  0.00  0.00    +0.000 A 
ATOM     15  C   UNL     1       4.931   4.098  16.246  0.00  0.00    +0.000 A 
ATOM     16  C   UNL     1       3.994   4.362  17.257  0.00  0.00    +0.000 A 
ATOM     17  C   UNL     1       3.359   3.243  17.974  0.00  0.00    +0.000 A 
ATOM     18  O   UNL     1       3.619   2.085  17.649  0.00  0.00    +0.000 OA
ENDBRANCH   1  10
BRANCH   5  19
ATOM     19  N   UNL     1       0.790   9.087  21.935  0.00  0.00    +0.000 N 
ATOM     20  O   UNL     1       1.624   9.513  22.751  0.00  0.00    +0.000 OA
ATOM     21  O   UNL     1      -0.388   8.796  22.187  0.00  0.00    +0.000 OA
ENDBRANCH   5  19
BRANCH   4  22
ATOM     22  N   UNL     1       0.487  11.034  19.872  0.00  0.00    +0.000 N 
ATOM     23  H   UNL     1       1.078  11.797  19.532  0.00  0.00    +0.000 HD
BRANCH  22  24
ATOM     24  C   UNL     1      -0.928  11.255  19.585  0.00  0.00    +0.000 C 
BRANCH  24  25
ATOM     25  C   UNL     1      -1.558  11.967  20.782  0.00  0.00    +0.000 C 
BRANCH  25  26
ATOM     26  C   UNL     1      -0.494  12.523  21.713  0.00  0.00    +0.000 C 
BRANCH  26  27
ATOM     27  O   UNL     1      -0.434  11.756  22.908  0.00  0.00    +0.000 OA
ATOM     28  H   UNL     1      -1.079  11.031  22.822  0.00  0.00    +0.000 HD
ENDBRANCH  26  27
ENDBRANCH  25  26
ENDBRANCH  24  25
ENDBRANCH  22  24
ENDBRANCH   4  22
TORSDOF 7
ENDMDL
MODEL 6
REMARK VINA RESULT:      -8.0      1.572      1.738
REMARK  Name = 
REMARK  8 active torsions:
REMARK  status: ('A' for Active; 'I' for Inactive)
REMARK    1  A    between atoms: C_1  and  N_2
REMARK    2  A    between atoms: C_4  and  C_5
REMARK    3  A    between atoms: C_8  and  N_9
REMARK    4  A    between atoms: N_9  and  C_10
REMARK    5  A    between atoms: C_10  and  C_11
REMARK    6  A    between atoms: C_11  and  C_12
REMARK    7  A    between atoms: C_12  and  O_13
REMARK    8  A    between atoms: C_14  and  N_15
REMARK                            x       y       z     vdW  Elec       q    Type
REMARK                         _______ _______ _______ _____ _____    ______ ____
ROOT
ATOM      1  C   UNL     1       2.395   7.773  18.575  0.00  0.00    +0.000 A 
ATOM      2  C   UNL     1       1.935   8.744  17.676  0.00  0.00    +0.000 A 
ATOM      3  C   UNL     1       1.006   9.712  18.080  0.00  0.00    +0.000 A 
ATOM      4  C   UNL     1       0.488   9.727  19.381  0.00  0.00    +0.000 A 
ATOM      5  C   UNL     1       1.033   8.793  20.279  0.00  0.00    +0.000 A 
ATOM      6  C   UNL     1       1.986   7.837  19.904  0.00  0.00    +0.000 A 
ENDROOT
BRANCH   1  10
ATOM      7  C   UNL     1       6.792   6.818  17.018  0.00  0.00    +0.000 C 
ATOM      8  N   UNL     1       5.504   6.266  17.392  0.00  0.00    +0.000 N 
ATOM      9  N   UNL     1       4.547   7.157  17.786  0.00  0.00    +0.000 NA
ATOM     10  C   UNL     1       3.354   6.734  18.085  0.00  0.00    +0.000 A 
ATOM     11  C   UNL     1       2.963   5.303  17.952  0.00  0.00    +0.000 A 
ATOM     12  C   UNL     1       1.647   4.831  18.064  0.00  0.00    +0.000 A 
ATOM     13  C   UNL     1       1.373   3.463  17.987  0.00  0.00    +0.000 A 
ATOM     14  C   UNL     1       2.402   2.556  17.752  0.00  0.00    +0.000 A 
ATOM     15  C   UNL     1       3.703   3.022  17.575  0.00  0.00    +0.000 A 
ATOM     16  C   UNL     1       3.977   4.396  17.664  0.00  0.00    +0.000 A 
ATOM     17  C   UNL     1       5.335   4.888  17.376  0.00  0.00    +0.000 A 
ATOM     18  O   UNL     1       6.229   4.087  17.107  0.00  0.00    +0.000 OA
ENDBRANCH   1  10
BRANCH   5  19
ATOM     19  N   UNL     1       0.541   8.725  21.642  0.00  0.00    +0.000 N 
ATOM     20  O   UNL     1      -0.517   8.103  21.833  0.00  0.00    +0.000 OA
ATOM     21  O   UNL     1       1.180   9.350  22.500  0.00  0.00    +0.000 OA
ENDBRANCH   5  19
BRANCH   4  22
ATOM     22  N   UNL     1      -0.480  10.644  19.796  0.00  0.00    +0.000 N 
ATOM     23  H   UNL     1      -0.253  11.018  20.722  0.00  0.00    +0.000 HD
BRANCH  22  24
ATOM     24  C   UNL     1      -0.928  11.682  18.871  0.00  0.00    +0.000 C 
BRANCH  24  25
ATOM     25  C   UNL     1      -2.456  11.687  18.855  0.00  0.00    +0.000 C 
BRANCH  25  26
ATOM     26  C   UNL     1      -2.992  11.426  17.458  0.00  0.00    +0.000 C 
BRANCH  26  27
ATOM     27  O   UNL     1      -2.007  11.747  16.484  0.00  0.00    +0.000 OA
ATOM     28  H   UNL     1      -2.435  11.706  15.611  0.00  0.00    +0.000 HD
ENDBRANCH  26  27
ENDBRANCH  25  26
ENDBRANCH  24  25
ENDBRANCH  22  24
ENDBRANCH   4  22
TORSDOF 7
ENDMDL
MODEL 7
REMARK VINA RESULT:      -8.0      1.842      3.221
REMARK  Name = 
REMARK  8 active torsions:
REMARK  status: ('A' for Active; 'I' for Inactive)
REMARK    1  A    between atoms: C_1  and  N_2
REMARK    2  A    between atoms: C_4  and  C_5
REMARK    3  A    between atoms: C_8  and  N_9
REMARK    4  A    between atoms: N_9  and  C_10
REMARK    5  A    between atoms: C_10  and  C_11
REMARK    6  A    between atoms: C_11  and  C_12
REMARK    7  A    between atoms: C_12  and  O_13
REMARK    8  A    between atoms: C_14  and  N_15
REMARK                            x       y       z     vdW  Elec       q    Type
REMARK                         _______ _______ _______ _____ _____    ______ ____
ROOT
ATOM      1  C   UNL     1       2.165   7.244  18.883  0.00  0.00    +0.000 A 
ATOM      2  C   UNL     1       2.079   8.163  17.828  0.00  0.00    +0.000 A 
ATOM      3  C   UNL     1       1.567   9.450  18.039  0.00  0.00    +0.000 A 
ATOM      4  C   UNL     1       1.102   9.852  19.297  0.00  0.00    +0.000 A 
ATOM      5  C   UNL     1       1.281   8.938  20.349  0.00  0.00    +0.000 A 
ATOM      6  C   UNL     1       1.820   7.657  20.167  0.00  0.00    +0.000 A 
ENDROOT
BRANCH   1  10
ATOM      7  C   UNL     1       1.903   2.598  19.891  0.00  0.00    +0.000 C 
ATOM      8  N   UNL     1       2.504   3.611  19.046  0.00  0.00    +0.000 N 
ATOM      9  N   UNL     1       2.139   4.905  19.287  0.00  0.00    +0.000 NA
ATOM     10  C   UNL     1       2.679   5.868  18.599  0.00  0.00    +0.000 A 
ATOM     11  C   UNL     1       3.744   5.620  17.588  0.00  0.00    +0.000 A 
ATOM     12  C   UNL     1       4.498   6.630  16.972  0.00  0.00    +0.000 A 
ATOM     13  C   UNL     1       5.438   6.316  15.987  0.00  0.00    +0.000 A 
ATOM     14  C   UNL     1       5.668   4.988  15.639  0.00  0.00    +0.000 A 
ATOM     15  C   UNL     1       4.971   3.975  16.292  0.00  0.00    +0.000 A 
ATOM     16  C   UNL     1       4.019   4.294  17.273  0.00  0.00    +0.000 A 
ATOM     17  C   UNL     1       3.361   3.214  18.028  0.00  0.00    +0.000 A 
ATOM     18  O   UNL     1       3.614   2.041  17.760  0.00  0.00    +0.000 OA
ENDBRANCH   1  10
BRANCH   5  19
ATOM     19  N   UNL     1       0.810   9.264  21.682  0.00  0.00    +0.000 N 
ATOM     20  O   UNL     1      -0.419   9.317  21.853  0.00  0.00    +0.000 OA
ATOM     21  O   UNL     1       1.673   9.531  22.531  0.00  0.00    +0.000 OA
ENDBRANCH   5  19
BRANCH   4  22
ATOM     22  N   UNL     1       0.535  11.109  19.524  0.00  0.00    +0.000 N 
ATOM     23  H   UNL     1      -0.156  11.065  20.279  0.00  0.00    +0.000 HD
BRANCH  22  24
ATOM     24  C   UNL     1       1.401  12.279  19.630  0.00  0.00    +0.000 C 
BRANCH  24  25
ATOM     25  C   UNL     1       0.828  13.386  18.746  0.00  0.00    +0.000 C 
BRANCH  25  26
ATOM     26  C   UNL     1      -0.684  13.285  18.649  0.00  0.00    +0.000 C 
BRANCH  26  27
ATOM     27  O   UNL     1      -1.062  12.727  17.398  0.00  0.00    +0.000 OA
ATOM     28  H   UNL     1      -1.902  13.143  17.134  0.00  0.00    +0.000 HD
ENDBRANCH  26  27
ENDBRANCH  25  26
ENDBRANCH  24  25
ENDBRANCH  22  24
ENDBRANCH   4  22
TORSDOF 7
ENDMDL
MODEL 8
REMARK VINA RESULT:      -7.8      1.588      1.815
REMARK  Name = 
REMARK  8 active torsions:
REMARK  status: ('A' for Active; 'I' for Inactive)
REMARK    1  A    between atoms: C_1  and  N_2
REMARK    2  A    between atoms: C_4  and  C_5
REMARK    3  A    between atoms: C_8  and  N_9
REMARK    4  A    between atoms: N_9  and  C_10
REMARK    5  A    between atoms: C_10  and  C_11
REMARK    6  A    between atoms: C_11  and  C_12
REMARK    7  A    between atoms: C_12  and  O_13
REMARK    8  A    between atoms: C_14  and  N_15
REMARK                            x       y       z     vdW  Elec       q    Type
REMARK                         _______ _______ _______ _____ _____    ______ ____
ROOT
ATOM      1  C   UNL     1       2.224   7.573  18.694  0.00  0.00    +0.000 A 
ATOM      2  C   UNL     1       1.989   8.621  17.795  0.00  0.00    +0.000 A 
ATOM      3  C   UNL     1       1.347   9.795  18.214  0.00  0.00    +0.000 A 
ATOM      4  C   UNL     1       0.899   9.949  19.532  0.00  0.00    +0.000 A 
ATOM      5  C   UNL     1       1.226   8.916  20.426  0.00  0.00    +0.000 A 
ATOM      6  C   UNL     1       1.895   7.748  20.035  0.00  0.00    +0.000 A 
ENDROOT
BRANCH   1  10
ATOM      7  C   UNL     1       5.534   5.662  15.853  0.00  0.00    +0.000 C 
ATOM      8  N   UNL     1       4.521   5.406  16.859  0.00  0.00    +0.000 N 
ATOM      9  N   UNL     1       3.831   6.489  17.324  0.00  0.00    +0.000 NA
ATOM     10  C   UNL     1       2.874   6.323  18.189  0.00  0.00    +0.000 A 
ATOM     11  C   UNL     1       2.450   4.974  18.654  0.00  0.00    +0.000 A 
ATOM     12  C   UNL     1       1.302   4.728  19.421  0.00  0.00    +0.000 A 
ATOM     13  C   UNL     1       1.007   3.437  19.869  0.00  0.00    +0.000 A 
ATOM     14  C   UNL     1       1.830   2.372  19.518  0.00  0.00    +0.000 A 
ATOM     15  C   UNL     1       2.936   2.596  18.702  0.00  0.00    +0.000 A 
ATOM     16  C   UNL     1       3.236   3.895  18.264  0.00  0.00    +0.000 A 
ATOM     17  C   UNL     1       4.348   4.107  17.321  0.00  0.00    +0.000 A 
ATOM     18  O   UNL     1       5.035   3.152  16.964  0.00  0.00    +0.000 OA
ENDBRANCH   1  10
BRANCH   5  19
ATOM     19  N   UNL     1       0.784   8.983  21.806  0.00  0.00    +0.000 N 
ATOM     20  O   UNL     1      -0.384   8.638  22.046  0.00  0.00    +0.000 OA
ATOM     21  O   UNL     1       1.587   9.445  22.630  0.00  0.00    +0.000 OA
ENDBRANCH   5  19
BRANCH   4  22
ATOM     22  N   UNL     1       0.208  11.083  19.964  0.00  0.00    +0.000 N 
ATOM     23  H   UNL     1      -0.471  10.840  20.692  0.00  0.00    +0.000 HD
BRANCH  22  24
ATOM     24  C   UNL     1       0.950  12.300  20.281  0.00  0.00    +0.000 C 
BRANCH  24  25
ATOM     25  C   UNL     1       0.898  13.227  19.067  0.00  0.00    +0.000 C 
BRANCH  25  26
ATOM     26  C   UNL     1      -0.535  13.584  18.710  0.00  0.00    +0.000 C 
BRANCH  26  27
ATOM     27  O   UNL     1      -0.955  12.853  17.566  0.00  0.00    +0.000 OA
ATOM     28  H   UNL     1      -0.458  12.015  17.556  0.00  0.00    +0.000 HD
ENDBRANCH  26  27
ENDBRANCH  25  26
ENDBRANCH  24  25
ENDBRANCH  22  24
ENDBRANCH   4  22
TORSDOF 7
ENDMDL
MODEL 9
REMARK VINA RESULT:      -7.8      1.184      1.348
REMARK  Name = 
REMARK  8 active torsions:
REMARK  status: ('A' for Active; 'I' for Inactive)
REMARK    1  A    between atoms: C_1  and  N_2
REMARK    2  A    between atoms: C_4  and  C_5
REMARK    3  A    between atoms: C_8  and  N_9
REMARK    4  A    between atoms: N_9  and  C_10
REMARK    5  A    between atoms: C_10  and  C_11
REMARK    6  A    between atoms: C_11  and  C_12
REMARK    7  A    between atoms: C_12  and  O_13
REMARK    8  A    between atoms: C_14  and  N_15
REMARK                            x       y       z     vdW  Elec       q    Type
REMARK                         _______ _______ _______ _____ _____    ______ ____
ROOT
ATOM      1  C   UNL     1       2.214   7.598  18.765  0.00  0.00    +0.000 A 
ATOM      2  C   UNL     1       2.020   8.665  17.878  0.00  0.00    +0.000 A 
ATOM      3  C   UNL     1       1.394   9.845  18.302  0.00  0.00    +0.000 A 
ATOM      4  C   UNL     1       0.921   9.988  19.612  0.00  0.00    +0.000 A 
ATOM      5  C   UNL     1       1.207   8.935  20.496  0.00  0.00    +0.000 A 
ATOM      6  C   UNL     1       1.860   7.759  20.101  0.00  0.00    +0.000 A 
ENDROOT
BRANCH   1  10
ATOM      7  C   UNL     1       5.423   5.654  15.832  0.00  0.00    +0.000 C 
ATOM      8  N   UNL     1       4.448   5.410  16.878  0.00  0.00    +0.000 N 
ATOM      9  N   UNL     1       3.772   6.498  17.352  0.00  0.00    +0.000 NA
ATOM     10  C   UNL     1       2.848   6.343  18.254  0.00  0.00    +0.000 A 
ATOM     11  C   UNL     1       2.445   4.999  18.753  0.00  0.00    +0.000 A 
ATOM     12  C   UNL     1       1.326   4.761  19.565  0.00  0.00    +0.000 A 
ATOM     13  C   UNL     1       1.052   3.477  20.041  0.00  0.00    +0.000 A 
ATOM     14  C   UNL     1       1.865   2.408  19.676  0.00  0.00    +0.000 A 
ATOM     15  C   UNL     1       2.940   2.623  18.817  0.00  0.00    +0.000 A 
ATOM     16  C   UNL     1       3.220   3.916  18.349  0.00  0.00    +0.000 A 
ATOM     17  C   UNL     1       4.295   4.118  17.363  0.00  0.00    +0.000 A 
ATOM     18  O   UNL     1       4.972   3.159  16.995  0.00  0.00    +0.000 OA
ENDBRANCH   1  10
BRANCH   5  19
ATOM     19  N   UNL     1       0.736   8.990  21.868  0.00  0.00    +0.000 N 
ATOM     20  O   UNL     1      -0.429   8.622  22.084  0.00  0.00    +0.000 OA
ATOM     21  O   UNL     1       1.514   9.466  22.708  0.00  0.00    +0.000 OA
ENDBRANCH   5  19
BRANCH   4  22
ATOM     22  N   UNL     1       0.244  11.130  20.047  0.00  0.00    +0.000 N 
ATOM     23  H   UNL     1       0.741  11.978  19.762  0.00  0.00    +0.000 HD
BRANCH  22  24
ATOM     24  C   UNL     1      -1.198  11.233  19.837  0.00  0.00    +0.000 C 
BRANCH  24  25
ATOM     25  C   UNL     1      -1.443  12.030  18.556  0.00  0.00    +0.000 C 
BRANCH  25  26
ATOM     26  C   UNL     1      -2.341  11.266  17.598  0.00  0.00    +0.000 C 
BRANCH  26  27
ATOM     27  O   UNL     1      -2.140  11.720  16.266  0.00  0.00    +0.000 OA
ATOM     28  H   UNL     1      -3.017  11.893  15.881  0.00  0.00    +0.000 HD
ENDBRANCH  26  27
ENDBRANCH  25  26
ENDBRANCH  24  25
ENDBRANCH  22  24
ENDBRANCH   4  22
TORSDOF 7
ENDMDL
