MODEL 1
REMARK VINA RESULT:      -8.2      0.000      0.000
REMARK  Name = 
REMARK  7 active torsions:
REMARK  status: ('A' for Active; 'I' for Inactive)
REMARK    1  A    between atoms: C_1  and  C_2
REMARK    2  A    between atoms: C_4  and  S_5
REMARK    3  A    between atoms: S_5  and  N_8
REMARK    4  A    between atoms: C_9  and  C_10
REMARK    5  A    between atoms: C_10  and  O_11
REMARK    6  A    between atoms: C_14  and  C_15
REMARK    7  A    between atoms: C_23  and  C_24
REMARK                            x       y       z     vdW  Elec       q    Type
REMARK                         _______ _______ _______ _____ _____    ______ ____
ROOT
ATOM      1  N   UNL     1       2.715   4.609  18.321  0.00  0.00    +0.000 NA
ATOM      2  C   UNL     1       1.887   3.479  17.772  0.00  0.00    +0.000 C 
ATOM      3  C   UNL     1       2.940   2.532  17.220  0.00  0.00    +0.000 C 
ATOM      4  C   UNL     1       3.987   3.450  16.621  0.00  0.00    +0.000 C 
ATOM      5  C   UNL     1       3.853   4.813  17.353  0.00  0.00    +0.000 C 
ENDROOT
BRANCH   5   6
ATOM      6  C   UNL     1       5.162   5.518  17.709  0.00  0.00    +0.000 A 
ATOM      7  C   UNL     1       6.211   4.903  18.426  0.00  0.00    +0.000 A 
ATOM      8  C   UNL     1       7.415   5.566  18.690  0.00  0.00    +0.000 A 
ATOM      9  C   UNL     1       7.598   6.862  18.241  0.00  0.00    +0.000 A 
ATOM     10  F   UNL     1       8.744   7.501  18.508  0.00  0.00    +0.000 F 
ATOM     11  C   UNL     1       6.610   7.492  17.502  0.00  0.00    +0.000 A 
ATOM     12  C   UNL     1       5.420   6.810  17.211  0.00  0.00    +0.000 A 
ENDBRANCH   5   6
BRANCH   1  13
ATOM     13  S   UNL     1       2.657   5.038  19.946  0.00  0.00    +0.000 S 
ATOM     14  O   UNL     1       4.026   5.093  20.422  0.00  0.00    +0.000 OA
ATOM     15  O   UNL     1       1.702   4.239  20.676  0.00  0.00    +0.000 OA
BRANCH  13  19
ATOM     16  C   UNL     1      -0.022   8.962  22.199  0.00  0.00    +0.000 C 
ATOM     17  C   UNL     1       0.799   8.467  21.048  0.00  0.00    +0.000 A 
ATOM     18  C   UNL     1       1.342   7.179  21.060  0.00  0.00    +0.000 A 
ATOM     19  C   UNL     1       2.043   6.703  19.953  0.00  0.00    +0.000 A 
ATOM     20  C   UNL     1       2.279   7.532  18.852  0.00  0.00    +0.000 A 
ATOM     21  C   UNL     1       1.774   8.835  18.840  0.00  0.00    +0.000 A 
ATOM     22  C   UNL     1       2.015   9.740  17.671  0.00  0.00    +0.000 C 
ATOM     23  C   UNL     1       1.040   9.287  19.942  0.00  0.00    +0.000 A 
ATOM     24  F   UNL     1       0.558  10.538  19.941  0.00  0.00    +0.000 F 
ENDBRANCH  13  19
ENDBRANCH   1  13
BRANCH   2  25
ATOM     25  C   UNL     1       0.903   2.733  18.678  0.00  0.00    +0.000 C 
BRANCH  25  26
ATOM     26  O   UNL     1       1.509   1.530  19.163  0.00  0.00    +0.000 OA
ATOM     27  H   UNL     1       2.307   1.372  18.630  0.00  0.00    +0.000 HD
ENDBRANCH  25  26
ENDBRANCH   2  25
TORSDOF 5
ENDMDL
MODEL 2
REMARK VINA RESULT:      -8.2      0.053      1.690
REMARK  Name = 
REMARK  7 active torsions:
REMARK  status: ('A' for Active; 'I' for Inactive)
REMARK    1  A    between atoms: C_1  and  C_2
REMARK    2  A    between atoms: C_4  and  S_5
REMARK    3  A    between atoms: S_5  and  N_8
REMARK    4  A    between atoms: C_9  and  C_10
REMARK    5  A    between atoms: C_10  and  O_11
REMARK    6  A    between atoms: C_14  and  C_15
REMARK    7  A    between atoms: C_23  and  C_24
REMARK                            x       y       z     vdW  Elec       q    Type
REMARK                         _______ _______ _______ _____ _____    ______ ____
ROOT
ATOM      1  N   UNL     1       2.749   4.642  18.300  0.00  0.00    +0.000 NA
ATOM      2  C   UNL     1       1.925   3.511  17.747  0.00  0.00    +0.000 C 
ATOM      3  C   UNL     1       2.981   2.563  17.204  0.00  0.00    +0.000 C 
ATOM      4  C   UNL     1       4.032   3.480  16.611  0.00  0.00    +0.000 C 
ATOM      5  C   UNL     1       3.894   4.844  17.340  0.00  0.00    +0.000 C 
ENDROOT
BRANCH   5   6
ATOM      6  C   UNL     1       5.200   5.549  17.704  0.00  0.00    +0.000 A 
ATOM      7  C   UNL     1       6.251   4.930  18.415  0.00  0.00    +0.000 A 
ATOM      8  C   UNL     1       7.453   5.594  18.686  0.00  0.00    +0.000 A 
ATOM      9  C   UNL     1       7.632   6.895  18.251  0.00  0.00    +0.000 A 
ATOM     10  F   UNL     1       8.777   7.535  18.526  0.00  0.00    +0.000 F 
ATOM     11  C   UNL     1       6.643   7.530  17.518  0.00  0.00    +0.000 A 
ATOM     12  C   UNL     1       5.455   6.847  17.220  0.00  0.00    +0.000 A 
ENDBRANCH   5   6
BRANCH   1  13
ATOM     13  S   UNL     1       2.680   5.073  19.925  0.00  0.00    +0.000 S 
ATOM     14  O   UNL     1       4.047   5.159  20.401  0.00  0.00    +0.000 OA
ATOM     15  O   UNL     1       1.742   4.254  20.655  0.00  0.00    +0.000 OA
BRANCH  13  19
ATOM     16  C   UNL     1       2.038   9.787  17.684  0.00  0.00    +0.000 C 
ATOM     17  C   UNL     1       1.769   8.870  18.838  0.00  0.00    +0.000 A 
ATOM     18  C   UNL     1       2.221   7.547  18.819  0.00  0.00    +0.000 A 
ATOM     19  C   UNL     1       2.029   6.724  19.927  0.00  0.00    +0.000 A 
ATOM     20  C   UNL     1       1.315   7.184  21.038  0.00  0.00    +0.000 A 
ATOM     21  C   UNL     1       0.824   8.493  21.058  0.00  0.00    +0.000 A 
ATOM     22  C   UNL     1       0.056   9.006  22.236  0.00  0.00    +0.000 C 
ATOM     23  C   UNL     1       1.057   9.319  19.953  0.00  0.00    +0.000 A 
ATOM     24  F   UNL     1       0.584  10.574  19.962  0.00  0.00    +0.000 F 
ENDBRANCH  13  19
ENDBRANCH   1  13
BRANCH   2  25
ATOM     25  C   UNL     1       0.935   2.766  18.647  0.00  0.00    +0.000 C 
BRANCH  25  26
ATOM     26  O   UNL     1       1.541   1.571  19.149  0.00  0.00    +0.000 OA
ATOM     27  H   UNL     1       1.258   1.470  20.075  0.00  0.00    +0.000 HD
ENDBRANCH  25  26
ENDBRANCH   2  25
TORSDOF 5
ENDMDL
MODEL 3
REMARK VINA RESULT:      -8.0      0.937      2.162
REMARK  Name = 
REMARK  7 active torsions:
REMARK  status: ('A' for Active; 'I' for Inactive)
REMARK    1  A    between atoms: C_1  and  C_2
REMARK    2  A    between atoms: C_4  and  S_5
REMARK    3  A    between atoms: S_5  and  N_8
REMARK    4  A    between atoms: C_9  and  C_10
REMARK    5  A    between atoms: C_10  and  O_11
REMARK    6  A    between atoms: C_14  and  C_15
REMARK    7  A    between atoms: C_23  and  C_24
REMARK                            x       y       z     vdW  Elec       q    Type
REMARK                         _______ _______ _______ _____ _____    ______ ____
ROOT
ATOM      1  N   UNL     1       2.269   4.576  18.754  0.00  0.00    +0.000 NA
ATOM      2  C   UNL     1       1.319   3.410  18.743  0.00  0.00    +0.000 C 
ATOM      3  C   UNL     1       2.148   2.311  18.098  0.00  0.00    +0.000 C 
ATOM      4  C   UNL     1       2.939   3.026  17.022  0.00  0.00    +0.000 C 
ATOM      5  C   UNL     1       3.035   4.515  17.456  0.00  0.00    +0.000 C 
ENDROOT
BRANCH   5   6
ATOM      6  C   UNL     1       4.382   5.199  17.226  0.00  0.00    +0.000 A 
ATOM      7  C   UNL     1       4.527   6.587  17.009  0.00  0.00    +0.000 A 
ATOM      8  C   UNL     1       5.783   7.184  16.852  0.00  0.00    +0.000 A 
ATOM      9  C   UNL     1       6.926   6.404  16.907  0.00  0.00    +0.000 A 
ATOM     10  F   UNL     1       8.126   6.974  16.739  0.00  0.00    +0.000 F 
ATOM     11  C   UNL     1       6.833   5.044  17.153  0.00  0.00    +0.000 A 
ATOM     12  C   UNL     1       5.574   4.458  17.345  0.00  0.00    +0.000 A 
ENDBRANCH   5   6
BRANCH   1  13
ATOM     13  S   UNL     1       2.730   5.326  20.187  0.00  0.00    +0.000 S 
ATOM     14  O   UNL     1       4.164   5.534  20.116  0.00  0.00    +0.000 OA
ATOM     15  O   UNL     1       2.185   4.653  21.341  0.00  0.00    +0.000 OA
BRANCH  13  19
ATOM     16  C   UNL     1       1.906   9.952  17.827  0.00  0.00    +0.000 C 
ATOM     17  C   UNL     1       1.634   9.037  18.981  0.00  0.00    +0.000 A 
ATOM     18  C   UNL     1       2.173   7.747  19.012  0.00  0.00    +0.000 A 
ATOM     19  C   UNL     1       1.973   6.930  20.123  0.00  0.00    +0.000 A 
ATOM     20  C   UNL     1       1.169   7.358  21.184  0.00  0.00    +0.000 A 
ATOM     21  C   UNL     1       0.593   8.631  21.153  0.00  0.00    +0.000 A 
ATOM     22  C   UNL     1      -0.271   9.110  22.278  0.00  0.00    +0.000 C 
ATOM     23  C   UNL     1       0.833   9.454  20.047  0.00  0.00    +0.000 A 
ATOM     24  F   UNL     1       0.279  10.675  20.007  0.00  0.00    +0.000 F 
ENDBRANCH  13  19
ENDBRANCH   1  13
BRANCH   2  25
ATOM     25  C   UNL     1       0.684   2.919  20.047  0.00  0.00    +0.000 C 
BRANCH  25  26
ATOM     26  O   UNL     1       1.598   2.061  20.738  0.00  0.00    +0.000 OA
ATOM     27  H   UNL     1       2.495   2.292  20.438  0.00  0.00    +0.000 HD
ENDBRANCH  25  26
ENDBRANCH   2  25
TORSDOF 5
ENDMDL
MODEL 4
REMARK VINA RESULT:      -8.0      0.921      1.337
REMARK  Name = 
REMARK  7 active torsions:
REMARK  status: ('A' for Active; 'I' for Inactive)
REMARK    1  A    between atoms: C_1  and  C_2
REMARK    2  A    between atoms: C_4  and  S_5
REMARK    3  A    between atoms: S_5  and  N_8
REMARK    4  A    between atoms: C_9  and  C_10
REMARK    5  A    between atoms: C_10  and  O_11
REMARK    6  A    between atoms: C_14  and  C_15
REMARK    7  A    between atoms: C_23  and  C_24
REMARK                            x       y       z     vdW  Elec       q    Type
REMARK                         _______ _______ _______ _____ _____    ______ ____
ROOT
ATOM      1  N   UNL     1       2.254   4.591  18.755  0.00  0.00    +0.000 NA
ATOM      2  C   UNL     1       1.298   3.430  18.725  0.00  0.00    +0.000 C 
ATOM      3  C   UNL     1       2.124   2.335  18.069  0.00  0.00    +0.000 C 
ATOM      4  C   UNL     1       2.923   3.061  17.006  0.00  0.00    +0.000 C 
ATOM      5  C   UNL     1       3.025   4.543  17.460  0.00  0.00    +0.000 C 
ENDROOT
BRANCH   5   6
ATOM      6  C   UNL     1       4.377   5.222  17.244  0.00  0.00    +0.000 A 
ATOM      7  C   UNL     1       4.529   6.610  17.029  0.00  0.00    +0.000 A 
ATOM      8  C   UNL     1       5.789   7.202  16.885  0.00  0.00    +0.000 A 
ATOM      9  C   UNL     1       6.928   6.419  16.953  0.00  0.00    +0.000 A 
ATOM     10  F   UNL     1       8.132   6.986  16.798  0.00  0.00    +0.000 F 
ATOM     11  C   UNL     1       6.828   5.060  17.198  0.00  0.00    +0.000 A 
ATOM     12  C   UNL     1       5.565   4.478  17.376  0.00  0.00    +0.000 A 
ENDBRANCH   5   6
BRANCH   1  13
ATOM     13  S   UNL     1       2.714   5.319  20.200  0.00  0.00    +0.000 S 
ATOM     14  O   UNL     1       4.152   5.500  20.147  0.00  0.00    +0.000 OA
ATOM     15  O   UNL     1       2.143   4.646  21.342  0.00  0.00    +0.000 OA
BRANCH  13  19
ATOM     16  C   UNL     1      -0.288   9.109  22.267  0.00  0.00    +0.000 C 
ATOM     17  C   UNL     1       0.597   8.641  21.153  0.00  0.00    +0.000 A 
ATOM     18  C   UNL     1       1.225   7.394  21.216  0.00  0.00    +0.000 A 
ATOM     19  C   UNL     1       1.989   6.938  20.143  0.00  0.00    +0.000 A 
ATOM     20  C   UNL     1       2.199   7.751  19.025  0.00  0.00    +0.000 A 
ATOM     21  C   UNL     1       1.608   9.016  18.962  0.00  0.00    +0.000 A 
ATOM     22  C   UNL     1       1.820   9.903  17.775  0.00  0.00    +0.000 C 
ATOM     23  C   UNL     1       0.814   9.445  20.031  0.00  0.00    +0.000 A 
ATOM     24  F   UNL     1       0.247  10.659  19.980  0.00  0.00    +0.000 F 
ENDBRANCH  13  19
ENDBRANCH   1  13
BRANCH   2  25
ATOM     25  C   UNL     1       0.655   2.926  20.020  0.00  0.00    +0.000 C 
BRANCH  25  26
ATOM     26  O   UNL     1       1.567   2.065  20.710  0.00  0.00    +0.000 OA
ATOM     27  H   UNL     1       2.462   2.275  20.390  0.00  0.00    +0.000 HD
ENDBRANCH  25  26
ENDBRANCH   2  25
TORSDOF 5
ENDMDL
MODEL 5
REMARK VINA RESULT:      -7.9      1.332      1.492
REMARK  Name = 
REMARK  7 active torsions:
REMARK  status: ('A' for Active; 'I' for Inactive)
REMARK    1  A    between atoms: C_1  and  C_2
REMARK    2  A    between atoms: C_4  and  S_5
REMARK    3  A    between atoms: S_5  and  N_8
REMARK    4  A    between atoms: C_9  and  C_10
REMARK    5  A    between atoms: C_10  and  O_11
REMARK    6  A    between atoms: C_14  and  C_15
REMARK    7  A    between atoms: C_23  and  C_24
REMARK                            x       y       z     vdW  Elec       q    Type
REMARK                         _______ _______ _______ _____ _____    ______ ____
ROOT
ATOM      1  N   UNL     1       2.191   4.467  18.877  0.00  0.00    +0.000 NA
ATOM      2  C   UNL     1       1.143   3.412  19.103  0.00  0.00    +0.000 C 
ATOM      3  C   UNL     1       1.794   2.166  18.525  0.00  0.00    +0.000 C 
ATOM      4  C   UNL     1       2.526   2.667  17.297  0.00  0.00    +0.000 C 
ATOM      5  C   UNL     1       2.804   4.177  17.529  0.00  0.00    +0.000 C 
ENDROOT
BRANCH   5   6
ATOM      6  C   UNL     1       4.175   4.686  17.086  0.00  0.00    +0.000 A 
ATOM      7  C   UNL     1       5.278   3.842  16.833  0.00  0.00    +0.000 A 
ATOM      8  C   UNL     1       6.504   4.343  16.380  0.00  0.00    +0.000 A 
ATOM      9  C   UNL     1       6.655   5.703  16.170  0.00  0.00    +0.000 A 
ATOM     10  F   UNL     1       7.835   6.182  15.754  0.00  0.00    +0.000 F 
ATOM     11  C   UNL     1       5.589   6.564  16.371  0.00  0.00    +0.000 A 
ATOM     12  C   UNL     1       4.354   6.052  16.791  0.00  0.00    +0.000 A 
ENDBRANCH   5   6
BRANCH   1  13
ATOM     13  S   UNL     1       2.871   5.325  20.153  0.00  0.00    +0.000 S 
ATOM     14  O   UNL     1       4.272   5.525  19.834  0.00  0.00    +0.000 OA
ATOM     15  O   UNL     1       2.528   4.745  21.429  0.00  0.00    +0.000 OA
BRANCH  13  19
ATOM     16  C   UNL     1      -0.249   9.027  22.205  0.00  0.00    +0.000 C 
ATOM     17  C   UNL     1       0.652   8.583  21.094  0.00  0.00    +0.000 A 
ATOM     18  C   UNL     1       1.318   7.356  21.161  0.00  0.00    +0.000 A 
ATOM     19  C   UNL     1       2.097   6.921  20.090  0.00  0.00    +0.000 A 
ATOM     20  C   UNL     1       2.284   7.737  18.971  0.00  0.00    +0.000 A 
ATOM     21  C   UNL     1       1.654   8.983  18.903  0.00  0.00    +0.000 A 
ATOM     22  C   UNL     1       1.841   9.873  17.714  0.00  0.00    +0.000 C 
ATOM     23  C   UNL     1       0.845   9.390  19.970  0.00  0.00    +0.000 A 
ATOM     24  F   UNL     1       0.242  10.587  19.915  0.00  0.00    +0.000 F 
ENDBRANCH  13  19
ENDBRANCH   1  13
BRANCH   2  25
ATOM     25  C   UNL     1       0.610   3.144  20.514  0.00  0.00    +0.000 C 
BRANCH  25  26
ATOM     26  O   UNL     1       1.493   2.252  21.204  0.00  0.00    +0.000 OA
ATOM     27  H   UNL     1       2.180   1.978  20.571  0.00  0.00    +0.000 HD
ENDBRANCH  25  26
ENDBRANCH   2  25
TORSDOF 5
ENDMDL
MODEL 6
REMARK VINA RESULT:      -7.4      2.144      5.809
REMARK  Name = 
REMARK  7 active torsions:
REMARK  status: ('A' for Active; 'I' for Inactive)
REMARK    1  A    between atoms: C_1  and  C_2
REMARK    2  A    between atoms: C_4  and  S_5
REMARK    3  A    between atoms: S_5  and  N_8
REMARK    4  A    between atoms: C_9  and  C_10
REMARK    5  A    between atoms: C_10  and  O_11
REMARK    6  A    between atoms: C_14  and  C_15
REMARK    7  A    between atoms: C_23  and  C_24
REMARK                            x       y       z     vdW  Elec       q    Type
REMARK                         _______ _______ _______ _____ _____    ______ ____
ROOT
ATOM      1  N   UNL     1       3.152   3.964  19.205  0.00  0.00    +0.000 NA
ATOM      2  C   UNL     1       3.191   2.642  19.922  0.00  0.00    +0.000 C 
ATOM      3  C   UNL     1       2.146   2.821  21.010  0.00  0.00    +0.000 C 
ATOM      4  C   UNL     1       2.317   4.259  21.456  0.00  0.00    +0.000 C 
ATOM      5  C   UNL     1       2.965   5.019  20.267  0.00  0.00    +0.000 C 
ENDROOT
BRANCH   5   6
ATOM      6  C   UNL     1       2.427   6.423  19.991  0.00  0.00    +0.000 A 
ATOM      7  C   UNL     1       2.751   7.171  18.838  0.00  0.00    +0.000 A 
ATOM      8  C   UNL     1       2.198   8.434  18.596  0.00  0.00    +0.000 A 
ATOM      9  C   UNL     1       1.307   8.979  19.505  0.00  0.00    +0.000 A 
ATOM     10  F   UNL     1       0.793  10.195  19.281  0.00  0.00    +0.000 F 
ATOM     11  C   UNL     1       0.934   8.266  20.632  0.00  0.00    +0.000 A 
ATOM     12  C   UNL     1       1.464   6.986  20.850  0.00  0.00    +0.000 A 
ENDBRANCH   5   6
BRANCH   1  13
ATOM     13  S   UNL     1       2.773   4.071  17.570  0.00  0.00    +0.000 S 
ATOM     14  O   UNL     1       1.889   5.209  17.411  0.00  0.00    +0.000 OA
ATOM     15  O   UNL     1       2.364   2.796  17.032  0.00  0.00    +0.000 OA
BRANCH  13  19
ATOM     16  C   UNL     1       7.333   6.687  17.431  0.00  0.00    +0.000 C 
ATOM     17  C   UNL     1       6.388   5.724  16.780  0.00  0.00    +0.000 A 
ATOM     18  C   UNL     1       5.210   5.333  17.422  0.00  0.00    +0.000 A 
ATOM     19  C   UNL     1       4.304   4.494  16.777  0.00  0.00    +0.000 A 
ATOM     20  C   UNL     1       4.597   3.969  15.514  0.00  0.00    +0.000 A 
ATOM     21  C   UNL     1       5.788   4.321  14.873  0.00  0.00    +0.000 A 
ATOM     22  C   UNL     1       6.122   3.771  13.521  0.00  0.00    +0.000 C 
ATOM     23  C   UNL     1       6.670   5.194  15.518  0.00  0.00    +0.000 A 
ATOM     24  F   UNL     1       7.818   5.531  14.911  0.00  0.00    +0.000 F 
ENDBRANCH  13  19
ENDBRANCH   1  13
BRANCH   2  25
ATOM     25  C   UNL     1       2.959   1.339  19.152  0.00  0.00    +0.000 C 
BRANCH  25  26
ATOM     26  O   UNL     1       4.183   0.908  18.547  0.00  0.00    +0.000 OA
ATOM     27  H   UNL     1       4.875   0.958  19.229  0.00  0.00    +0.000 HD
ENDBRANCH  25  26
ENDBRANCH   2  25
TORSDOF 5
ENDMDL
MODEL 7
REMARK VINA RESULT:      -7.3      2.115      5.900
REMARK  Name = 
REMARK  7 active torsions:
REMARK  status: ('A' for Active; 'I' for Inactive)
REMARK    1  A    between atoms: C_1  and  C_2
REMARK    2  A    between atoms: C_4  and  S_5
REMARK    3  A    between atoms: S_5  and  N_8
REMARK    4  A    between atoms: C_9  and  C_10
REMARK    5  A    between atoms: C_10  and  O_11
REMARK    6  A    between atoms: C_14  and  C_15
REMARK    7  A    between atoms: C_23  and  C_24
REMARK                            x       y       z     vdW  Elec       q    Type
REMARK                         _______ _______ _______ _____ _____    ______ ____
ROOT
ATOM      1  N   UNL     1       3.100   4.045  19.243  0.00  0.00    +0.000 NA
ATOM      2  C   UNL     1       3.195   2.731  19.969  0.00  0.00    +0.000 C 
ATOM      3  C   UNL     1       2.144   2.875  21.058  0.00  0.00    +0.000 C 
ATOM      4  C   UNL     1       2.257   4.322  21.493  0.00  0.00    +0.000 C 
ATOM      5  C   UNL     1       2.872   5.100  20.297  0.00  0.00    +0.000 C 
ENDROOT
BRANCH   5   6
ATOM      6  C   UNL     1       2.277   6.478  20.012  0.00  0.00    +0.000 A 
ATOM      7  C   UNL     1       1.371   7.132  20.875  0.00  0.00    +0.000 A 
ATOM      8  C   UNL     1       0.886   8.417  20.604  0.00  0.00    +0.000 A 
ATOM      9  C   UNL     1       1.298   9.078  19.460  0.00  0.00    +0.000 A 
ATOM     10  F   UNL     1       0.820  10.301  19.192  0.00  0.00    +0.000 F 
ATOM     11  C   UNL     1       2.214   8.490  18.603  0.00  0.00    +0.000 A 
ATOM     12  C   UNL     1       2.722   7.218  18.899  0.00  0.00    +0.000 A 
ENDBRANCH   5   6
BRANCH   1  13
ATOM     13  S   UNL     1       2.716   4.125  17.607  0.00  0.00    +0.000 S 
ATOM     14  O   UNL     1       1.808   5.242  17.437  0.00  0.00    +0.000 OA
ATOM     15  O   UNL     1       2.333   2.836  17.086  0.00  0.00    +0.000 OA
BRANCH  13  19
ATOM     16  C   UNL     1       6.092   3.782  13.590  0.00  0.00    +0.000 C 
ATOM     17  C   UNL     1       5.743   4.370  14.923  0.00  0.00    +0.000 A 
ATOM     18  C   UNL     1       4.521   4.077  15.535  0.00  0.00    +0.000 A 
ATOM     19  C   UNL     1       4.236   4.571  16.807  0.00  0.00    +0.000 A 
ATOM     20  C   UNL     1       5.133   5.428  17.452  0.00  0.00    +0.000 A 
ATOM     21  C   UNL     1       6.344   5.760  16.839  0.00  0.00    +0.000 A 
ATOM     22  C   UNL     1       7.319   6.676  17.513  0.00  0.00    +0.000 C 
ATOM     23  C   UNL     1       6.632   5.226  15.578  0.00  0.00    +0.000 A 
ATOM     24  F   UNL     1       7.789   5.546  14.981  0.00  0.00    +0.000 F 
ENDBRANCH  13  19
ENDBRANCH   1  13
BRANCH   2  25
ATOM     25  C   UNL     1       3.015   1.414  19.208  0.00  0.00    +0.000 C 
BRANCH  25  26
ATOM     26  O   UNL     1       4.233   1.071  18.538  0.00  0.00    +0.000 OA
ATOM     27  H   UNL     1       4.015   0.923  17.601  0.00  0.00    +0.000 HD
ENDBRANCH  25  26
ENDBRANCH   2  25
TORSDOF 5
ENDMDL
MODEL 8
REMARK VINA RESULT:      -7.3      0.742      1.200
REMARK  Name = 
REMARK  7 active torsions:
REMARK  status: ('A' for Active; 'I' for Inactive)
REMARK    1  A    between atoms: C_1  and  C_2
REMARK    2  A    between atoms: C_4  and  S_5
REMARK    3  A    between atoms: S_5  and  N_8
REMARK    4  A    between atoms: C_9  and  C_10
REMARK    5  A    between atoms: C_10  and  O_11
REMARK    6  A    between atoms: C_14  and  C_15
REMARK    7  A    between atoms: C_23  and  C_24
REMARK                            x       y       z     vdW  Elec       q    Type
REMARK                         _______ _______ _______ _____ _____    ______ ____
ROOT
ATOM      1  N   UNL     1       3.369   4.661  18.024  0.00  0.00    +0.000 NA
ATOM      2  C   UNL     1       2.687   3.457  17.433  0.00  0.00    +0.000 C 
ATOM      3  C   UNL     1       3.851   2.654  16.875  0.00  0.00    +0.000 C 
ATOM      4  C   UNL     1       4.791   3.704  16.317  0.00  0.00    +0.000 C 
ATOM      5  C   UNL     1       4.489   5.023  17.080  0.00  0.00    +0.000 C 
ENDROOT
BRANCH   5   6
ATOM      6  C   UNL     1       5.700   5.866  17.475  0.00  0.00    +0.000 A 
ATOM      7  C   UNL     1       5.836   7.235  17.157  0.00  0.00    +0.000 A 
ATOM      8  C   UNL     1       6.939   7.987  17.580  0.00  0.00    +0.000 A 
ATOM      9  C   UNL     1       7.933   7.384  18.332  0.00  0.00    +0.000 A 
ATOM     10  F   UNL     1       8.996   8.101  18.721  0.00  0.00    +0.000 F 
ATOM     11  C   UNL     1       7.823   6.053  18.698  0.00  0.00    +0.000 A 
ATOM     12  C   UNL     1       6.699   5.315  18.301  0.00  0.00    +0.000 A 
ENDBRANCH   5   6
BRANCH   1  13
ATOM     13  S   UNL     1       3.239   5.037  19.658  0.00  0.00    +0.000 S 
ATOM     14  O   UNL     1       4.585   5.241  20.157  0.00  0.00    +0.000 OA
ATOM     15  O   UNL     1       2.377   4.110  20.352  0.00  0.00    +0.000 OA
BRANCH  13  19
ATOM     16  C   UNL     1       0.074   8.549  21.959  0.00  0.00    +0.000 C 
ATOM     17  C   UNL     1       0.967   8.188  20.812  0.00  0.00    +0.000 A 
ATOM     18  C   UNL     1       1.659   6.974  20.800  0.00  0.00    +0.000 A 
ATOM     19  C   UNL     1       2.431   6.616  19.696  0.00  0.00    +0.000 A 
ATOM     20  C   UNL     1       2.585   7.498  18.623  0.00  0.00    +0.000 A 
ATOM     21  C   UNL     1       1.928   8.732  18.634  0.00  0.00    +0.000 A 
ATOM     22  C   UNL     1       2.079   9.692  17.495  0.00  0.00    +0.000 C 
ATOM     23  C   UNL     1       1.127   9.061  19.733  0.00  0.00    +0.000 A 
ATOM     24  F   UNL     1       0.499  10.246  19.754  0.00  0.00    +0.000 F 
ENDBRANCH  13  19
ENDBRANCH   1  13
BRANCH   2  25
ATOM     25  C   UNL     1       1.786   2.576  18.304  0.00  0.00    +0.000 C 
BRANCH  25  26
ATOM     26  O   UNL     1       0.450   3.090  18.293  0.00  0.00    +0.000 OA
ATOM     27  H   UNL     1       0.472   3.963  18.725  0.00  0.00    +0.000 HD
ENDBRANCH  25  26
ENDBRANCH   2  25
TORSDOF 5
ENDMDL
MODEL 9
REMARK VINA RESULT:      -7.1      6.743      9.616
REMARK  Name = 
REMARK  7 active torsions:
REMARK  status: ('A' for Active; 'I' for Inactive)
REMARK    1  A    between atoms: C_1  and  C_2
REMARK    2  A    between atoms: C_4  and  S_5
REMARK    3  A    between atoms: S_5  and  N_8
REMARK    4  A    between atoms: C_9  and  C_10
REMARK    5  A    between atoms: C_10  and  O_11
REMARK    6  A    between atoms: C_14  and  C_15
REMARK    7  A    between atoms: C_23  and  C_24
REMARK                            x       y       z     vdW  Elec       q    Type
REMARK                         _______ _______ _______ _____ _____    ______ ____
ROOT
ATOM      1  N   UNL     1       0.144  11.826  20.487  0.00  0.00    +0.000 NA
ATOM      2  C   UNL     1       0.727  10.531  19.992  0.00  0.00    +0.000 C 
ATOM      3  C   UNL     1      -0.157   9.490  20.660  0.00  0.00    +0.000 C 
ATOM      4  C   UNL     1      -0.421  10.059  22.040  0.00  0.00    +0.000 C 
ATOM      5  C   UNL     1      -0.239  11.598  21.928  0.00  0.00    +0.000 C 
ENDROOT
BRANCH   5   6
ATOM      6  C   UNL     1      -1.251  12.453  22.689  0.00  0.00    +0.000 A 
ATOM      7  C   UNL     1      -2.542  12.006  23.044  0.00  0.00    +0.000 A 
ATOM      8  C   UNL     1      -3.423  12.802  23.786  0.00  0.00    +0.000 A 
ATOM      9  C   UNL     1      -3.032  14.067  24.189  0.00  0.00    +0.000 A 
ATOM     10  F   UNL     1      -3.883  14.834  24.884  0.00  0.00    +0.000 F 
ATOM     11  C   UNL     1      -1.762  14.533  23.895  0.00  0.00    +0.000 A 
ATOM     12  C   UNL     1      -0.872  13.717  23.182  0.00  0.00    +0.000 A 
ENDBRANCH   5   6
BRANCH   1  13
ATOM     13  S   UNL     1      -0.471  12.980  19.429  0.00  0.00    +0.000 S 
ATOM     14  O   UNL     1       0.406  13.010  18.275  0.00  0.00    +0.000 OA
ATOM     15  O   UNL     1      -0.766  14.220  20.106  0.00  0.00    +0.000 OA
BRANCH  13  19
ATOM     16  C   UNL     1      -3.414  10.455  15.878  0.00  0.00    +0.000 C 
ATOM     17  C   UNL     1      -3.317  11.140  17.207  0.00  0.00    +0.000 A 
ATOM     18  C   UNL     1      -2.089  11.614  17.678  0.00  0.00    +0.000 A 
ATOM     19  C   UNL     1      -2.021  12.313  18.882  0.00  0.00    +0.000 A 
ATOM     20  C   UNL     1      -3.164  12.481  19.670  0.00  0.00    +0.000 A 
ATOM     21  C   UNL     1      -4.393  11.982  19.231  0.00  0.00    +0.000 A 
ATOM     22  C   UNL     1      -5.629  12.150  20.059  0.00  0.00    +0.000 C 
ATOM     23  C   UNL     1      -4.452  11.315  18.003  0.00  0.00    +0.000 A 
ATOM     24  F   UNL     1      -5.627  10.827  17.578  0.00  0.00    +0.000 F 
ENDBRANCH  13  19
ENDBRANCH   1  13
BRANCH   2  25
ATOM     25  C   UNL     1       0.843  10.262  18.488  0.00  0.00    +0.000 C 
BRANCH  25  26
ATOM     26  O   UNL     1       2.075  10.797  17.994  0.00  0.00    +0.000 OA
ATOM     27  H   UNL     1       1.977  10.907  17.032  0.00  0.00    +0.000 HD
ENDBRANCH  25  26
ENDBRANCH   2  25
TORSDOF 5
ENDMDL
