MODEL 1
REMARK VINA RESULT:      -9.8      0.000      0.000
REMARK  Name = 
REMARK  6 active torsions:
REMARK  status: ('A' for Active; 'I' for Inactive)
REMARK    1  A    between atoms: C_1  and  C_2
REMARK    2  A    between atoms: C_8  and  N_9
REMARK    3  A    between atoms: C_13  and  C_14
REMARK    4  A    between atoms: C_17  and  O_18
REMARK    5  A    between atoms: O_18  and  C_19
REMARK    6  A    between atoms: C_34  and  C_35
REMARK                            x       y       z     vdW  Elec       q    Type
REMARK                         _______ _______ _______ _____ _____    ______ ____
ROOT
ATOM      1  N   UNL     1       1.457   8.893  19.247  0.00  0.00    +0.000 N 
ATOM      2  C   UNL     1       2.120   8.608  18.075  0.00  0.00    +0.000 A 
ATOM      3  N   UNL     1       2.765   7.522  17.812  0.00  0.00    +0.000 NA
ATOM      4  C   UNL     1       2.784   6.490  18.763  0.00  0.00    +0.000 A 
ATOM      5  C   UNL     1       3.460   5.274  18.496  0.00  0.00    +0.000 A 
ATOM      6  C   UNL     1       3.328   4.223  19.433  0.00  0.00    +0.000 A 
ATOM      7  C   UNL     1       2.587   4.372  20.607  0.00  0.00    +0.000 A 
ATOM      8  C   UNL     1       1.991   5.591  20.889  0.00  0.00    +0.000 A 
ATOM      9  C   UNL     1       2.097   6.638  19.971  0.00  0.00    +0.000 A 
ATOM     10  C   UNL     1       1.506   7.952  20.280  0.00  0.00    +0.000 A 
ATOM     11  O   UNL     1       1.154   8.129  21.445  0.00  0.00    +0.000 OA
ENDROOT
BRANCH   1  19
ATOM     12  C   UNL     1       1.174  15.406  21.685  0.00  0.00    +0.000 C 
ATOM     13  C   UNL     1      -0.113  15.841  20.995  0.00  0.00    +0.000 C 
ATOM     14  C   UNL     1      -0.417  15.077  19.698  0.00  0.00    +0.000 C 
ATOM     15  N   UNL     1      -1.150  13.834  19.920  0.00  0.00    +0.000 N 
ATOM     16  C   UNL     1      -0.500  12.629  19.787  0.00  0.00    +0.000 A 
ATOM     17  C   UNL     1      -1.223  11.510  19.390  0.00  0.00    +0.000 A 
ATOM     18  C   UNL     1      -0.586  10.288  19.189  0.00  0.00    +0.000 A 
ATOM     19  C   UNL     1       0.784  10.152  19.427  0.00  0.00    +0.000 A 
ATOM     20  C   UNL     1       1.427  11.329  19.820  0.00  0.00    +0.000 A 
ATOM     21  N   UNL     1       0.831  12.542  19.977  0.00  0.00    +0.000 NA
ATOM     22  C   UNL     1      -2.293  13.930  20.828  0.00  0.00    +0.000 C 
ATOM     23  C   UNL     1      -1.956  14.704  22.120  0.00  0.00    +0.000 C 
ATOM     24  C   UNL     1      -1.325  13.840  23.208  0.00  0.00    +0.000 C 
ATOM     25  O   UNL     1      -1.225  15.920  21.901  0.00  0.00    +0.000 OA
ENDBRANCH   1  19
BRANCH   5  26
ATOM     26  C   UNL     1       4.299   5.082  17.284  0.00  0.00    +0.000 A 
ATOM     27  C   UNL     1       4.696   3.802  16.864  0.00  0.00    +0.000 A 
ATOM     28  C   UNL     1       5.518   3.620  15.749  0.00  0.00    +0.000 A 
ATOM     29  C   UNL     1       5.931   4.710  14.988  0.00  0.00    +0.000 A 
ATOM     30  C   UNL     1       5.547   5.990  15.379  0.00  0.00    +0.000 A 
ATOM     31  C   UNL     1       4.733   6.169  16.507  0.00  0.00    +0.000 A 
BRANCH  29  32
ATOM     32  O   UNL     1       6.742   4.392  13.945  0.00  0.00    +0.000 OA
BRANCH  32  33
ATOM     33  C   UNL     1       6.193   3.784  12.787  0.00  0.00    +0.000 C 
ATOM     34  F   UNL     1       6.341   2.444  12.737  0.00  0.00    +0.000 F 
ATOM     35  F   UNL     1       4.879   4.082  12.705  0.00  0.00    +0.000 F 
ATOM     36  F   UNL     1       6.811   4.305  11.702  0.00  0.00    +0.000 F 
ENDBRANCH  32  33
ENDBRANCH  29  32
ENDBRANCH   5  26
TORSDOF 4
ENDMDL
MODEL 2
REMARK VINA RESULT:      -9.7      0.624      1.187
REMARK  Name = 
REMARK  6 active torsions:
REMARK  status: ('A' for Active; 'I' for Inactive)
REMARK    1  A    between atoms: C_1  and  C_2
REMARK    2  A    between atoms: C_8  and  N_9
REMARK    3  A    between atoms: C_13  and  C_14
REMARK    4  A    between atoms: C_17  and  O_18
REMARK    5  A    between atoms: O_18  and  C_19
REMARK    6  A    between atoms: C_34  and  C_35
REMARK                            x       y       z     vdW  Elec       q    Type
REMARK                         _______ _______ _______ _____ _____    ______ ____
ROOT
ATOM      1  N   UNL     1       1.543   9.143  19.034  0.00  0.00    +0.000 N 
ATOM      2  C   UNL     1       2.236   8.787  17.899  0.00  0.00    +0.000 A 
ATOM      3  N   UNL     1       2.842   7.666  17.701  0.00  0.00    +0.000 NA
ATOM      4  C   UNL     1       2.780   6.669  18.688  0.00  0.00    +0.000 A 
ATOM      5  C   UNL     1       3.412   5.417  18.491  0.00  0.00    +0.000 A 
ATOM      6  C   UNL     1       3.200   4.408  19.458  0.00  0.00    +0.000 A 
ATOM      7  C   UNL     1       2.423   4.631  20.596  0.00  0.00    +0.000 A 
ATOM      8  C   UNL     1       1.870   5.885  20.811  0.00  0.00    +0.000 A 
ATOM      9  C   UNL     1       2.056   6.892  19.862  0.00  0.00    +0.000 A 
ATOM     10  C   UNL     1       1.512   8.240  20.101  0.00  0.00    +0.000 A 
ATOM     11  O   UNL     1       1.125   8.475  21.245  0.00  0.00    +0.000 OA
ENDROOT
BRANCH   1  19
ATOM     12  C   UNL     1       1.759  15.964  20.398  0.00  0.00    +0.000 C 
ATOM     13  C   UNL     1       0.356  16.326  19.926  0.00  0.00    +0.000 C 
ATOM     14  C   UNL     1      -0.208  15.377  18.859  0.00  0.00    +0.000 C 
ATOM     15  N   UNL     1      -0.877  14.208  19.422  0.00  0.00    +0.000 N 
ATOM     16  C   UNL     1      -0.266  12.977  19.355  0.00  0.00    +0.000 A 
ATOM     17  C   UNL     1      -1.054  11.833  19.300  0.00  0.00    +0.000 A 
ATOM     18  C   UNL     1      -0.470  10.576  19.172  0.00  0.00    +0.000 A 
ATOM     19  C   UNL     1       0.920  10.436  19.143  0.00  0.00    +0.000 A 
ATOM     20  C   UNL     1       1.628  11.639  19.202  0.00  0.00    +0.000 A 
ATOM     21  N   UNL     1       1.075  12.880  19.281  0.00  0.00    +0.000 NA
ATOM     22  C   UNL     1      -1.808  14.482  20.518  0.00  0.00    +0.000 C 
ATOM     23  C   UNL     1      -1.212  15.439  21.571  0.00  0.00    +0.000 C 
ATOM     24  C   UNL     1      -0.368  14.738  22.632  0.00  0.00    +0.000 C 
ATOM     25  O   UNL     1      -0.544  16.582  21.015  0.00  0.00    +0.000 OA
ENDBRANCH   1  19
BRANCH   5  26
ATOM     26  C   UNL     1       4.287   5.145  17.320  0.00  0.00    +0.000 A 
ATOM     27  C   UNL     1       4.815   6.189  16.542  0.00  0.00    +0.000 A 
ATOM     28  C   UNL     1       5.604   5.937  15.418  0.00  0.00    +0.000 A 
ATOM     29  C   UNL     1       5.933   4.632  15.061  0.00  0.00    +0.000 A 
ATOM     30  C   UNL     1       5.428   3.579  15.818  0.00  0.00    +0.000 A 
ATOM     31  C   UNL     1       4.624   3.835  16.938  0.00  0.00    +0.000 A 
BRANCH  29  32
ATOM     32  O   UNL     1       6.689   4.530  13.937  0.00  0.00    +0.000 OA
BRANCH  32  33
ATOM     33  C   UNL     1       6.185   3.830  12.810  0.00  0.00    +0.000 C 
ATOM     34  F   UNL     1       4.848   3.911  12.655  0.00  0.00    +0.000 F 
ATOM     35  F   UNL     1       6.785   4.292  11.692  0.00  0.00    +0.000 F 
ATOM     36  F   UNL     1       6.504   2.523  12.948  0.00  0.00    +0.000 F 
ENDBRANCH  32  33
ENDBRANCH  29  32
ENDBRANCH   5  26
TORSDOF 4
ENDMDL
MODEL 3
REMARK VINA RESULT:      -9.5      1.103      1.164
REMARK  Name = 
REMARK  6 active torsions:
REMARK  status: ('A' for Active; 'I' for Inactive)
REMARK    1  A    between atoms: C_1  and  C_2
REMARK    2  A    between atoms: C_8  and  N_9
REMARK    3  A    between atoms: C_13  and  C_14
REMARK    4  A    between atoms: C_17  and  O_18
REMARK    5  A    between atoms: O_18  and  C_19
REMARK    6  A    between atoms: C_34  and  C_35
REMARK                            x       y       z     vdW  Elec       q    Type
REMARK                         _______ _______ _______ _____ _____    ______ ____
ROOT
ATOM      1  N   UNL     1       1.454   8.627  19.408  0.00  0.00    +0.000 N 
ATOM      2  C   UNL     1       2.315   8.439  18.350  0.00  0.00    +0.000 A 
ATOM      3  N   UNL     1       3.064   7.408  18.156  0.00  0.00    +0.000 NA
ATOM      4  C   UNL     1       2.999   6.334  19.057  0.00  0.00    +0.000 A 
ATOM      5  C   UNL     1       3.789   5.175  18.859  0.00  0.00    +0.000 A 
ATOM      6  C   UNL     1       3.579   4.074  19.720  0.00  0.00    +0.000 A 
ATOM      7  C   UNL     1       2.650   4.121  20.762  0.00  0.00    +0.000 A 
ATOM      8  C   UNL     1       1.936   5.288  20.988  0.00  0.00    +0.000 A 
ATOM      9  C   UNL     1       2.119   6.382  20.141  0.00  0.00    +0.000 A 
ATOM     10  C   UNL     1       1.399   7.642  20.398  0.00  0.00    +0.000 A 
ATOM     11  O   UNL     1       0.853   7.741  21.496  0.00  0.00    +0.000 OA
ENDROOT
BRANCH   1  19
ATOM     12  C   UNL     1      -0.250  14.539  22.661  0.00  0.00    +0.000 C 
ATOM     13  C   UNL     1      -1.176  15.115  21.596  0.00  0.00    +0.000 C 
ATOM     14  C   UNL     1      -0.875  14.623  20.173  0.00  0.00    +0.000 C 
ATOM     15  N   UNL     1      -1.545  13.368  19.843  0.00  0.00    +0.000 N 
ATOM     16  C   UNL     1      -0.813  12.206  19.771  0.00  0.00    +0.000 A 
ATOM     17  C   UNL     1      -1.233  11.194  18.915  0.00  0.00    +0.000 A 
ATOM     18  C   UNL     1      -0.485  10.028  18.774  0.00  0.00    +0.000 A 
ATOM     19  C   UNL     1       0.679   9.834  19.523  0.00  0.00    +0.000 A 
ATOM     20  C   UNL     1       1.023  10.904  20.353  0.00  0.00    +0.000 A 
ATOM     21  N   UNL     1       0.329  12.069  20.471  0.00  0.00    +0.000 NA
ATOM     22  C   UNL     1      -2.961  13.297  20.203  0.00  0.00    +0.000 C 
ATOM     23  C   UNL     1      -3.230  13.799  21.637  0.00  0.00    +0.000 C 
ATOM     24  C   UNL     1      -3.034  12.732  22.710  0.00  0.00    +0.000 C 
ATOM     25  O   UNL     1      -2.562  15.027  21.964  0.00  0.00    +0.000 OA
ENDBRANCH   1  19
BRANCH   5  26
ATOM     26  C   UNL     1       4.823   5.092  17.794  0.00  0.00    +0.000 A 
ATOM     27  C   UNL     1       4.729   4.153  16.753  0.00  0.00    +0.000 A 
ATOM     28  C   UNL     1       5.719   4.045  15.774  0.00  0.00    +0.000 A 
ATOM     29  C   UNL     1       6.814   4.907  15.774  0.00  0.00    +0.000 A 
ATOM     30  C   UNL     1       6.928   5.851  16.790  0.00  0.00    +0.000 A 
ATOM     31  C   UNL     1       5.939   5.947  17.780  0.00  0.00    +0.000 A 
BRANCH  29  32
ATOM     32  O   UNL     1       7.708   4.678  14.778  0.00  0.00    +0.000 OA
BRANCH  32  33
ATOM     33  C   UNL     1       7.342   4.932  13.430  0.00  0.00    +0.000 C 
ATOM     34  F   UNL     1       7.053   3.827  12.713  0.00  0.00    +0.000 F 
ATOM     35  F   UNL     1       6.277   5.760  13.405  0.00  0.00    +0.000 F 
ATOM     36  F   UNL     1       8.375   5.558  12.822  0.00  0.00    +0.000 F 
ENDBRANCH  32  33
ENDBRANCH  29  32
ENDBRANCH   5  26
TORSDOF 4
ENDMDL
MODEL 4
REMARK VINA RESULT:      -9.4      0.948      1.286
REMARK  Name = 
REMARK  6 active torsions:
REMARK  status: ('A' for Active; 'I' for Inactive)
REMARK    1  A    between atoms: C_1  and  C_2
REMARK    2  A    between atoms: C_8  and  N_9
REMARK    3  A    between atoms: C_13  and  C_14
REMARK    4  A    between atoms: C_17  and  O_18
REMARK    5  A    between atoms: O_18  and  C_19
REMARK    6  A    between atoms: C_34  and  C_35
REMARK                            x       y       z     vdW  Elec       q    Type
REMARK                         _______ _______ _______ _____ _____    ______ ____
ROOT
ATOM      1  N   UNL     1       1.469   8.654  19.403  0.00  0.00    +0.000 N 
ATOM      2  C   UNL     1       2.325   8.416  18.351  0.00  0.00    +0.000 A 
ATOM      3  N   UNL     1       3.028   7.350  18.171  0.00  0.00    +0.000 NA
ATOM      4  C   UNL     1       2.910   6.289  19.083  0.00  0.00    +0.000 A 
ATOM      5  C   UNL     1       3.647   5.094  18.900  0.00  0.00    +0.000 A 
ATOM      6  C   UNL     1       3.383   4.012  19.772  0.00  0.00    +0.000 A 
ATOM      7  C   UNL     1       2.453   4.112  20.808  0.00  0.00    +0.000 A 
ATOM      8  C   UNL     1       1.791   5.312  21.019  0.00  0.00    +0.000 A 
ATOM      9  C   UNL     1       2.027   6.389  20.162  0.00  0.00    +0.000 A 
ATOM     10  C   UNL     1       1.364   7.682  20.403  0.00  0.00    +0.000 A 
ATOM     11  O   UNL     1       0.819   7.818  21.497  0.00  0.00    +0.000 OA
ENDROOT
BRANCH   1  19
ATOM     12  C   UNL     1       0.473  14.967  22.157  0.00  0.00    +0.000 C 
ATOM     13  C   UNL     1      -0.615  15.452  21.205  0.00  0.00    +0.000 C 
ATOM     14  C   UNL     1      -0.577  14.786  19.823  0.00  0.00    +0.000 C 
ATOM     15  N   UNL     1      -1.317  13.529  19.767  0.00  0.00    +0.000 N 
ATOM     16  C   UNL     1      -0.632  12.338  19.712  0.00  0.00    +0.000 A 
ATOM     17  C   UNL     1      -1.214  11.251  19.070  0.00  0.00    +0.000 A 
ATOM     18  C   UNL     1      -0.524  10.048  18.945  0.00  0.00    +0.000 A 
ATOM     19  C   UNL     1       0.749   9.896  19.502  0.00  0.00    +0.000 A 
ATOM     20  C   UNL     1       1.253  11.040  20.124  0.00  0.00    +0.000 A 
ATOM     21  N   UNL     1       0.613  12.238  20.217  0.00  0.00    +0.000 NA
ATOM     22  C   UNL     1      -2.650  13.556  20.371  0.00  0.00    +0.000 C 
ATOM     23  C   UNL     1      -2.655  14.232  21.758  0.00  0.00    +0.000 C 
ATOM     24  C   UNL     1      -2.293  13.290  22.903  0.00  0.00    +0.000 C 
ATOM     25  O   UNL     1      -1.916  15.462  21.814  0.00  0.00    +0.000 OA
ENDBRANCH   1  19
BRANCH   5  26
ATOM     26  C   UNL     1       4.682   4.953  17.842  0.00  0.00    +0.000 A 
ATOM     27  C   UNL     1       5.819   5.779  17.815  0.00  0.00    +0.000 A 
ATOM     28  C   UNL     1       6.772   5.678  16.800  0.00  0.00    +0.000 A 
ATOM     29  C   UNL     1       6.647   4.713  15.803  0.00  0.00    +0.000 A 
ATOM     30  C   UNL     1       5.533   3.878  15.809  0.00  0.00    +0.000 A 
ATOM     31  C   UNL     1       4.570   3.992  16.823  0.00  0.00    +0.000 A 
BRANCH  29  32
ATOM     32  O   UNL     1       7.633   4.739  14.869  0.00  0.00    +0.000 OA
BRANCH  32  33
ATOM     33  C   UNL     1       7.304   4.919  13.501  0.00  0.00    +0.000 C 
ATOM     34  F   UNL     1       8.272   5.502  12.766  0.00  0.00    +0.000 F 
ATOM     35  F   UNL     1       6.999   3.723  12.954  0.00  0.00    +0.000 F 
ATOM     36  F   UNL     1       6.205   5.705  13.430  0.00  0.00    +0.000 F 
ENDBRANCH  32  33
ENDBRANCH  29  32
ENDBRANCH   5  26
TORSDOF 4
ENDMDL
MODEL 5
REMARK VINA RESULT:      -9.2      0.874      1.244
REMARK  Name = 
REMARK  6 active torsions:
REMARK  status: ('A' for Active; 'I' for Inactive)
REMARK    1  A    between atoms: C_1  and  C_2
REMARK    2  A    between atoms: C_8  and  N_9
REMARK    3  A    between atoms: C_13  and  C_14
REMARK    4  A    between atoms: C_17  and  O_18
REMARK    5  A    between atoms: O_18  and  C_19
REMARK    6  A    between atoms: C_34  and  C_35
REMARK                            x       y       z     vdW  Elec       q    Type
REMARK                         _______ _______ _______ _____ _____    ______ ____
ROOT
ATOM      1  N   UNL     1       1.625   8.987  19.375  0.00  0.00    +0.000 N 
ATOM      2  C   UNL     1       2.310   8.689  18.219  0.00  0.00    +0.000 A 
ATOM      3  N   UNL     1       2.851   7.556  17.928  0.00  0.00    +0.000 NA
ATOM      4  C   UNL     1       2.720   6.484  18.824  0.00  0.00    +0.000 A 
ATOM      5  C   UNL     1       3.280   5.218  18.523  0.00  0.00    +0.000 A 
ATOM      6  C   UNL     1       2.998   4.143  19.398  0.00  0.00    +0.000 A 
ATOM      7  C   UNL     1       2.222   4.313  20.546  0.00  0.00    +0.000 A 
ATOM      8  C   UNL     1       1.741   5.574  20.865  0.00  0.00    +0.000 A 
ATOM      9  C   UNL     1       1.997   6.646  20.008  0.00  0.00    +0.000 A 
ATOM     10  C   UNL     1       1.529   7.998  20.360  0.00  0.00    +0.000 A 
ATOM     11  O   UNL     1       1.144   8.156  21.517  0.00  0.00    +0.000 OA
ENDROOT
BRANCH   1  19
ATOM     12  C   UNL     1       1.785  15.904  18.620  0.00  0.00    +0.000 C 
ATOM     13  C   UNL     1       0.407  16.218  19.192  0.00  0.00    +0.000 C 
ATOM     14  C   UNL     1      -0.598  15.063  19.070  0.00  0.00    +0.000 C 
ATOM     15  N   UNL     1      -0.532  14.121  20.183  0.00  0.00    +0.000 N 
ATOM     16  C   UNL     1       0.027  12.879  19.989  0.00  0.00    +0.000 A 
ATOM     17  C   UNL     1      -0.419  11.809  20.757  0.00  0.00    +0.000 A 
ATOM     18  C   UNL     1       0.083  10.528  20.547  0.00  0.00    +0.000 A 
ATOM     19  C   UNL     1       1.078  10.300  19.592  0.00  0.00    +0.000 A 
ATOM     20  C   UNL     1       1.461  11.432  18.869  0.00  0.00    +0.000 A 
ATOM     21  N   UNL     1       0.950  12.684  19.028  0.00  0.00    +0.000 NA
ATOM     22  C   UNL     1      -0.485  14.723  21.516  0.00  0.00    +0.000 C 
ATOM     23  C   UNL     1       0.533  15.879  21.605  0.00  0.00    +0.000 C 
ATOM     24  C   UNL     1       1.959  15.422  21.900  0.00  0.00    +0.000 C 
ATOM     25  O   UNL     1       0.474  16.799  20.504  0.00  0.00    +0.000 OA
ENDBRANCH   1  19
BRANCH   5  26
ATOM     26  C   UNL     1       4.151   4.996  17.339  0.00  0.00    +0.000 A 
ATOM     27  C   UNL     1       4.454   3.702  16.884  0.00  0.00    +0.000 A 
ATOM     28  C   UNL     1       5.304   3.488  15.797  0.00  0.00    +0.000 A 
ATOM     29  C   UNL     1       5.842   4.565  15.096  0.00  0.00    +0.000 A 
ATOM     30  C   UNL     1       5.553   5.858  15.521  0.00  0.00    +0.000 A 
ATOM     31  C   UNL     1       4.710   6.068  16.622  0.00  0.00    +0.000 A 
BRANCH  29  32
ATOM     32  O   UNL     1       6.666   4.214  14.075  0.00  0.00    +0.000 OA
BRANCH  32  33
ATOM     33  C   UNL     1       6.115   3.748  12.853  0.00  0.00    +0.000 C 
ATOM     34  F   UNL     1       6.189   2.413  12.681  0.00  0.00    +0.000 F 
ATOM     35  F   UNL     1       4.823   4.129  12.772  0.00  0.00    +0.000 F 
ATOM     36  F   UNL     1       6.789   4.332  11.835  0.00  0.00    +0.000 F 
ENDBRANCH  32  33
ENDBRANCH  29  32
ENDBRANCH   5  26
TORSDOF 4
ENDMDL
MODEL 6
REMARK VINA RESULT:      -9.1      1.015      1.547
REMARK  Name = 
REMARK  6 active torsions:
REMARK  status: ('A' for Active; 'I' for Inactive)
REMARK    1  A    between atoms: C_1  and  C_2
REMARK    2  A    between atoms: C_8  and  N_9
REMARK    3  A    between atoms: C_13  and  C_14
REMARK    4  A    between atoms: C_17  and  O_18
REMARK    5  A    between atoms: O_18  and  C_19
REMARK    6  A    between atoms: C_34  and  C_35
REMARK                            x       y       z     vdW  Elec       q    Type
REMARK                         _______ _______ _______ _____ _____    ______ ____
ROOT
ATOM      1  N   UNL     1       1.719   8.547  19.518  0.00  0.00    +0.000 N 
ATOM      2  C   UNL     1       2.417   8.365  18.346  0.00  0.00    +0.000 A 
ATOM      3  N   UNL     1       2.974   7.269  17.956  0.00  0.00    +0.000 NA
ATOM      4  C   UNL     1       2.847   6.117  18.748  0.00  0.00    +0.000 A 
ATOM      5  C   UNL     1       3.423   4.890  18.337  0.00  0.00    +0.000 A 
ATOM      6  C   UNL     1       3.146   3.737  19.106  0.00  0.00    +0.000 A 
ATOM      7  C   UNL     1       2.358   3.791  20.257  0.00  0.00    +0.000 A 
ATOM      8  C   UNL     1       1.860   5.012  20.687  0.00  0.00    +0.000 A 
ATOM      9  C   UNL     1       2.111   6.161  19.935  0.00  0.00    +0.000 A 
ATOM     10  C   UNL     1       1.625   7.470  20.406  0.00  0.00    +0.000 A 
ATOM     11  O   UNL     1       1.228   7.516  21.569  0.00  0.00    +0.000 OA
ENDROOT
BRANCH   1  19
ATOM     12  C   UNL     1      -2.296  12.651  23.452  0.00  0.00    +0.000 C 
ATOM     13  C   UNL     1      -1.885  13.993  22.858  0.00  0.00    +0.000 C 
ATOM     14  C   UNL     1      -0.480  13.998  22.240  0.00  0.00    +0.000 C 
ATOM     15  N   UNL     1      -0.461  13.561  20.846  0.00  0.00    +0.000 N 
ATOM     16  C   UNL     1       0.042  12.321  20.530  0.00  0.00    +0.000 A 
ATOM     17  C   UNL     1       0.626  12.125  19.284  0.00  0.00    +0.000 A 
ATOM     18  C   UNL     1       1.197  10.899  18.953  0.00  0.00    +0.000 A 
ATOM     19  C   UNL     1       1.154   9.828  19.850  0.00  0.00    +0.000 A 
ATOM     20  C   UNL     1       0.551  10.119  21.076  0.00  0.00    +0.000 A 
ATOM     21  N   UNL     1       0.028  11.323  21.435  0.00  0.00    +0.000 NA
ATOM     22  C   UNL     1      -1.485  14.155  19.986  0.00  0.00    +0.000 C 
ATOM     23  C   UNL     1      -2.884  14.135  20.636  0.00  0.00    +0.000 C 
ATOM     24  C   UNL     1      -3.643  12.828  20.423  0.00  0.00    +0.000 C 
ATOM     25  O   UNL     1      -2.900  14.554  22.009  0.00  0.00    +0.000 OA
ENDBRANCH   1  19
BRANCH   5  26
ATOM     26  C   UNL     1       4.307   4.789  17.146  0.00  0.00    +0.000 A 
ATOM     27  C   UNL     1       4.762   3.545  16.675  0.00  0.00    +0.000 A 
ATOM     28  C   UNL     1       5.625   3.448  15.582  0.00  0.00    +0.000 A 
ATOM     29  C   UNL     1       6.024   4.589  14.890  0.00  0.00    +0.000 A 
ATOM     30  C   UNL     1       5.584   5.833  15.332  0.00  0.00    +0.000 A 
ATOM     31  C   UNL     1       4.728   5.928  16.439  0.00  0.00    +0.000 A 
BRANCH  29  32
ATOM     32  O   UNL     1       6.878   4.352  13.861  0.00  0.00    +0.000 OA
BRANCH  32  33
ATOM     33  C   UNL     1       6.380   3.838  12.636  0.00  0.00    +0.000 C 
ATOM     34  F   UNL     1       6.629   2.527  12.438  0.00  0.00    +0.000 F 
ATOM     35  F   UNL     1       5.047   4.044  12.574  0.00  0.00    +0.000 F 
ATOM     36  F   UNL     1       6.957   4.523  11.623  0.00  0.00    +0.000 F 
ENDBRANCH  32  33
ENDBRANCH  29  32
ENDBRANCH   5  26
TORSDOF 4
ENDMDL
MODEL 7
REMARK VINA RESULT:      -8.9      1.047      1.572
REMARK  Name = 
REMARK  6 active torsions:
REMARK  status: ('A' for Active; 'I' for Inactive)
REMARK    1  A    between atoms: C_1  and  C_2
REMARK    2  A    between atoms: C_8  and  N_9
REMARK    3  A    between atoms: C_13  and  C_14
REMARK    4  A    between atoms: C_17  and  O_18
REMARK    5  A    between atoms: O_18  and  C_19
REMARK    6  A    between atoms: C_34  and  C_35
REMARK                            x       y       z     vdW  Elec       q    Type
REMARK                         _______ _______ _______ _____ _____    ______ ____
ROOT
ATOM      1  N   UNL     1       1.029   9.189  19.668  0.00  0.00    +0.000 N 
ATOM      2  C   UNL     1       1.703   8.969  18.488  0.00  0.00    +0.000 A 
ATOM      3  N   UNL     1       2.395   7.921  18.194  0.00  0.00    +0.000 NA
ATOM      4  C   UNL     1       2.460   6.862  19.113  0.00  0.00    +0.000 A 
ATOM      5  C   UNL     1       3.188   5.686  18.810  0.00  0.00    +0.000 A 
ATOM      6  C   UNL     1       3.104   4.602  19.715  0.00  0.00    +0.000 A 
ATOM      7  C   UNL     1       2.359   4.683  20.892  0.00  0.00    +0.000 A 
ATOM      8  C   UNL     1       1.709   5.866  21.210  0.00  0.00    +0.000 A 
ATOM      9  C   UNL     1       1.769   6.944  20.325  0.00  0.00    +0.000 A 
ATOM     10  C   UNL     1       1.121   8.220  20.673  0.00  0.00    +0.000 A 
ATOM     11  O   UNL     1       0.763   8.347  21.843  0.00  0.00    +0.000 OA
ENDROOT
BRANCH   1  19
ATOM     12  C   UNL     1      -1.028  14.469  23.709  0.00  0.00    +0.000 C 
ATOM     13  C   UNL     1      -1.693  15.321  22.634  0.00  0.00    +0.000 C 
ATOM     14  C   UNL     1      -1.132  15.094  21.223  0.00  0.00    +0.000 C 
ATOM     15  N   UNL     1      -1.778  13.991  20.516  0.00  0.00    +0.000 N 
ATOM     16  C   UNL     1      -1.100  12.807  20.340  0.00  0.00    +0.000 A 
ATOM     17  C   UNL     1      -1.383  12.024  19.228  0.00  0.00    +0.000 A 
ATOM     18  C   UNL     1      -0.675  10.849  18.988  0.00  0.00    +0.000 A 
ATOM     19  C   UNL     1       0.302  10.412  19.886  0.00  0.00    +0.000 A 
ATOM     20  C   UNL     1       0.519  11.264  20.972  0.00  0.00    +0.000 A 
ATOM     21  N   UNL     1      -0.130  12.438  21.199  0.00  0.00    +0.000 NA
ATOM     22  C   UNL     1      -3.239  13.973  20.579  0.00  0.00    +0.000 C 
ATOM     23  C   UNL     1      -3.770  14.204  22.009  0.00  0.00    +0.000 C 
ATOM     24  C   UNL     1      -3.843  12.933  22.851  0.00  0.00    +0.000 C 
ATOM     25  O   UNL     1      -3.127  15.281  22.707  0.00  0.00    +0.000 OA
ENDBRANCH   1  19
BRANCH   5  26
ATOM     26  C   UNL     1       4.034   5.568  17.593  0.00  0.00    +0.000 A 
ATOM     27  C   UNL     1       4.811   6.645  17.134  0.00  0.00    +0.000 A 
ATOM     28  C   UNL     1       5.575   6.551  15.968  0.00  0.00    +0.000 A 
ATOM     29  C   UNL     1       5.628   5.360  15.249  0.00  0.00    +0.000 A 
ATOM     30  C   UNL     1       4.873   4.275  15.686  0.00  0.00    +0.000 A 
ATOM     31  C   UNL     1       4.096   4.377  16.849  0.00  0.00    +0.000 A 
BRANCH  29  32
ATOM     32  O   UNL     1       6.393   5.414  14.128  0.00  0.00    +0.000 OA
BRANCH  32  33
ATOM     33  C   UNL     1       6.466   4.286  13.270  0.00  0.00    +0.000 C 
ATOM     34  F   UNL     1       5.298   3.954  12.684  0.00  0.00    +0.000 F 
ATOM     35  F   UNL     1       7.388   4.514  12.310  0.00  0.00    +0.000 F 
ATOM     36  F   UNL     1       6.875   3.224  14.001  0.00  0.00    +0.000 F 
ENDBRANCH  32  33
ENDBRANCH  29  32
ENDBRANCH   5  26
TORSDOF 4
ENDMDL
MODEL 8
REMARK VINA RESULT:      -8.8      0.968      1.145
REMARK  Name = 
REMARK  6 active torsions:
REMARK  status: ('A' for Active; 'I' for Inactive)
REMARK    1  A    between atoms: C_1  and  C_2
REMARK    2  A    between atoms: C_8  and  N_9
REMARK    3  A    between atoms: C_13  and  C_14
REMARK    4  A    between atoms: C_17  and  O_18
REMARK    5  A    between atoms: O_18  and  C_19
REMARK    6  A    between atoms: C_34  and  C_35
REMARK                            x       y       z     vdW  Elec       q    Type
REMARK                         _______ _______ _______ _____ _____    ______ ____
ROOT
ATOM      1  N   UNL     1       1.909   8.660  18.735  0.00  0.00    +0.000 N 
ATOM      2  C   UNL     1       2.618   8.364  17.592  0.00  0.00    +0.000 A 
ATOM      3  N   UNL     1       3.292   7.286  17.375  0.00  0.00    +0.000 NA
ATOM      4  C   UNL     1       3.298   6.274  18.347  0.00  0.00    +0.000 A 
ATOM      5  C   UNL     1       4.006   5.066  18.130  0.00  0.00    +0.000 A 
ATOM      6  C   UNL     1       3.862   4.032  19.083  0.00  0.00    +0.000 A 
ATOM      7  C   UNL     1       3.078   4.190  20.227  0.00  0.00    +0.000 A 
ATOM      8  C   UNL     1       2.449   5.403  20.463  0.00  0.00    +0.000 A 
ATOM      9  C   UNL     1       2.567   6.433  19.528  0.00  0.00    +0.000 A 
ATOM     10  C   UNL     1       1.941   7.741  19.789  0.00  0.00    +0.000 A 
ATOM     11  O   UNL     1       1.546   7.935  20.937  0.00  0.00    +0.000 OA
ENDROOT
BRANCH   1  19
ATOM     12  C   UNL     1       1.758  15.526  19.859  0.00  0.00    +0.000 C 
ATOM     13  C   UNL     1       0.293  15.771  19.518  0.00  0.00    +0.000 C 
ATOM     14  C   UNL     1      -0.301  14.745  18.542  0.00  0.00    +0.000 C 
ATOM     15  N   UNL     1      -0.825  13.554  19.206  0.00  0.00    +0.000 N 
ATOM     16  C   UNL     1      -0.135  12.368  19.116  0.00  0.00    +0.000 A 
ATOM     17  C   UNL     1      -0.839  11.170  19.175  0.00  0.00    +0.000 A 
ATOM     18  C   UNL     1      -0.180   9.953  19.029  0.00  0.00    +0.000 A 
ATOM     19  C   UNL     1       1.207   9.909  18.865  0.00  0.00    +0.000 A 
ATOM     20  C   UNL     1       1.827  11.160  18.816  0.00  0.00    +0.000 A 
ATOM     21  N   UNL     1       1.196  12.361  18.911  0.00  0.00    +0.000 NA
ATOM     22  C   UNL     1      -1.662  13.805  20.380  0.00  0.00    +0.000 C 
ATOM     23  C   UNL     1      -1.038  14.841  21.338  0.00  0.00    +0.000 C 
ATOM     24  C   UNL     1      -0.046  14.240  22.331  0.00  0.00    +0.000 C 
ATOM     25  O   UNL     1      -0.513  16.005  20.683  0.00  0.00    +0.000 OA
ENDBRANCH   1  19
BRANCH   5  26
ATOM     26  C   UNL     1       4.890   4.867  16.951  0.00  0.00    +0.000 A 
ATOM     27  C   UNL     1       4.485   4.085  15.856  0.00  0.00    +0.000 A 
ATOM     28  C   UNL     1       5.328   3.861  14.766  0.00  0.00    +0.000 A 
ATOM     29  C   UNL     1       6.588   4.453  14.710  0.00  0.00    +0.000 A 
ATOM     30  C   UNL     1       7.011   5.238  15.779  0.00  0.00    +0.000 A 
ATOM     31  C   UNL     1       6.167   5.449  16.879  0.00  0.00    +0.000 A 
BRANCH  29  32
ATOM     32  O   UNL     1       7.309   4.136  13.604  0.00  0.00    +0.000 OA
BRANCH  32  33
ATOM     33  C   UNL     1       6.643   3.884  12.376  0.00  0.00    +0.000 C 
ATOM     34  F   UNL     1       5.297   3.934  12.452  0.00  0.00    +0.000 F 
ATOM     35  F   UNL     1       7.062   4.773  11.450  0.00  0.00    +0.000 F 
ATOM     36  F   UNL     1       6.986   2.646  11.956  0.00  0.00    +0.000 F 
ENDBRANCH  32  33
ENDBRANCH  29  32
ENDBRANCH   5  26
TORSDOF 4
ENDMDL
MODEL 9
REMARK VINA RESULT:      -8.8      1.260      1.565
REMARK  Name = 
REMARK  6 active torsions:
REMARK  status: ('A' for Active; 'I' for Inactive)
REMARK    1  A    between atoms: C_1  and  C_2
REMARK    2  A    between atoms: C_8  and  N_9
REMARK    3  A    between atoms: C_13  and  C_14
REMARK    4  A    between atoms: C_17  and  O_18
REMARK    5  A    between atoms: O_18  and  C_19
REMARK    6  A    between atoms: C_34  and  C_35
REMARK                            x       y       z     vdW  Elec       q    Type
REMARK                         _______ _______ _______ _____ _____    ______ ____
ROOT
ATOM      1  N   UNL     1       0.887   9.574  19.761  0.00  0.00    +0.000 N 
ATOM      2  C   UNL     1       1.556   9.334  18.582  0.00  0.00    +0.000 A 
ATOM      3  N   UNL     1       2.217   8.267  18.288  0.00  0.00    +0.000 NA
ATOM      4  C   UNL     1       2.250   7.207  19.207  0.00  0.00    +0.000 A 
ATOM      5  C   UNL     1       2.944   6.009  18.905  0.00  0.00    +0.000 A 
ATOM      6  C   UNL     1       2.827   4.929  19.809  0.00  0.00    +0.000 A 
ATOM      7  C   UNL     1       2.082   5.031  20.985  0.00  0.00    +0.000 A 
ATOM      8  C   UNL     1       1.467   6.232  21.303  0.00  0.00    +0.000 A 
ATOM      9  C   UNL     1       1.559   7.308  20.418  0.00  0.00    +0.000 A 
ATOM     10  C   UNL     1       0.948   8.603  20.765  0.00  0.00    +0.000 A 
ATOM     11  O   UNL     1       0.592   8.740  21.934  0.00  0.00    +0.000 OA
ENDROOT
BRANCH   1  19
ATOM     12  C   UNL     1       0.213  15.758  22.883  0.00  0.00    +0.000 C 
ATOM     13  C   UNL     1      -0.942  16.299  22.048  0.00  0.00    +0.000 C 
ATOM     14  C   UNL     1      -1.027  15.700  20.637  0.00  0.00    +0.000 C 
ATOM     15  N   UNL     1      -1.789  14.455  20.583  0.00  0.00    +0.000 N 
ATOM     16  C   UNL     1      -1.127  13.261  20.416  0.00  0.00    +0.000 A 
ATOM     17  C   UNL     1      -1.776  12.213  19.774  0.00  0.00    +0.000 A 
ATOM     18  C   UNL     1      -1.117  11.010  19.536  0.00  0.00    +0.000 A 
ATOM     19  C   UNL     1       0.195  10.818  19.977  0.00  0.00    +0.000 A 
ATOM     20  C   UNL     1       0.765  11.925  20.609  0.00  0.00    +0.000 A 
ATOM     21  N   UNL     1       0.153  13.124  20.811  0.00  0.00    +0.000 NA
ATOM     22  C   UNL     1      -3.067  14.468  21.296  0.00  0.00    +0.000 C 
ATOM     23  C   UNL     1      -2.947  15.077  22.709  0.00  0.00    +0.000 C 
ATOM     24  C   UNL     1      -2.507  14.076  23.774  0.00  0.00    +0.000 C 
ATOM     25  O   UNL     1      -2.189  16.294  22.761  0.00  0.00    +0.000 OA
ENDBRANCH   1  19
BRANCH   5  26
ATOM     26  C   UNL     1       3.788   5.867  17.689  0.00  0.00    +0.000 A 
ATOM     27  C   UNL     1       4.402   6.979  17.090  0.00  0.00    +0.000 A 
ATOM     28  C   UNL     1       5.162   6.856  15.925  0.00  0.00    +0.000 A 
ATOM     29  C   UNL     1       5.375   5.606  15.347  0.00  0.00    +0.000 A 
ATOM     30  C   UNL     1       4.783   4.487  15.924  0.00  0.00    +0.000 A 
ATOM     31  C   UNL     1       4.009   4.617  17.086  0.00  0.00    +0.000 A 
BRANCH  29  32
ATOM     32  O   UNL     1       6.115   5.633  14.208  0.00  0.00    +0.000 OA
BRANCH  32  33
ATOM     33  C   UNL     1       7.210   4.743  14.058  0.00  0.00    +0.000 C 
ATOM     34  F   UNL     1       7.849   4.446  15.208  0.00  0.00    +0.000 F 
ATOM     35  F   UNL     1       6.780   3.598  13.488  0.00  0.00    +0.000 F 
ATOM     36  F   UNL     1       8.109   5.315  13.225  0.00  0.00    +0.000 F 
ENDBRANCH  32  33
ENDBRANCH  29  32
ENDBRANCH   5  26
TORSDOF 4
ENDMDL
