MODEL 1
REMARK VINA RESULT:      -7.3      0.000      0.000
REMARK  Name = 
REMARK  6 active torsions:
REMARK  status: ('A' for Active; 'I' for Inactive)
REMARK    1  A    between atoms: C_1  and  O_2
REMARK    2  A    between atoms: O_2  and  C_3
REMARK    3  A    between atoms: C_3  and  C_4
REMARK    4  A    between atoms: C_3  and  C_5
REMARK    5  A    between atoms: C_13  and  C_14
REMARK    6  A    between atoms: C_14  and  O_16
REMARK                            x       y       z     vdW  Elec       q    Type
REMARK                         _______ _______ _______ _____ _____    ______ ____
ROOT
ATOM      1  C   UNL     1       0.905  10.062  19.852  0.00  0.00    +0.000 A 
ATOM      2  C   UNL     1       1.395  10.365  18.570  0.00  0.00    +0.000 A 
ATOM      3  C   UNL     1       2.106   9.418  17.828  0.00  0.00    +0.000 A 
ATOM      4  C   UNL     1       2.331   8.148  18.353  0.00  0.00    +0.000 A 
ATOM      5  O   UNL     1       3.075   7.291  17.581  0.00  0.00    +0.000 OA
ATOM      6  C   UNL     1       3.372   6.053  18.089  0.00  0.00    +0.000 A 
ATOM      7  C   UNL     1       4.184   5.238  17.303  0.00  0.00    +0.000 A 
ATOM      8  C   UNL     1       4.524   3.958  17.746  0.00  0.00    +0.000 A 
ATOM      9  C   UNL     1       4.052   3.476  18.979  0.00  0.00    +0.000 A 
ATOM     10  C   UNL     1       3.231   4.290  19.763  0.00  0.00    +0.000 A 
ATOM     11  C   UNL     1       2.908   5.580  19.315  0.00  0.00    +0.000 A 
ATOM     12  C   UNL     1       2.074   6.473  20.136  0.00  0.00    +0.000 A 
ATOM     13  O   UNL     1       1.636   6.107  21.218  0.00  0.00    +0.000 OA
ATOM     14  C   UNL     1       1.821   7.823  19.607  0.00  0.00    +0.000 A 
ATOM     15  C   UNL     1       1.103   8.766  20.356  0.00  0.00    +0.000 A 
ENDROOT
BRANCH   1  16
ATOM     16  C   UNL     1       0.166  11.106  20.677  0.00  0.00    +0.000 C 
ATOM     17  C   UNL     1       0.641  12.508  20.302  0.00  0.00    +0.000 C 
BRANCH  16  19
ATOM     18  C   UNL     1      -0.774  10.784  22.861  0.00  0.00    +0.000 C 
ATOM     19  O   UNL     1       0.398  10.817  22.062  0.00  0.00    +0.000 OA
ENDBRANCH  16  19
ENDBRANCH   1  16
BRANCH   9  20
ATOM     20  C   UNL     1       4.419   2.086  19.355  0.00  0.00    +0.000 C 
ATOM     21  O   UNL     1       5.003   1.830  20.398  0.00  0.00    +0.000 OA
BRANCH  20  22
ATOM     22  O   UNL     1       4.018   1.132  18.494  0.00  0.00    +0.000 OA
ATOM     23  H   UNL     1       4.692   0.779  17.886  0.00  0.00    +0.000 HD
ENDBRANCH  20  22
ENDBRANCH   9  20
TORSDOF 4
ENDMDL
MODEL 2
REMARK VINA RESULT:      -7.2      2.468      3.909
REMARK  Name = 
REMARK  6 active torsions:
REMARK  status: ('A' for Active; 'I' for Inactive)
REMARK    1  A    between atoms: C_1  and  O_2
REMARK    2  A    between atoms: O_2  and  C_3
REMARK    3  A    between atoms: C_3  and  C_4
REMARK    4  A    between atoms: C_3  and  C_5
REMARK    5  A    between atoms: C_13  and  C_14
REMARK    6  A    between atoms: C_14  and  O_16
REMARK                            x       y       z     vdW  Elec       q    Type
REMARK                         _______ _______ _______ _____ _____    ______ ____
ROOT
ATOM      1  C   UNL     1       1.365   7.609  20.498  0.00  0.00    +0.000 A 
ATOM      2  C   UNL     1       1.310   6.320  21.056  0.00  0.00    +0.000 A 
ATOM      3  C   UNL     1       2.033   5.262  20.499  0.00  0.00    +0.000 A 
ATOM      4  C   UNL     1       2.829   5.478  19.377  0.00  0.00    +0.000 A 
ATOM      5  O   UNL     1       3.473   4.379  18.864  0.00  0.00    +0.000 OA
ATOM      6  C   UNL     1       4.216   4.537  17.723  0.00  0.00    +0.000 A 
ATOM      7  C   UNL     1       4.798   3.386  17.197  0.00  0.00    +0.000 A 
ATOM      8  C   UNL     1       5.580   3.465  16.043  0.00  0.00    +0.000 A 
ATOM      9  C   UNL     1       5.792   4.699  15.403  0.00  0.00    +0.000 A 
ATOM     10  C   UNL     1       5.215   5.854  15.935  0.00  0.00    +0.000 A 
ATOM     11  C   UNL     1       4.420   5.761  17.087  0.00  0.00    +0.000 A 
ATOM     12  C   UNL     1       3.770   6.955  17.650  0.00  0.00    +0.000 A 
ATOM     13  O   UNL     1       3.920   8.055  17.135  0.00  0.00    +0.000 OA
ATOM     14  C   UNL     1       2.920   6.757  18.836  0.00  0.00    +0.000 A 
ATOM     15  C   UNL     1       2.202   7.824  19.391  0.00  0.00    +0.000 A 
ENDROOT
BRANCH   1  16
ATOM     16  C   UNL     1       0.546   8.752  21.081  0.00  0.00    +0.000 C 
ATOM     17  C   UNL     1       0.764  10.026  20.268  0.00  0.00    +0.000 C 
BRANCH  16  19
ATOM     18  C   UNL     1      -0.029   9.567  23.263  0.00  0.00    +0.000 C 
ATOM     19  O   UNL     1       0.937   8.919  22.450  0.00  0.00    +0.000 OA
ENDBRANCH  16  19
ENDBRANCH   1  16
BRANCH   9  20
ATOM     20  C   UNL     1       6.675   4.705  14.208  0.00  0.00    +0.000 C 
ATOM     21  O   UNL     1       6.436   4.024  13.222  0.00  0.00    +0.000 OA
BRANCH  20  22
ATOM     22  O   UNL     1       7.723   5.548  14.272  0.00  0.00    +0.000 OA
ATOM     23  H   UNL     1       8.609   5.146  14.304  0.00  0.00    +0.000 HD
ENDBRANCH  20  22
ENDBRANCH   9  20
TORSDOF 4
ENDMDL
MODEL 3
REMARK VINA RESULT:      -7.2      1.911      7.731
REMARK  Name = 
REMARK  6 active torsions:
REMARK  status: ('A' for Active; 'I' for Inactive)
REMARK    1  A    between atoms: C_1  and  O_2
REMARK    2  A    between atoms: O_2  and  C_3
REMARK    3  A    between atoms: C_3  and  C_4
REMARK    4  A    between atoms: C_3  and  C_5
REMARK    5  A    between atoms: C_13  and  C_14
REMARK    6  A    between atoms: C_14  and  O_16
REMARK                            x       y       z     vdW  Elec       q    Type
REMARK                         _______ _______ _______ _____ _____    ______ ____
ROOT
ATOM      1  C   UNL     1       3.603   5.233  18.882  0.00  0.00    +0.000 A 
ATOM      2  C   UNL     1       3.030   4.930  20.129  0.00  0.00    +0.000 A 
ATOM      3  C   UNL     1       2.160   5.823  20.759  0.00  0.00    +0.000 A 
ATOM      4  C   UNL     1       1.841   7.032  20.147  0.00  0.00    +0.000 A 
ATOM      5  O   UNL     1       1.014   7.873  20.849  0.00  0.00    +0.000 OA
ATOM      6  C   UNL     1       0.726   9.100  20.309  0.00  0.00    +0.000 A 
ATOM      7  C   UNL     1      -0.061   9.949  21.083  0.00  0.00    +0.000 A 
ATOM      8  C   UNL     1      -0.408  11.213  20.598  0.00  0.00    +0.000 A 
ATOM      9  C   UNL     1       0.028  11.639  19.332  0.00  0.00    +0.000 A 
ATOM     10  C   UNL     1       0.811  10.785  18.553  0.00  0.00    +0.000 A 
ATOM     11  C   UNL     1       1.165   9.523  19.055  0.00  0.00    +0.000 A 
ATOM     12  C   UNL     1       2.018   8.615  18.272  0.00  0.00    +0.000 A 
ATOM     13  O   UNL     1       2.426   8.935  17.164  0.00  0.00    +0.000 OA
ATOM     14  C   UNL     1       2.373   7.329  18.895  0.00  0.00    +0.000 A 
ATOM     15  C   UNL     1       3.244   6.437  18.256  0.00  0.00    +0.000 A 
ENDROOT
BRANCH   1  16
ATOM     16  C   UNL     1       4.583   4.278  18.216  0.00  0.00    +0.000 C 
ATOM     17  C   UNL     1       3.926   2.917  17.992  0.00  0.00    +0.000 C 
BRANCH  16  19
ATOM     18  C   UNL     1       6.609   5.300  18.996  0.00  0.00    +0.000 C 
ATOM     19  O   UNL     1       5.741   4.179  19.056  0.00  0.00    +0.000 OA
ENDBRANCH  16  19
ENDBRANCH   1  16
BRANCH   9  20
ATOM     20  C   UNL     1      -0.423  12.978  18.870  0.00  0.00    +0.000 C 
ATOM     21  O   UNL     1      -0.266  13.984  19.546  0.00  0.00    +0.000 OA
BRANCH  20  22
ATOM     22  O   UNL     1      -0.969  13.008  17.639  0.00  0.00    +0.000 OA
ATOM     23  H   UNL     1      -1.415  12.197  17.337  0.00  0.00    +0.000 HD
ENDBRANCH  20  22
ENDBRANCH   9  20
TORSDOF 4
ENDMDL
MODEL 4
REMARK VINA RESULT:      -7.1      1.788      7.741
REMARK  Name = 
REMARK  6 active torsions:
REMARK  status: ('A' for Active; 'I' for Inactive)
REMARK    1  A    between atoms: C_1  and  O_2
REMARK    2  A    between atoms: O_2  and  C_3
REMARK    3  A    between atoms: C_3  and  C_4
REMARK    4  A    between atoms: C_3  and  C_5
REMARK    5  A    between atoms: C_13  and  C_14
REMARK    6  A    between atoms: C_14  and  O_16
REMARK                            x       y       z     vdW  Elec       q    Type
REMARK                         _______ _______ _______ _____ _____    ______ ____
ROOT
ATOM      1  C   UNL     1       3.488   4.970  19.005  0.00  0.00    +0.000 A 
ATOM      2  C   UNL     1       2.881   4.757  20.255  0.00  0.00    +0.000 A 
ATOM      3  C   UNL     1       2.063   5.730  20.834  0.00  0.00    +0.000 A 
ATOM      4  C   UNL     1       1.833   6.932  20.169  0.00  0.00    +0.000 A 
ATOM      5  O   UNL     1       1.054   7.853  20.824  0.00  0.00    +0.000 OA
ATOM      6  C   UNL     1       0.855   9.073  20.230  0.00  0.00    +0.000 A 
ATOM      7  C   UNL     1       0.115  10.003  20.958  0.00  0.00    +0.000 A 
ATOM      8  C   UNL     1      -0.141  11.265  20.417  0.00  0.00    +0.000 A 
ATOM      9  C   UNL     1       0.338  11.610  19.141  0.00  0.00    +0.000 A 
ATOM     10  C   UNL     1       1.073  10.674  18.409  0.00  0.00    +0.000 A 
ATOM     11  C   UNL     1       1.336   9.415  18.968  0.00  0.00    +0.000 A 
ATOM     12  C   UNL     1       2.137   8.421  18.235  0.00  0.00    +0.000 A 
ATOM     13  O   UNL     1       2.579   8.667  17.121  0.00  0.00    +0.000 OA
ATOM     14  C   UNL     1       2.399   7.141  18.915  0.00  0.00    +0.000 A 
ATOM     15  C   UNL     1       3.217   6.169  18.325  0.00  0.00    +0.000 A 
ENDROOT
BRANCH   1  16
ATOM     16  C   UNL     1       4.411   3.926  18.393  0.00  0.00    +0.000 C 
ATOM     17  C   UNL     1       4.216   3.872  16.879  0.00  0.00    +0.000 C 
BRANCH  16  19
ATOM     18  C   UNL     1       3.448   1.739  18.177  0.00  0.00    +0.000 C 
ATOM     19  O   UNL     1       4.123   2.666  19.013  0.00  0.00    +0.000 OA
ENDBRANCH  16  19
ENDBRANCH   1  16
BRANCH   9  20
ATOM     20  C   UNL     1      -0.019  12.955  18.619  0.00  0.00    +0.000 C 
ATOM     21  O   UNL     1       0.508  13.974  19.041  0.00  0.00    +0.000 OA
BRANCH  20  22
ATOM     22  O   UNL     1      -0.920  12.963  17.619  0.00  0.00    +0.000 OA
ATOM     23  H   UNL     1      -0.593  13.206  16.735  0.00  0.00    +0.000 HD
ENDBRANCH  20  22
ENDBRANCH   9  20
TORSDOF 4
ENDMDL
MODEL 5
REMARK VINA RESULT:      -7.1      2.414      7.612
REMARK  Name = 
REMARK  6 active torsions:
REMARK  status: ('A' for Active; 'I' for Inactive)
REMARK    1  A    between atoms: C_1  and  O_2
REMARK    2  A    between atoms: O_2  and  C_3
REMARK    3  A    between atoms: C_3  and  C_4
REMARK    4  A    between atoms: C_3  and  C_5
REMARK    5  A    between atoms: C_13  and  C_14
REMARK    6  A    between atoms: C_14  and  O_16
REMARK                            x       y       z     vdW  Elec       q    Type
REMARK                         _______ _______ _______ _____ _____    ______ ____
ROOT
ATOM      1  C   UNL     1       4.212   6.146  17.462  0.00  0.00    +0.000 A 
ATOM      2  C   UNL     1       4.027   5.301  18.570  0.00  0.00    +0.000 A 
ATOM      3  C   UNL     1       3.178   5.664  19.619  0.00  0.00    +0.000 A 
ATOM      4  C   UNL     1       2.494   6.875  19.573  0.00  0.00    +0.000 A 
ATOM      5  O   UNL     1       1.714   7.178  20.662  0.00  0.00    +0.000 OA
ATOM      6  C   UNL     1       1.073   8.390  20.683  0.00  0.00    +0.000 A 
ATOM      7  C   UNL     1       0.347   8.687  21.835  0.00  0.00    +0.000 A 
ATOM      8  C   UNL     1      -0.343   9.897  21.930  0.00  0.00    +0.000 A 
ATOM      9  C   UNL     1      -0.317  10.823  20.873  0.00  0.00    +0.000 A 
ATOM     10  C   UNL     1       0.405  10.522  19.716  0.00  0.00    +0.000 A 
ATOM     11  C   UNL     1       1.106   9.309  19.637  0.00  0.00    +0.000 A 
ATOM     12  C   UNL     1       1.904   8.980  18.445  0.00  0.00    +0.000 A 
ATOM     13  O   UNL     1       1.962   9.748  17.494  0.00  0.00    +0.000 OA
ATOM     14  C   UNL     1       2.640   7.705  18.465  0.00  0.00    +0.000 A 
ATOM     15  C   UNL     1       3.487   7.347  17.407  0.00  0.00    +0.000 A 
ENDROOT
BRANCH   1  16
ATOM     16  C   UNL     1       5.168   5.769  16.339  0.00  0.00    +0.000 C 
ATOM     17  C   UNL     1       5.739   4.373  16.578  0.00  0.00    +0.000 C 
BRANCH  16  19
ATOM     18  C   UNL     1       7.221   6.606  17.255  0.00  0.00    +0.000 C 
ATOM     19  O   UNL     1       6.198   6.765  16.285  0.00  0.00    +0.000 OA
ENDBRANCH  16  19
ENDBRANCH   1  16
BRANCH   9  20
ATOM     20  C   UNL     1      -1.117  12.066  21.033  0.00  0.00    +0.000 C 
ATOM     21  O   UNL     1      -1.912  12.438  20.184  0.00  0.00    +0.000 OA
BRANCH  20  22
ATOM     22  O   UNL     1      -0.938  12.718  22.197  0.00  0.00    +0.000 OA
ATOM     23  H   UNL     1      -0.742  13.671  22.141  0.00  0.00    +0.000 HD
ENDBRANCH  20  22
ENDBRANCH   9  20
TORSDOF 4
ENDMDL
MODEL 6
REMARK VINA RESULT:      -7.1      2.421      3.811
REMARK  Name = 
REMARK  6 active torsions:
REMARK  status: ('A' for Active; 'I' for Inactive)
REMARK    1  A    between atoms: C_1  and  O_2
REMARK    2  A    between atoms: O_2  and  C_3
REMARK    3  A    between atoms: C_3  and  C_4
REMARK    4  A    between atoms: C_3  and  C_5
REMARK    5  A    between atoms: C_13  and  C_14
REMARK    6  A    between atoms: C_14  and  O_16
REMARK                            x       y       z     vdW  Elec       q    Type
REMARK                         _______ _______ _______ _____ _____    ______ ____
ROOT
ATOM      1  C   UNL     1       1.254   8.083  20.368  0.00  0.00    +0.000 A 
ATOM      2  C   UNL     1       1.174   6.846  21.029  0.00  0.00    +0.000 A 
ATOM      3  C   UNL     1       1.885   5.735  20.567  0.00  0.00    +0.000 A 
ATOM      4  C   UNL     1       2.694   5.846  19.440  0.00  0.00    +0.000 A 
ATOM      5  O   UNL     1       3.325   4.699  19.025  0.00  0.00    +0.000 OA
ATOM      6  C   UNL     1       4.081   4.752  17.882  0.00  0.00    +0.000 A 
ATOM      7  C   UNL     1       4.648   3.553  17.458  0.00  0.00    +0.000 A 
ATOM      8  C   UNL     1       5.442   3.525  16.308  0.00  0.00    +0.000 A 
ATOM      9  C   UNL     1       5.678   4.699  15.572  0.00  0.00    +0.000 A 
ATOM     10  C   UNL     1       5.115   5.903  16.002  0.00  0.00    +0.000 A 
ATOM     11  C   UNL     1       4.309   5.916  17.150  0.00  0.00    +0.000 A 
ATOM     12  C   UNL     1       3.674   7.162  17.607  0.00  0.00    +0.000 A 
ATOM     13  O   UNL     1       3.845   8.213  17.005  0.00  0.00    +0.000 OA
ATOM     14  C   UNL     1       2.810   7.075  18.796  0.00  0.00    +0.000 A 
ATOM     15  C   UNL     1       2.104   8.195  19.256  0.00  0.00    +0.000 A 
ENDROOT
BRANCH   1  16
ATOM     16  C   UNL     1       0.448   9.282  20.848  0.00  0.00    +0.000 C 
ATOM     17  C   UNL     1      -0.308   8.932  22.128  0.00  0.00    +0.000 C 
BRANCH  16  19
ATOM     18  C   UNL     1      -0.384  11.039  19.442  0.00  0.00    +0.000 C 
ATOM     19  O   UNL     1      -0.442   9.665  19.790  0.00  0.00    +0.000 OA
ENDBRANCH  16  19
ENDBRANCH   1  16
BRANCH   9  20
ATOM     20  C   UNL     1       6.572   4.594  14.389  0.00  0.00    +0.000 C 
ATOM     21  O   UNL     1       7.490   5.379  14.200  0.00  0.00    +0.000 OA
BRANCH  20  22
ATOM     22  O   UNL     1       6.330   3.550  13.576  0.00  0.00    +0.000 OA
ATOM     23  H   UNL     1       5.786   3.725  12.787  0.00  0.00    +0.000 HD
ENDBRANCH  20  22
ENDBRANCH   9  20
TORSDOF 4
ENDMDL
MODEL 7
REMARK VINA RESULT:      -7.0      0.814      1.131
REMARK  Name = 
REMARK  6 active torsions:
REMARK  status: ('A' for Active; 'I' for Inactive)
REMARK    1  A    between atoms: C_1  and  O_2
REMARK    2  A    between atoms: O_2  and  C_3
REMARK    3  A    between atoms: C_3  and  C_4
REMARK    4  A    between atoms: C_3  and  C_5
REMARK    5  A    between atoms: C_13  and  C_14
REMARK    6  A    between atoms: C_14  and  O_16
REMARK                            x       y       z     vdW  Elec       q    Type
REMARK                         _______ _______ _______ _____ _____    ______ ____
ROOT
ATOM      1  C   UNL     1       0.791  10.249  19.884  0.00  0.00    +0.000 A 
ATOM      2  C   UNL     1       1.311  10.588  18.623  0.00  0.00    +0.000 A 
ATOM      3  C   UNL     1       2.049   9.665  17.876  0.00  0.00    +0.000 A 
ATOM      4  C   UNL     1       2.271   8.385  18.376  0.00  0.00    +0.000 A 
ATOM      5  O   UNL     1       3.041   7.552  17.602  0.00  0.00    +0.000 OA
ATOM      6  C   UNL     1       3.336   6.304  18.087  0.00  0.00    +0.000 A 
ATOM      7  C   UNL     1       4.174   5.516  17.303  0.00  0.00    +0.000 A 
ATOM      8  C   UNL     1       4.513   4.227  17.722  0.00  0.00    +0.000 A 
ATOM      9  C   UNL     1       4.014   3.712  18.931  0.00  0.00    +0.000 A 
ATOM     10  C   UNL     1       3.167   4.500  19.714  0.00  0.00    +0.000 A 
ATOM     11  C   UNL     1       2.844   5.798  19.289  0.00  0.00    +0.000 A 
ATOM     12  C   UNL     1       1.983   6.664  20.110  0.00  0.00    +0.000 A 
ATOM     13  O   UNL     1       1.520   6.268  21.171  0.00  0.00    +0.000 OA
ATOM     14  C   UNL     1       1.732   8.025  19.607  0.00  0.00    +0.000 A 
ATOM     15  C   UNL     1       0.988   8.943  20.361  0.00  0.00    +0.000 A 
ENDROOT
BRANCH   1  16
ATOM     16  C   UNL     1       0.023  11.268  20.715  0.00  0.00    +0.000 C 
ATOM     17  C   UNL     1      -0.240  10.716  22.115  0.00  0.00    +0.000 C 
BRANCH  16  19
ATOM     18  C   UNL     1      -1.638  12.910  20.168  0.00  0.00    +0.000 C 
ATOM     19  O   UNL     1      -1.196  11.570  20.023  0.00  0.00    +0.000 OA
ENDBRANCH  16  19
ENDBRANCH   1  16
BRANCH   9  20
ATOM     20  C   UNL     1       4.383   2.316  19.282  0.00  0.00    +0.000 C 
ATOM     21  O   UNL     1       4.940   2.039  20.334  0.00  0.00    +0.000 OA
BRANCH  20  22
ATOM     22  O   UNL     1       4.015   1.381  18.387  0.00  0.00    +0.000 OA
ATOM     23  H   UNL     1       3.456   0.654  18.715  0.00  0.00    +0.000 HD
ENDBRANCH  20  22
ENDBRANCH   9  20
TORSDOF 4
ENDMDL
MODEL 8
REMARK VINA RESULT:      -7.0      1.955      3.151
REMARK  Name = 
REMARK  6 active torsions:
REMARK  status: ('A' for Active; 'I' for Inactive)
REMARK    1  A    between atoms: C_1  and  O_2
REMARK    2  A    between atoms: O_2  and  C_3
REMARK    3  A    between atoms: C_3  and  C_4
REMARK    4  A    between atoms: C_3  and  C_5
REMARK    5  A    between atoms: C_13  and  C_14
REMARK    6  A    between atoms: C_14  and  O_16
REMARK                            x       y       z     vdW  Elec       q    Type
REMARK                         _______ _______ _______ _____ _____    ______ ____
ROOT
ATOM      1  C   UNL     1       0.288   9.745  19.840  0.00  0.00    +0.000 A 
ATOM      2  C   UNL     1       0.276   8.958  21.005  0.00  0.00    +0.000 A 
ATOM      3  C   UNL     1       1.104   7.839  21.128  0.00  0.00    +0.000 A 
ATOM      4  C   UNL     1       1.965   7.493  20.090  0.00  0.00    +0.000 A 
ATOM      5  O   UNL     1       2.713   6.357  20.270  0.00  0.00    +0.000 OA
ATOM      6  C   UNL     1       3.527   5.947  19.246  0.00  0.00    +0.000 A 
ATOM      7  C   UNL     1       4.218   4.753  19.442  0.00  0.00    +0.000 A 
ATOM      8  C   UNL     1       5.077   4.274  18.450  0.00  0.00    +0.000 A 
ATOM      9  C   UNL     1       5.255   4.985  17.251  0.00  0.00    +0.000 A 
ATOM     10  C   UNL     1       4.568   6.185  17.058  0.00  0.00    +0.000 A 
ATOM     11  C   UNL     1       3.698   6.651  18.055  0.00  0.00    +0.000 A 
ATOM     12  C   UNL     1       2.934   7.894  17.865  0.00  0.00    +0.000 A 
ATOM     13  O   UNL     1       3.050   8.553  16.841  0.00  0.00    +0.000 OA
ATOM     14  C   UNL     1       2.013   8.284  18.946  0.00  0.00    +0.000 A 
ATOM     15  C   UNL     1       1.189   9.410  18.816  0.00  0.00    +0.000 A 
ENDROOT
BRANCH   1  16
ATOM     16  C   UNL     1      -0.643  10.939  19.690  0.00  0.00    +0.000 C 
ATOM     17  C   UNL     1      -1.617  10.708  18.536  0.00  0.00    +0.000 C 
BRANCH  16  19
ATOM     18  C   UNL     1      -0.347  13.011  18.516  0.00  0.00    +0.000 C 
ATOM     19  O   UNL     1       0.166  12.104  19.479  0.00  0.00    +0.000 OA
ENDBRANCH  16  19
ENDBRANCH   1  16
BRANCH   9  20
ATOM     20  C   UNL     1       6.222   4.432  16.267  0.00  0.00    +0.000 C 
ATOM     21  O   UNL     1       7.228   5.041  15.935  0.00  0.00    +0.000 OA
BRANCH  20  22
ATOM     22  O   UNL     1       5.936   3.199  15.810  0.00  0.00    +0.000 OA
ATOM     23  H   UNL     1       6.688   2.651  15.522  0.00  0.00    +0.000 HD
ENDBRANCH  20  22
ENDBRANCH   9  20
TORSDOF 4
ENDMDL
MODEL 9
REMARK VINA RESULT:      -7.0      1.685      3.173
REMARK  Name = 
REMARK  6 active torsions:
REMARK  status: ('A' for Active; 'I' for Inactive)
REMARK    1  A    between atoms: C_1  and  O_2
REMARK    2  A    between atoms: O_2  and  C_3
REMARK    3  A    between atoms: C_3  and  C_4
REMARK    4  A    between atoms: C_3  and  C_5
REMARK    5  A    between atoms: C_13  and  C_14
REMARK    6  A    between atoms: C_14  and  O_16
REMARK                            x       y       z     vdW  Elec       q    Type
REMARK                         _______ _______ _______ _____ _____    ______ ____
ROOT
ATOM      1  C   UNL     1      -0.146  10.824  20.309  0.00  0.00    +0.000 A 
ATOM      2  C   UNL     1      -0.264  10.088  21.501  0.00  0.00    +0.000 A 
ATOM      3  C   UNL     1       0.366   8.849  21.648  0.00  0.00    +0.000 A 
ATOM      4  C   UNL     1       1.131   8.329  20.608  0.00  0.00    +0.000 A 
ATOM      5  O   UNL     1       1.681   7.089  20.814  0.00  0.00    +0.000 OA
ATOM      6  C   UNL     1       2.390   6.514  19.790  0.00  0.00    +0.000 A 
ATOM      7  C   UNL     1       2.873   5.228  20.016  0.00  0.00    +0.000 A 
ATOM      8  C   UNL     1       3.615   4.578  19.026  0.00  0.00    +0.000 A 
ATOM      9  C   UNL     1       3.883   5.211  17.800  0.00  0.00    +0.000 A 
ATOM     10  C   UNL     1       3.404   6.504  17.577  0.00  0.00    +0.000 A 
ATOM     11  C   UNL     1       2.649   7.141  18.573  0.00  0.00    +0.000 A 
ATOM     12  C   UNL     1       2.101   8.489  18.353  0.00  0.00    +0.000 A 
ATOM     13  O   UNL     1       2.304   9.087  17.305  0.00  0.00    +0.000 OA
ATOM     14  C   UNL     1       1.286   9.064  19.436  0.00  0.00    +0.000 A 
ATOM     15  C   UNL     1       0.661  10.309  19.281  0.00  0.00    +0.000 A 
ENDROOT
BRANCH   1  16
ATOM     16  C   UNL     1      -0.865  12.154  20.134  0.00  0.00    +0.000 C 
ATOM     17  C   UNL     1      -1.976  12.021  19.095  0.00  0.00    +0.000 C 
BRANCH  16  19
ATOM     18  C   UNL     1      -0.212  13.852  18.570  0.00  0.00    +0.000 C 
ATOM     19  O   UNL     1       0.110  13.133  19.751  0.00  0.00    +0.000 OA
ENDBRANCH  16  19
ENDBRANCH   1  16
BRANCH   9  20
ATOM     20  C   UNL     1       4.718   4.471  16.818  0.00  0.00    +0.000 C 
ATOM     21  O   UNL     1       5.123   4.993  15.790  0.00  0.00    +0.000 OA
BRANCH  20  22
ATOM     22  O   UNL     1       5.036   3.211  17.167  0.00  0.00    +0.000 OA
ATOM     23  H   UNL     1       4.986   2.991  18.115  0.00  0.00    +0.000 HD
ENDBRANCH  20  22
ENDBRANCH   9  20
TORSDOF 4
ENDMDL
