MODEL 1
REMARK VINA RESULT:      -8.2      0.000      0.000
REMARK  Name = 
REMARK  11 active torsions:
REMARK  status: ('A' for Active; 'I' for Inactive)
REMARK    1  A    between atoms: C_1  and  C_2
REMARK    2  A    between atoms: C_2  and  C_3
REMARK    3  A    between atoms: C_3  and  C_4
REMARK    4  A    between atoms: N_6  and  C_7
REMARK    5  A    between atoms: C_12  and  N_13
REMARK    6  A    between atoms: N_13  and  C_14
REMARK    7  A    between atoms: C_14  and  C_15
REMARK    8  A    between atoms: C_18  and  C_19
REMARK    9  A    between atoms: C_24  and  C_25
REMARK   10  A    between atoms: C_25  and  O_27
REMARK   11  A    between atoms: O_27  and  C_28
REMARK                            x       y       z     vdW  Elec       q    Type
REMARK                         _______ _______ _______ _____ _____    ______ ____
ROOT
ATOM      1  C   UNL     1       0.606   9.606  21.090  0.00  0.00    +0.000 C 
ENDROOT
BRANCH   1   2
ATOM      2  C   UNL     1       1.288   8.624  20.167  0.00  0.00    +0.000 A 
ATOM      3  C   UNL     1       1.744   7.394  20.648  0.00  0.00    +0.000 A 
ATOM      4  C   UNL     1       2.473   6.532  19.821  0.00  0.00    +0.000 A 
ATOM      5  C   UNL     1       2.832   6.894  18.513  0.00  0.00    +0.000 A 
ATOM      6  C   UNL     1       2.312   8.114  18.031  0.00  0.00    +0.000 A 
ATOM      7  C   UNL     1       1.540   8.959  18.835  0.00  0.00    +0.000 A 
BRANCH   5   8
ATOM      8  C   UNL     1       3.716   6.048  17.661  0.00  0.00    +0.000 A 
ATOM      9  C   UNL     1       4.905   6.624  17.146  0.00  0.00    +0.000 A 
ATOM     10  C   UNL     1       5.817   5.900  16.370  0.00  0.00    +0.000 A 
ATOM     11  C   UNL     1       5.559   4.574  16.057  0.00  0.00    +0.000 A 
ATOM     12  C   UNL     1       4.396   3.975  16.529  0.00  0.00    +0.000 A 
ATOM     13  C   UNL     1       3.479   4.692  17.329  0.00  0.00    +0.000 A 
BRANCH  13  14
ATOM     14  C   UNL     1       2.321   3.907  17.844  0.00  0.00    +0.000 C 
ATOM     15  O   UNL     1       1.180   3.969  17.425  0.00  0.00    +0.000 OA
BRANCH  14  16
ATOM     16  O   UNL     1       2.754   3.117  18.864  0.00  0.00    +0.000 OA
ATOM     17  C   UNL     1       1.719   2.400  19.543  0.00  0.00    +0.000 C 
ENDBRANCH  14  16
ENDBRANCH  13  14
ENDBRANCH   5   8
ENDBRANCH   1   2
BRANCH   1  18
ATOM     18  N   UNL     1      -0.513  10.228  20.374  0.00  0.00    +0.000 N 
ATOM     19  H   UNL     1      -1.386  10.044  20.853  0.00  0.00    +0.000 HD
BRANCH  18  25
ATOM     20  C   UNL     1      -0.588  12.236  18.972  0.00  0.00    +0.000 A 
ATOM     21  C   UNL     1      -0.444  13.625  18.892  0.00  0.00    +0.000 A 
ATOM     22  C   UNL     1      -0.026  14.352  19.999  0.00  0.00    +0.000 A 
ATOM     23  C   UNL     1       0.219  13.671  21.167  0.00  0.00    +0.000 A 
ATOM     24  N   UNL     1       0.056  12.340  21.303  0.00  0.00    +0.000 NA
ATOM     25  C   UNL     1      -0.355  11.624  20.225  0.00  0.00    +0.000 A 
BRANCH  20  28
ATOM     26  C   UNL     1      -2.268  11.210  17.433  0.00  0.00    +0.000 C 
ATOM     27  O   UNL     1      -3.281  11.711  17.907  0.00  0.00    +0.000 OA
ATOM     28  N   UNL     1      -0.966  11.453  17.844  0.00  0.00    +0.000 N 
ATOM     29  H   UNL     1      -0.212  11.225  17.206  0.00  0.00    +0.000 HD
BRANCH  26  30
ATOM     30  C   UNL     1      -2.391  10.222  16.289  0.00  0.00    +0.000 C 
BRANCH  30  32
ATOM     31  C   UNL     1      -3.379  10.017  13.953  0.00  0.00    +0.000 C 
ATOM     32  C   UNL     1      -3.586  10.500  15.382  0.00  0.00    +0.000 C 
ENDBRANCH  30  32
ENDBRANCH  26  30
ENDBRANCH  20  28
ENDBRANCH  18  25
ENDBRANCH   1  18
TORSDOF 9
ENDMDL
MODEL 2
REMARK VINA RESULT:      -8.1      3.166      9.023
REMARK  Name = 
REMARK  11 active torsions:
REMARK  status: ('A' for Active; 'I' for Inactive)
REMARK    1  A    between atoms: C_1  and  C_2
REMARK    2  A    between atoms: C_2  and  C_3
REMARK    3  A    between atoms: C_3  and  C_4
REMARK    4  A    between atoms: N_6  and  C_7
REMARK    5  A    between atoms: C_12  and  N_13
REMARK    6  A    between atoms: N_13  and  C_14
REMARK    7  A    between atoms: C_14  and  C_15
REMARK    8  A    between atoms: C_18  and  C_19
REMARK    9  A    between atoms: C_24  and  C_25
REMARK   10  A    between atoms: C_25  and  O_27
REMARK   11  A    between atoms: O_27  and  C_28
REMARK                            x       y       z     vdW  Elec       q    Type
REMARK                         _______ _______ _______ _____ _____    ______ ____
ROOT
ATOM      1  C   UNL     1       3.486   6.508  18.787  0.00  0.00    +0.000 C 
ENDROOT
BRANCH   1   2
ATOM      2  C   UNL     1       2.510   7.645  18.978  0.00  0.00    +0.000 A 
ATOM      3  C   UNL     1       1.808   7.787  20.178  0.00  0.00    +0.000 A 
ATOM      4  C   UNL     1       0.824   8.771  20.316  0.00  0.00    +0.000 A 
ATOM      5  C   UNL     1       0.458   9.601  19.245  0.00  0.00    +0.000 A 
ATOM      6  C   UNL     1       1.219   9.479  18.063  0.00  0.00    +0.000 A 
ATOM      7  C   UNL     1       2.238   8.531  17.934  0.00  0.00    +0.000 A 
BRANCH   5   8
ATOM      8  C   UNL     1      -0.675  10.569  19.330  0.00  0.00    +0.000 A 
ATOM      9  C   UNL     1      -1.733  10.449  18.395  0.00  0.00    +0.000 A 
ATOM     10  C   UNL     1      -2.856  11.284  18.419  0.00  0.00    +0.000 A 
ATOM     11  C   UNL     1      -2.950  12.290  19.368  0.00  0.00    +0.000 A 
ATOM     12  C   UNL     1      -1.926  12.452  20.295  0.00  0.00    +0.000 A 
ATOM     13  C   UNL     1      -0.797  11.603  20.290  0.00  0.00    +0.000 A 
BRANCH  13  14
ATOM     14  C   UNL     1       0.183  11.826  21.391  0.00  0.00    +0.000 C 
ATOM     15  O   UNL     1       1.371  12.047  21.250  0.00  0.00    +0.000 OA
BRANCH  14  16
ATOM     16  O   UNL     1      -0.475  11.733  22.580  0.00  0.00    +0.000 OA
ATOM     17  C   UNL     1      -0.658  10.398  23.058  0.00  0.00    +0.000 C 
ENDBRANCH  14  16
ENDBRANCH  13  14
ENDBRANCH   5   8
ENDBRANCH   1   2
BRANCH   1  18
ATOM     18  N   UNL     1       3.024   5.672  17.673  0.00  0.00    +0.000 N 
ATOM     19  H   UNL     1       3.700   5.683  16.919  0.00  0.00    +0.000 HD
BRANCH  18  25
ATOM     20  C   UNL     1       3.873   3.463  18.309  0.00  0.00    +0.000 A 
ATOM     21  C   UNL     1       3.577   2.159  18.717  0.00  0.00    +0.000 A 
ATOM     22  C   UNL     1       2.258   1.734  18.808  0.00  0.00    +0.000 A 
ATOM     23  C   UNL     1       1.265   2.634  18.507  0.00  0.00    +0.000 A 
ATOM     24  N   UNL     1       1.499   3.912  18.149  0.00  0.00    +0.000 NA
ATOM     25  C   UNL     1       2.787   4.334  18.060  0.00  0.00    +0.000 A 
BRANCH  20  28
ATOM     26  C   UNL     1       5.827   4.222  16.951  0.00  0.00    +0.000 C 
ATOM     27  O   UNL     1       5.289   4.246  15.851  0.00  0.00    +0.000 OA
ATOM     28  N   UNL     1       5.213   3.919  18.156  0.00  0.00    +0.000 N 
ATOM     29  H   UNL     1       5.668   4.214  19.014  0.00  0.00    +0.000 HD
BRANCH  26  30
ATOM     30  C   UNL     1       7.306   4.543  17.063  0.00  0.00    +0.000 C 
BRANCH  30  32
ATOM     31  C   UNL     1       7.342   7.051  17.491  0.00  0.00    +0.000 C 
ATOM     32  C   UNL     1       7.603   5.662  18.057  0.00  0.00    +0.000 C 
ENDBRANCH  30  32
ENDBRANCH  26  30
ENDBRANCH  20  28
ENDBRANCH  18  25
ENDBRANCH   1  18
TORSDOF 9
ENDMDL
MODEL 3
REMARK VINA RESULT:      -8.1      1.274      1.586
REMARK  Name = 
REMARK  11 active torsions:
REMARK  status: ('A' for Active; 'I' for Inactive)
REMARK    1  A    between atoms: C_1  and  C_2
REMARK    2  A    between atoms: C_2  and  C_3
REMARK    3  A    between atoms: C_3  and  C_4
REMARK    4  A    between atoms: N_6  and  C_7
REMARK    5  A    between atoms: C_12  and  N_13
REMARK    6  A    between atoms: N_13  and  C_14
REMARK    7  A    between atoms: C_14  and  C_15
REMARK    8  A    between atoms: C_18  and  C_19
REMARK    9  A    between atoms: C_24  and  C_25
REMARK   10  A    between atoms: C_25  and  O_27
REMARK   11  A    between atoms: O_27  and  C_28
REMARK                            x       y       z     vdW  Elec       q    Type
REMARK                         _______ _______ _______ _____ _____    ______ ____
ROOT
ATOM      1  C   UNL     1       0.118   9.755  20.518  0.00  0.00    +0.000 C 
ENDROOT
BRANCH   1   2
ATOM      2  C   UNL     1       1.158   8.924  19.804  0.00  0.00    +0.000 A 
ATOM      3  C   UNL     1       1.512   9.209  18.483  0.00  0.00    +0.000 A 
ATOM      4  C   UNL     1       2.390   8.373  17.785  0.00  0.00    +0.000 A 
ATOM      5  C   UNL     1       2.891   7.191  18.353  0.00  0.00    +0.000 A 
ATOM      6  C   UNL     1       2.566   6.955  19.706  0.00  0.00    +0.000 A 
ATOM      7  C   UNL     1       1.728   7.812  20.427  0.00  0.00    +0.000 A 
BRANCH   5   8
ATOM      8  C   UNL     1       3.724   6.221  17.585  0.00  0.00    +0.000 A 
ATOM      9  C   UNL     1       4.954   6.672  17.044  0.00  0.00    +0.000 A 
ATOM     10  C   UNL     1       5.821   5.828  16.342  0.00  0.00    +0.000 A 
ATOM     11  C   UNL     1       5.478   4.501  16.134  0.00  0.00    +0.000 A 
ATOM     12  C   UNL     1       4.273   4.021  16.636  0.00  0.00    +0.000 A 
ATOM     13  C   UNL     1       3.398   4.861  17.361  0.00  0.00    +0.000 A 
BRANCH  13  14
ATOM     14  C   UNL     1       2.185   4.200  17.920  0.00  0.00    +0.000 C 
ATOM     15  O   UNL     1       1.065   4.256  17.447  0.00  0.00    +0.000 OA
BRANCH  14  16
ATOM     16  O   UNL     1       2.540   3.531  19.051  0.00  0.00    +0.000 OA
ATOM     17  C   UNL     1       2.132   2.161  19.086  0.00  0.00    +0.000 C 
ENDBRANCH  14  16
ENDBRANCH  13  14
ENDBRANCH   5   8
ENDBRANCH   1   2
BRANCH   1  18
ATOM     18  N   UNL     1      -0.477  10.692  19.559  0.00  0.00    +0.000 N 
ATOM     19  H   UNL     1      -0.882  10.189  18.779  0.00  0.00    +0.000 HD
BRANCH  18  25
ATOM     20  C   UNL     1      -2.428  12.157  19.329  0.00  0.00    +0.000 A 
ATOM     21  C   UNL     1      -3.403  12.931  19.965  0.00  0.00    +0.000 A 
ATOM     22  C   UNL     1      -3.377  13.098  21.344  0.00  0.00    +0.000 A 
ATOM     23  C   UNL     1      -2.385  12.467  22.055  0.00  0.00    +0.000 A 
ATOM     24  N   UNL     1      -1.449  11.679  21.491  0.00  0.00    +0.000 NA
ATOM     25  C   UNL     1      -1.469  11.511  20.144  0.00  0.00    +0.000 A 
BRANCH  20  28
ATOM     26  C   UNL     1      -3.071  11.035  17.192  0.00  0.00    +0.000 C 
ATOM     27  O   UNL     1      -3.879  10.231  17.642  0.00  0.00    +0.000 OA
ATOM     28  N   UNL     1      -2.393  12.005  17.913  0.00  0.00    +0.000 N 
ATOM     29  H   UNL     1      -1.991  12.786  17.406  0.00  0.00    +0.000 HD
BRANCH  26  30
ATOM     30  C   UNL     1      -2.741  11.009  15.711  0.00  0.00    +0.000 C 
BRANCH  30  32
ATOM     31  C   UNL     1      -3.169   9.823  13.501  0.00  0.00    +0.000 C 
ATOM     32  C   UNL     1      -3.685  10.125  14.902  0.00  0.00    +0.000 C 
ENDBRANCH  30  32
ENDBRANCH  26  30
ENDBRANCH  20  28
ENDBRANCH  18  25
ENDBRANCH   1  18
TORSDOF 9
ENDMDL
MODEL 4
REMARK VINA RESULT:      -8.1      3.339      9.264
REMARK  Name = 
REMARK  11 active torsions:
REMARK  status: ('A' for Active; 'I' for Inactive)
REMARK    1  A    between atoms: C_1  and  C_2
REMARK    2  A    between atoms: C_2  and  C_3
REMARK    3  A    between atoms: C_3  and  C_4
REMARK    4  A    between atoms: N_6  and  C_7
REMARK    5  A    between atoms: C_12  and  N_13
REMARK    6  A    between atoms: N_13  and  C_14
REMARK    7  A    between atoms: C_14  and  C_15
REMARK    8  A    between atoms: C_18  and  C_19
REMARK    9  A    between atoms: C_24  and  C_25
REMARK   10  A    between atoms: C_25  and  O_27
REMARK   11  A    between atoms: O_27  and  C_28
REMARK                            x       y       z     vdW  Elec       q    Type
REMARK                         _______ _______ _______ _____ _____    ______ ____
ROOT
ATOM      1  C   UNL     1       3.208   6.678  18.529  0.00  0.00    +0.000 C 
ENDROOT
BRANCH   1   2
ATOM      2  C   UNL     1       2.244   7.813  18.784  0.00  0.00    +0.000 A 
ATOM      3  C   UNL     1       1.895   8.695  17.759  0.00  0.00    +0.000 A 
ATOM      4  C   UNL     1       1.091   9.810  18.021  0.00  0.00    +0.000 A 
ATOM      5  C   UNL     1       0.664  10.120  19.322  0.00  0.00    +0.000 A 
ATOM      6  C   UNL     1       0.980   9.185  20.329  0.00  0.00    +0.000 A 
ATOM      7  C   UNL     1       1.741   8.042  20.067  0.00  0.00    +0.000 A 
BRANCH   5   8
ATOM      8  C   UNL     1      -0.084  11.370  19.643  0.00  0.00    +0.000 A 
ATOM      9  C   UNL     1      -1.490  11.290  19.803  0.00  0.00    +0.000 A 
ATOM     10  C   UNL     1      -2.273  12.398  20.144  0.00  0.00    +0.000 A 
ATOM     11  C   UNL     1      -1.679  13.639  20.313  0.00  0.00    +0.000 A 
ATOM     12  C   UNL     1      -0.303  13.765  20.151  0.00  0.00    +0.000 A 
ATOM     13  C   UNL     1       0.498  12.648  19.825  0.00  0.00    +0.000 A 
BRANCH  13  14
ATOM     14  C   UNL     1       1.966  12.902  19.769  0.00  0.00    +0.000 C 
ATOM     15  O   UNL     1       2.646  12.917  18.760  0.00  0.00    +0.000 OA
BRANCH  14  16
ATOM     16  O   UNL     1       2.417  13.107  21.038  0.00  0.00    +0.000 OA
ATOM     17  C   UNL     1       3.466  14.073  21.148  0.00  0.00    +0.000 C 
ENDBRANCH  14  16
ENDBRANCH  13  14
ENDBRANCH   5   8
ENDBRANCH   1   2
BRANCH   1  18
ATOM     18  N   UNL     1       3.348   5.892  19.759  0.00  0.00    +0.000 N 
ATOM     19  H   UNL     1       2.721   6.239  20.474  0.00  0.00    +0.000 HD
BRANCH  18  25
ATOM     20  C   UNL     1       4.158   3.646  19.207  0.00  0.00    +0.000 A 
ATOM     21  C   UNL     1       3.857   2.290  19.047  0.00  0.00    +0.000 A 
ATOM     22  C   UNL     1       2.547   1.843  19.170  0.00  0.00    +0.000 A 
ATOM     23  C   UNL     1       1.574   2.764  19.471  0.00  0.00    +0.000 A 
ATOM     24  N   UNL     1       1.821   4.073  19.674  0.00  0.00    +0.000 NA
ATOM     25  C   UNL     1       3.099   4.516  19.556  0.00  0.00    +0.000 A 
BRANCH  20  28
ATOM     26  C   UNL     1       6.085   4.429  17.823  0.00  0.00    +0.000 C 
ATOM     27  O   UNL     1       5.549   4.388  16.722  0.00  0.00    +0.000 OA
ATOM     28  N   UNL     1       5.480   4.148  19.038  0.00  0.00    +0.000 N 
ATOM     29  H   UNL     1       5.920   4.495  19.884  0.00  0.00    +0.000 HD
BRANCH  26  30
ATOM     30  C   UNL     1       7.549   4.813  17.925  0.00  0.00    +0.000 C 
BRANCH  30  32
ATOM     31  C   UNL     1       7.682   7.350  17.777  0.00  0.00    +0.000 C 
ATOM     32  C   UNL     1       7.775   6.123  18.674  0.00  0.00    +0.000 C 
ENDBRANCH  30  32
ENDBRANCH  26  30
ENDBRANCH  20  28
ENDBRANCH  18  25
ENDBRANCH   1  18
TORSDOF 9
ENDMDL
MODEL 5
REMARK VINA RESULT:      -8.1      2.854      9.024
REMARK  Name = 
REMARK  11 active torsions:
REMARK  status: ('A' for Active; 'I' for Inactive)
REMARK    1  A    between atoms: C_1  and  C_2
REMARK    2  A    between atoms: C_2  and  C_3
REMARK    3  A    between atoms: C_3  and  C_4
REMARK    4  A    between atoms: N_6  and  C_7
REMARK    5  A    between atoms: C_12  and  N_13
REMARK    6  A    between atoms: N_13  and  C_14
REMARK    7  A    between atoms: C_14  and  C_15
REMARK    8  A    between atoms: C_18  and  C_19
REMARK    9  A    between atoms: C_24  and  C_25
REMARK   10  A    between atoms: C_25  and  O_27
REMARK   11  A    between atoms: O_27  and  C_28
REMARK                            x       y       z     vdW  Elec       q    Type
REMARK                         _______ _______ _______ _____ _____    ______ ____
ROOT
ATOM      1  C   UNL     1       3.389   6.751  18.663  0.00  0.00    +0.000 C 
ENDROOT
BRANCH   1   2
ATOM      2  C   UNL     1       2.295   7.763  18.910  0.00  0.00    +0.000 A 
ATOM      3  C   UNL     1       1.892   8.637  17.896  0.00  0.00    +0.000 A 
ATOM      4  C   UNL     1       0.960   9.647  18.156  0.00  0.00    +0.000 A 
ATOM      5  C   UNL     1       0.449   9.865  19.445  0.00  0.00    +0.000 A 
ATOM      6  C   UNL     1       0.825   8.935  20.438  0.00  0.00    +0.000 A 
ATOM      7  C   UNL     1       1.718   7.892  20.175  0.00  0.00    +0.000 A 
BRANCH   5   8
ATOM      8  C   UNL     1      -0.445  11.013  19.771  0.00  0.00    +0.000 A 
ATOM      9  C   UNL     1      -0.053  11.898  20.807  0.00  0.00    +0.000 A 
ATOM     10  C   UNL     1      -0.805  13.024  21.158  0.00  0.00    +0.000 A 
ATOM     11  C   UNL     1      -1.996  13.295  20.500  0.00  0.00    +0.000 A 
ATOM     12  C   UNL     1      -2.424  12.443  19.488  0.00  0.00    +0.000 A 
ATOM     13  C   UNL     1      -1.663  11.314  19.113  0.00  0.00    +0.000 A 
BRANCH  13  14
ATOM     14  C   UNL     1      -2.189  10.537  17.955  0.00  0.00    +0.000 C 
ATOM     15  O   UNL     1      -2.668   9.420  18.009  0.00  0.00    +0.000 OA
BRANCH  14  16
ATOM     16  O   UNL     1      -2.035  11.285  16.828  0.00  0.00    +0.000 OA
ATOM     17  C   UNL     1      -2.777  10.818  15.698  0.00  0.00    +0.000 C 
ENDBRANCH  14  16
ENDBRANCH  13  14
ENDBRANCH   5   8
ENDBRANCH   1   2
BRANCH   1  18
ATOM     18  N   UNL     1       2.999   5.902  17.531  0.00  0.00    +0.000 N 
ATOM     19  H   UNL     1       3.705   5.934  16.806  0.00  0.00    +0.000 HD
BRANCH  18  25
ATOM     20  C   UNL     1       3.876   3.657  17.970  0.00  0.00    +0.000 A 
ATOM     21  C   UNL     1       3.611   2.346  18.378  0.00  0.00    +0.000 A 
ATOM     22  C   UNL     1       2.308   1.945  18.647  0.00  0.00    +0.000 A 
ATOM     23  C   UNL     1       1.305   2.875  18.521  0.00  0.00    +0.000 A 
ATOM     24  N   UNL     1       1.516   4.158  18.171  0.00  0.00    +0.000 NA
ATOM     25  C   UNL     1       2.787   4.557  17.908  0.00  0.00    +0.000 A 
BRANCH  20  28
ATOM     26  C   UNL     1       6.121   4.600  18.529  0.00  0.00    +0.000 C 
ATOM     27  O   UNL     1       5.996   4.663  19.747  0.00  0.00    +0.000 OA
ATOM     28  N   UNL     1       5.191   4.089  17.637  0.00  0.00    +0.000 N 
ATOM     29  H   UNL     1       5.513   3.819  16.713  0.00  0.00    +0.000 HD
BRANCH  26  30
ATOM     30  C   UNL     1       7.391   5.121  17.884  0.00  0.00    +0.000 C 
BRANCH  30  32
ATOM     31  C   UNL     1       7.618   7.632  17.543  0.00  0.00    +0.000 C 
ATOM     32  C   UNL     1       7.860   6.449  18.470  0.00  0.00    +0.000 C 
ENDBRANCH  30  32
ENDBRANCH  26  30
ENDBRANCH  20  28
ENDBRANCH  18  25
ENDBRANCH   1  18
TORSDOF 9
ENDMDL
MODEL 6
REMARK VINA RESULT:      -8.0      0.682      1.117
REMARK  Name = 
REMARK  11 active torsions:
REMARK  status: ('A' for Active; 'I' for Inactive)
REMARK    1  A    between atoms: C_1  and  C_2
REMARK    2  A    between atoms: C_2  and  C_3
REMARK    3  A    between atoms: C_3  and  C_4
REMARK    4  A    between atoms: N_6  and  C_7
REMARK    5  A    between atoms: C_12  and  N_13
REMARK    6  A    between atoms: N_13  and  C_14
REMARK    7  A    between atoms: C_14  and  C_15
REMARK    8  A    between atoms: C_18  and  C_19
REMARK    9  A    between atoms: C_24  and  C_25
REMARK   10  A    between atoms: C_25  and  O_27
REMARK   11  A    between atoms: O_27  and  C_28
REMARK                            x       y       z     vdW  Elec       q    Type
REMARK                         _______ _______ _______ _____ _____    ______ ____
ROOT
ATOM      1  C   UNL     1       0.398   9.305  20.503  0.00  0.00    +0.000 C 
ENDROOT
BRANCH   1   2
ATOM      2  C   UNL     1       1.439   8.503  19.757  0.00  0.00    +0.000 A 
ATOM      3  C   UNL     1       1.792   8.838  18.447  0.00  0.00    +0.000 A 
ATOM      4  C   UNL     1       2.672   8.032  17.718  0.00  0.00    +0.000 A 
ATOM      5  C   UNL     1       3.177   6.832  18.243  0.00  0.00    +0.000 A 
ATOM      6  C   UNL     1       2.854   6.545  19.586  0.00  0.00    +0.000 A 
ATOM      7  C   UNL     1       2.015   7.372  20.339  0.00  0.00    +0.000 A 
BRANCH   5   8
ATOM      8  C   UNL     1       4.013   5.893  17.439  0.00  0.00    +0.000 A 
ATOM      9  C   UNL     1       5.261   6.355  16.950  0.00  0.00    +0.000 A 
ATOM     10  C   UNL     1       6.132   5.538  16.220  0.00  0.00    +0.000 A 
ATOM     11  C   UNL     1       5.773   4.230  15.930  0.00  0.00    +0.000 A 
ATOM     12  C   UNL     1       4.551   3.742  16.378  0.00  0.00    +0.000 A 
ATOM     13  C   UNL     1       3.673   4.553  17.131  0.00  0.00    +0.000 A 
BRANCH  13  14
ATOM     14  C   UNL     1       2.437   3.881  17.625  0.00  0.00    +0.000 C 
ATOM     15  O   UNL     1       1.296   4.235  17.395  0.00  0.00    +0.000 OA
BRANCH  14  16
ATOM     16  O   UNL     1       2.802   2.810  18.383  0.00  0.00    +0.000 OA
ATOM     17  C   UNL     1       2.660   3.002  19.793  0.00  0.00    +0.000 C 
ENDBRANCH  14  16
ENDBRANCH  13  14
ENDBRANCH   5   8
ENDBRANCH   1   2
BRANCH   1  18
ATOM     18  N   UNL     1      -0.430  10.025  19.528  0.00  0.00    +0.000 N 
ATOM     19  H   UNL     1      -1.412   9.890  19.731  0.00  0.00    +0.000 HD
BRANCH  18  25
ATOM     20  C   UNL     1      -0.760  12.235  18.523  0.00  0.00    +0.000 A 
ATOM     21  C   UNL     1      -0.470  13.602  18.560  0.00  0.00    +0.000 A 
ATOM     22  C   UNL     1       0.434  14.103  19.488  0.00  0.00    +0.000 A 
ATOM     23  C   UNL     1       1.010  13.224  20.372  0.00  0.00    +0.000 A 
ATOM     24  N   UNL     1       0.732  11.906  20.401  0.00  0.00    +0.000 NA
ATOM     25  C   UNL     1      -0.152  11.410  19.497  0.00  0.00    +0.000 A 
BRANCH  20  28
ATOM     26  C   UNL     1      -3.003  11.483  17.723  0.00  0.00    +0.000 C 
ATOM     27  O   UNL     1      -3.673  11.849  18.683  0.00  0.00    +0.000 OA
ATOM     28  N   UNL     1      -1.642  11.678  17.554  0.00  0.00    +0.000 N 
ATOM     29  H   UNL     1      -1.260  11.604  16.617  0.00  0.00    +0.000 HD
BRANCH  26  30
ATOM     30  C   UNL     1      -3.677  10.737  16.587  0.00  0.00    +0.000 C 
BRANCH  30  32
ATOM     31  C   UNL     1      -3.545  10.046  14.142  0.00  0.00    +0.000 C 
ATOM     32  C   UNL     1      -2.810  10.640  15.336  0.00  0.00    +0.000 C 
ENDBRANCH  30  32
ENDBRANCH  26  30
ENDBRANCH  20  28
ENDBRANCH  18  25
ENDBRANCH   1  18
TORSDOF 9
ENDMDL
MODEL 7
REMARK VINA RESULT:      -8.0      3.104      9.102
REMARK  Name = 
REMARK  11 active torsions:
REMARK  status: ('A' for Active; 'I' for Inactive)
REMARK    1  A    between atoms: C_1  and  C_2
REMARK    2  A    between atoms: C_2  and  C_3
REMARK    3  A    between atoms: C_3  and  C_4
REMARK    4  A    between atoms: N_6  and  C_7
REMARK    5  A    between atoms: C_12  and  N_13
REMARK    6  A    between atoms: N_13  and  C_14
REMARK    7  A    between atoms: C_14  and  C_15
REMARK    8  A    between atoms: C_18  and  C_19
REMARK    9  A    between atoms: C_24  and  C_25
REMARK   10  A    between atoms: C_25  and  O_27
REMARK   11  A    between atoms: O_27  and  C_28
REMARK                            x       y       z     vdW  Elec       q    Type
REMARK                         _______ _______ _______ _____ _____    ______ ____
ROOT
ATOM      1  C   UNL     1       3.321   6.628  18.665  0.00  0.00    +0.000 C 
ENDROOT
BRANCH   1   2
ATOM      2  C   UNL     1       2.355   7.764  18.910  0.00  0.00    +0.000 A 
ATOM      3  C   UNL     1       1.742   7.921  20.155  0.00  0.00    +0.000 A 
ATOM      4  C   UNL     1       0.765   8.903  20.350  0.00  0.00    +0.000 A 
ATOM      5  C   UNL     1       0.318   9.716  19.296  0.00  0.00    +0.000 A 
ATOM      6  C   UNL     1       0.993   9.580  18.064  0.00  0.00    +0.000 A 
ATOM      7  C   UNL     1       2.005   8.634  17.875  0.00  0.00    +0.000 A 
BRANCH   5   8
ATOM      8  C   UNL     1      -0.810  10.680  19.449  0.00  0.00    +0.000 A 
ATOM      9  C   UNL     1      -1.848  10.659  18.483  0.00  0.00    +0.000 A 
ATOM     10  C   UNL     1      -2.966  11.497  18.562  0.00  0.00    +0.000 A 
ATOM     11  C   UNL     1      -3.075  12.408  19.602  0.00  0.00    +0.000 A 
ATOM     12  C   UNL     1      -2.072  12.471  20.563  0.00  0.00    +0.000 A 
ATOM     13  C   UNL     1      -0.948  11.617  20.501  0.00  0.00    +0.000 A 
BRANCH  13  14
ATOM     14  C   UNL     1       0.007  11.725  21.641  0.00  0.00    +0.000 C 
ATOM     15  O   UNL     1      -0.185  11.314  22.769  0.00  0.00    +0.000 OA
BRANCH  14  16
ATOM     16  O   UNL     1       1.126  12.368  21.206  0.00  0.00    +0.000 OA
ATOM     17  C   UNL     1       1.143  13.775  21.461  0.00  0.00    +0.000 C 
ENDBRANCH  14  16
ENDBRANCH  13  14
ENDBRANCH   5   8
ENDBRANCH   1   2
BRANCH   1  18
ATOM     18  N   UNL     1       3.290   5.726  19.822  0.00  0.00    +0.000 N 
ATOM     19  H   UNL     1       2.688   6.098  20.545  0.00  0.00    +0.000 HD
BRANCH  18  25
ATOM     20  C   UNL     1       3.747   3.507  18.887  0.00  0.00    +0.000 A 
ATOM     21  C   UNL     1       3.266   2.226  18.602  0.00  0.00    +0.000 A 
ATOM     22  C   UNL     1       1.937   1.905  18.846  0.00  0.00    +0.000 A 
ATOM     23  C   UNL     1       1.126   2.871  19.389  0.00  0.00    +0.000 A 
ATOM     24  N   UNL     1       1.553   4.106  19.718  0.00  0.00    +0.000 NA
ATOM     25  C   UNL     1       2.852   4.425  19.484  0.00  0.00    +0.000 A 
BRANCH  20  28
ATOM     26  C   UNL     1       5.568   4.291  17.368  0.00  0.00    +0.000 C 
ATOM     27  O   UNL     1       4.897   4.482  16.360  0.00  0.00    +0.000 OA
ATOM     28  N   UNL     1       5.090   3.887  18.604  0.00  0.00    +0.000 N 
ATOM     29  H   UNL     1       5.673   4.047  19.419  0.00  0.00    +0.000 HD
BRANCH  26  30
ATOM     30  C   UNL     1       7.070   4.498  17.312  0.00  0.00    +0.000 C 
BRANCH  30  32
ATOM     31  C   UNL     1       7.975   6.008  19.149  0.00  0.00    +0.000 C 
ATOM     32  C   UNL     1       7.497   5.908  17.707  0.00  0.00    +0.000 C 
ENDBRANCH  30  32
ENDBRANCH  26  30
ENDBRANCH  20  28
ENDBRANCH  18  25
ENDBRANCH   1  18
TORSDOF 9
ENDMDL
MODEL 8
REMARK VINA RESULT:      -7.9      3.267      9.228
REMARK  Name = 
REMARK  11 active torsions:
REMARK  status: ('A' for Active; 'I' for Inactive)
REMARK    1  A    between atoms: C_1  and  C_2
REMARK    2  A    between atoms: C_2  and  C_3
REMARK    3  A    between atoms: C_3  and  C_4
REMARK    4  A    between atoms: N_6  and  C_7
REMARK    5  A    between atoms: C_12  and  N_13
REMARK    6  A    between atoms: N_13  and  C_14
REMARK    7  A    between atoms: C_14  and  C_15
REMARK    8  A    between atoms: C_18  and  C_19
REMARK    9  A    between atoms: C_24  and  C_25
REMARK   10  A    between atoms: C_25  and  O_27
REMARK   11  A    between atoms: O_27  and  C_28
REMARK                            x       y       z     vdW  Elec       q    Type
REMARK                         _______ _______ _______ _____ _____    ______ ____
ROOT
ATOM      1  C   UNL     1       3.311   6.531  18.982  0.00  0.00    +0.000 C 
ENDROOT
BRANCH   1   2
ATOM      2  C   UNL     1       2.297   7.646  19.086  0.00  0.00    +0.000 A 
ATOM      3  C   UNL     1       1.989   8.433  17.973  0.00  0.00    +0.000 A 
ATOM      4  C   UNL     1       1.136   9.535  18.095  0.00  0.00    +0.000 A 
ATOM      5  C   UNL     1       0.616   9.930  19.337  0.00  0.00    +0.000 A 
ATOM      6  C   UNL     1       0.893   9.088  20.434  0.00  0.00    +0.000 A 
ATOM      7  C   UNL     1       1.705   7.956  20.312  0.00  0.00    +0.000 A 
BRANCH   5   8
ATOM      8  C   UNL     1      -0.190  11.174  19.511  0.00  0.00    +0.000 A 
ATOM      9  C   UNL     1      -1.599  11.085  19.382  0.00  0.00    +0.000 A 
ATOM     10  C   UNL     1      -2.442  12.187  19.566  0.00  0.00    +0.000 A 
ATOM     11  C   UNL     1      -1.902  13.429  19.862  0.00  0.00    +0.000 A 
ATOM     12  C   UNL     1      -0.523  13.563  19.983  0.00  0.00    +0.000 A 
ATOM     13  C   UNL     1       0.335  12.453  19.817  0.00  0.00    +0.000 A 
BRANCH  13  14
ATOM     14  C   UNL     1       1.782  12.714  20.062  0.00  0.00    +0.000 C 
ATOM     15  O   UNL     1       2.307  12.832  21.153  0.00  0.00    +0.000 OA
BRANCH  14  16
ATOM     16  O   UNL     1       2.414  12.803  18.859  0.00  0.00    +0.000 OA
ATOM     17  C   UNL     1       3.210  13.979  18.691  0.00  0.00    +0.000 C 
ENDBRANCH  14  16
ENDBRANCH  13  14
ENDBRANCH   5   8
ENDBRANCH   1   2
BRANCH   1  18
ATOM     18  N   UNL     1       2.995   5.714  17.804  0.00  0.00    +0.000 N 
ATOM     19  H   UNL     1       3.750   5.759  17.131  0.00  0.00    +0.000 HD
BRANCH  18  25
ATOM     20  C   UNL     1       3.828   3.463  18.298  0.00  0.00    +0.000 A 
ATOM     21  C   UNL     1       3.524   2.145  18.650  0.00  0.00    +0.000 A 
ATOM     22  C   UNL     1       2.201   1.736  18.765  0.00  0.00    +0.000 A 
ATOM     23  C   UNL     1       1.214   2.666  18.546  0.00  0.00    +0.000 A 
ATOM     24  N   UNL     1       1.458   3.956  18.245  0.00  0.00    +0.000 NA
ATOM     25  C   UNL     1       2.748   4.362  18.131  0.00  0.00    +0.000 A 
BRANCH  20  28
ATOM     26  C   UNL     1       5.752   4.242  16.909  0.00  0.00    +0.000 C 
ATOM     27  O   UNL     1       5.181   4.312  15.826  0.00  0.00    +0.000 OA
ATOM     28  N   UNL     1       5.170   3.905  18.120  0.00  0.00    +0.000 N 
ATOM     29  H   UNL     1       5.654   4.164  18.973  0.00  0.00    +0.000 HD
BRANCH  26  30
ATOM     30  C   UNL     1       7.238   4.538  16.987  0.00  0.00    +0.000 C 
BRANCH  30  32
ATOM     31  C   UNL     1       7.515   6.957  17.725  0.00  0.00    +0.000 C 
ATOM     32  C   UNL     1       7.601   5.490  18.123  0.00  0.00    +0.000 C 
ENDBRANCH  30  32
ENDBRANCH  26  30
ENDBRANCH  20  28
ENDBRANCH  18  25
ENDBRANCH   1  18
TORSDOF 9
ENDMDL
MODEL 9
REMARK VINA RESULT:      -7.9      3.265      8.986
REMARK  Name = 
REMARK  11 active torsions:
REMARK  status: ('A' for Active; 'I' for Inactive)
REMARK    1  A    between atoms: C_1  and  C_2
REMARK    2  A    between atoms: C_2  and  C_3
REMARK    3  A    between atoms: C_3  and  C_4
REMARK    4  A    between atoms: N_6  and  C_7
REMARK    5  A    between atoms: C_12  and  N_13
REMARK    6  A    between atoms: N_13  and  C_14
REMARK    7  A    between atoms: C_14  and  C_15
REMARK    8  A    between atoms: C_18  and  C_19
REMARK    9  A    between atoms: C_24  and  C_25
REMARK   10  A    between atoms: C_25  and  O_27
REMARK   11  A    between atoms: O_27  and  C_28
REMARK                            x       y       z     vdW  Elec       q    Type
REMARK                         _______ _______ _______ _____ _____    ______ ____
ROOT
ATOM      1  C   UNL     1       3.598   6.696  18.432  0.00  0.00    +0.000 C 
ENDROOT
BRANCH   1   2
ATOM      2  C   UNL     1       2.591   7.800  18.656  0.00  0.00    +0.000 A 
ATOM      3  C   UNL     1       1.900   7.899  19.866  0.00  0.00    +0.000 A 
ATOM      4  C   UNL     1       0.889   8.851  20.034  0.00  0.00    +0.000 A 
ATOM      5  C   UNL     1       0.485   9.689  18.983  0.00  0.00    +0.000 A 
ATOM      6  C   UNL     1       1.234   9.611  17.790  0.00  0.00    +0.000 A 
ATOM      7  C   UNL     1       2.280   8.697  17.631  0.00  0.00    +0.000 A 
BRANCH   5   8
ATOM      8  C   UNL     1      -0.674  10.620  19.100  0.00  0.00    +0.000 A 
ATOM      9  C   UNL     1      -1.850  10.325  18.366  0.00  0.00    +0.000 A 
ATOM     10  C   UNL     1      -3.002  11.117  18.440  0.00  0.00    +0.000 A 
ATOM     11  C   UNL     1      -3.011  12.252  19.236  0.00  0.00    +0.000 A 
ATOM     12  C   UNL     1      -1.873  12.586  19.962  0.00  0.00    +0.000 A 
ATOM     13  C   UNL     1      -0.711  11.783  19.907  0.00  0.00    +0.000 A 
BRANCH  13  14
ATOM     14  C   UNL     1       0.405  12.203  20.801  0.00  0.00    +0.000 C 
ATOM     15  O   UNL     1       0.711  11.672  21.852  0.00  0.00    +0.000 OA
BRANCH  14  16
ATOM     16  O   UNL     1       1.020  13.284  20.246  0.00  0.00    +0.000 OA
ATOM     17  C   UNL     1       2.155  12.971  19.434  0.00  0.00    +0.000 C 
ENDBRANCH  14  16
ENDBRANCH  13  14
ENDBRANCH   5   8
ENDBRANCH   1   2
BRANCH   1  18
ATOM     18  N   UNL     1       2.889   5.500  17.962  0.00  0.00    +0.000 N 
ATOM     19  H   UNL     1       3.313   5.149  17.113  0.00  0.00    +0.000 HD
BRANCH  18  25
ATOM     20  C   UNL     1       4.006   3.648  19.115  0.00  0.00    +0.000 A 
ATOM     21  C   UNL     1       3.937   2.662  20.104  0.00  0.00    +0.000 A 
ATOM     22  C   UNL     1       2.764   2.469  20.822  0.00  0.00    +0.000 A 
ATOM     23  C   UNL     1       1.693   3.284  20.546  0.00  0.00    +0.000 A 
ATOM     24  N   UNL     1       1.724   4.273  19.632  0.00  0.00    +0.000 NA
ATOM     25  C   UNL     1       2.869   4.467  18.927  0.00  0.00    +0.000 A 
BRANCH  20  28
ATOM     26  C   UNL     1       6.301   4.547  18.713  0.00  0.00    +0.000 C 
ATOM     27  O   UNL     1       6.509   5.023  19.823  0.00  0.00    +0.000 OA
ATOM     28  N   UNL     1       5.174   3.841  18.324  0.00  0.00    +0.000 N 
ATOM     29  H   UNL     1       5.238   3.253  17.499  0.00  0.00    +0.000 HD
BRANCH  26  30
ATOM     30  C   UNL     1       7.340   4.722  17.622  0.00  0.00    +0.000 C 
BRANCH  30  32
ATOM     31  C   UNL     1       7.455   7.260  17.468  0.00  0.00    +0.000 C 
ATOM     32  C   UNL     1       7.103   5.958  16.760  0.00  0.00    +0.000 C 
ENDBRANCH  30  32
ENDBRANCH  26  30
ENDBRANCH  20  28
ENDBRANCH  18  25
ENDBRANCH   1  18
TORSDOF 9
ENDMDL
