MODEL 1
REMARK VINA RESULT:      -8.8      0.000      0.000
REMARK  Name = 
REMARK  5 active torsions:
REMARK  status: ('A' for Active; 'I' for Inactive)
REMARK    1  A    between atoms: C_1  and  C_2
REMARK    2  A    between atoms: C_6  and  C_7
REMARK    3  A    between atoms: C_7  and  C_8
REMARK    4  A    between atoms: C_7  and  C_10
REMARK    5  A    between atoms: C_19  and  C_20
REMARK                            x       y       z     vdW  Elec       q    Type
REMARK                         _______ _______ _______ _____ _____    ______ ____
ROOT
ATOM      1  C   UNL     1       5.486   4.515  16.966  0.00  0.00    +0.000 A 
ATOM      2  N   UNL     1       5.029   4.008  15.775  0.00  0.00    +0.000 NA
ATOM      3  C   UNL     1       5.759   4.191  14.658  0.00  0.00    +0.000 A 
ATOM      4  C   UNL     1       5.366   3.610  13.456  0.00  0.00    +0.000 A 
ATOM      5  C   UNL     1       6.129   3.752  12.292  0.00  0.00    +0.000 A 
ATOM      6  C   UNL     1       7.294   4.506  12.328  0.00  0.00    +0.000 A 
ATOM      7  C   UNL     1       7.692   5.095  13.528  0.00  0.00    +0.000 A 
ATOM      8  C   UNL     1       6.949   4.934  14.693  0.00  0.00    +0.000 A 
ATOM      9  N   UNL     1       7.391   5.463  15.846  0.00  0.00    +0.000 NA
ATOM     10  C   UNL     1       6.681   5.240  17.003  0.00  0.00    +0.000 A 
ENDROOT
BRANCH  10  11
ATOM     11  C   UNL     1       7.356   5.761  18.258  0.00  0.00    +0.000 C 
ATOM     12  F   UNL     1       6.536   5.986  19.314  0.00  0.00    +0.000 F 
ATOM     13  F   UNL     1       8.320   4.907  18.712  0.00  0.00    +0.000 F 
ATOM     14  F   UNL     1       7.989   6.953  18.055  0.00  0.00    +0.000 F 
ENDBRANCH  10  11
BRANCH   1  15
ATOM     15  C   UNL     1       4.615   4.115  18.159  0.00  0.00    +0.000 C 
BRANCH  15  21
ATOM     16  C   UNL     1       2.469   8.689  17.660  0.00  0.00    +0.000 C 
ATOM     17  C   UNL     1       2.624   7.415  18.439  0.00  0.00    +0.000 A 
ATOM     18  C   UNL     1       2.021   7.250  19.687  0.00  0.00    +0.000 A 
ATOM     19  C   UNL     1       2.217   6.076  20.413  0.00  0.00    +0.000 A 
ATOM     20  C   UNL     1       3.033   5.064  19.906  0.00  0.00    +0.000 A 
ATOM     21  C   UNL     1       3.679   5.214  18.666  0.00  0.00    +0.000 A 
ATOM     22  C   UNL     1       3.429   6.388  17.928  0.00  0.00    +0.000 A 
ENDBRANCH  15  21
BRANCH  15  23
ATOM     23  C   UNL     1       4.010   2.770  17.979  0.00  0.00    +0.000 C 
ATOM     24  N   UNL     1       3.566   1.703  17.898  0.00  0.00    +0.000 NA
ENDBRANCH  15  23
ENDBRANCH   1  15
TORSDOF 4
ENDMDL
MODEL 2
REMARK VINA RESULT:      -8.5      0.584      1.396
REMARK  Name = 
REMARK  5 active torsions:
REMARK  status: ('A' for Active; 'I' for Inactive)
REMARK    1  A    between atoms: C_1  and  C_2
REMARK    2  A    between atoms: C_6  and  C_7
REMARK    3  A    between atoms: C_7  and  C_8
REMARK    4  A    between atoms: C_7  and  C_10
REMARK    5  A    between atoms: C_19  and  C_20
REMARK                            x       y       z     vdW  Elec       q    Type
REMARK                         _______ _______ _______ _____ _____    ______ ____
ROOT
ATOM      1  C   UNL     1       5.429   4.799  16.721  0.00  0.00    +0.000 A 
ATOM      2  N   UNL     1       4.926   4.254  15.566  0.00  0.00    +0.000 NA
ATOM      3  C   UNL     1       5.679   4.264  14.450  0.00  0.00    +0.000 A 
ATOM      4  C   UNL     1       5.231   3.638  13.291  0.00  0.00    +0.000 A 
ATOM      5  C   UNL     1       6.013   3.600  12.132  0.00  0.00    +0.000 A 
ATOM      6  C   UNL     1       7.256   4.218  12.127  0.00  0.00    +0.000 A 
ATOM      7  C   UNL     1       7.710   4.852  13.283  0.00  0.00    +0.000 A 
ATOM      8  C   UNL     1       6.946   4.868  14.446  0.00  0.00    +0.000 A 
ATOM      9  N   UNL     1       7.438   5.433  15.561  0.00  0.00    +0.000 NA
ATOM     10  C   UNL     1       6.699   5.385  16.721  0.00  0.00    +0.000 A 
ENDROOT
BRANCH  10  11
ATOM     11  C   UNL     1       7.421   5.923  17.941  0.00  0.00    +0.000 C 
ATOM     12  F   UNL     1       6.631   6.233  18.999  0.00  0.00    +0.000 F 
ATOM     13  F   UNL     1       8.349   5.041  18.417  0.00  0.00    +0.000 F 
ATOM     14  F   UNL     1       8.110   7.072  17.678  0.00  0.00    +0.000 F 
ENDBRANCH  10  11
BRANCH   1  15
ATOM     15  C   UNL     1       4.510   4.595  17.928  0.00  0.00    +0.000 C 
BRANCH  15  21
ATOM     16  C   UNL     1       1.297   6.963  21.066  0.00  0.00    +0.000 C 
ATOM     17  C   UNL     1       2.143   6.989  19.826  0.00  0.00    +0.000 A 
ATOM     18  C   UNL     1       2.108   8.072  18.947  0.00  0.00    +0.000 A 
ATOM     19  C   UNL     1       2.868   8.053  17.778  0.00  0.00    +0.000 A 
ATOM     20  C   UNL     1       3.654   6.943  17.468  0.00  0.00    +0.000 A 
ATOM     21  C   UNL     1       3.685   5.823  18.319  0.00  0.00    +0.000 A 
ATOM     22  C   UNL     1       2.948   5.884  19.518  0.00  0.00    +0.000 A 
ENDBRANCH  15  21
BRANCH  15  23
ATOM     23  C   UNL     1       3.775   3.307  17.856  0.00  0.00    +0.000 C 
ATOM     24  N   UNL     1       3.239   2.280  17.852  0.00  0.00    +0.000 NA
ENDBRANCH  15  23
ENDBRANCH   1  15
TORSDOF 4
ENDMDL
MODEL 3
REMARK VINA RESULT:      -8.2      2.195      6.166
REMARK  Name = 
REMARK  5 active torsions:
REMARK  status: ('A' for Active; 'I' for Inactive)
REMARK    1  A    between atoms: C_1  and  C_2
REMARK    2  A    between atoms: C_6  and  C_7
REMARK    3  A    between atoms: C_7  and  C_8
REMARK    4  A    between atoms: C_7  and  C_10
REMARK    5  A    between atoms: C_19  and  C_20
REMARK                            x       y       z     vdW  Elec       q    Type
REMARK                         _______ _______ _______ _____ _____    ______ ____
ROOT
ATOM      1  C   UNL     1       5.214   4.853  18.423  0.00  0.00    +0.000 A 
ATOM      2  N   UNL     1       4.944   3.789  19.248  0.00  0.00    +0.000 NA
ATOM      3  C   UNL     1       3.730   3.693  19.823  0.00  0.00    +0.000 A 
ATOM      4  C   UNL     1       3.399   2.579  20.588  0.00  0.00    +0.000 A 
ATOM      5  C   UNL     1       2.131   2.437  21.162  0.00  0.00    +0.000 A 
ATOM      6  C   UNL     1       1.186   3.438  20.983  0.00  0.00    +0.000 A 
ATOM      7  C   UNL     1       1.512   4.559  20.221  0.00  0.00    +0.000 A 
ATOM      8  C   UNL     1       2.763   4.691  19.628  0.00  0.00    +0.000 A 
ATOM      9  N   UNL     1       3.025   5.753  18.849  0.00  0.00    +0.000 NA
ATOM     10  C   UNL     1       4.244   5.838  18.215  0.00  0.00    +0.000 A 
ENDROOT
BRANCH  10  11
ATOM     11  C   UNL     1       4.365   7.003  17.251  0.00  0.00    +0.000 C 
ATOM     12  F   UNL     1       5.428   7.820  17.450  0.00  0.00    +0.000 F 
ATOM     13  F   UNL     1       4.454   6.586  15.953  0.00  0.00    +0.000 F 
ATOM     14  F   UNL     1       3.282   7.833  17.294  0.00  0.00    +0.000 F 
ENDBRANCH  10  11
BRANCH   1  15
ATOM     15  C   UNL     1       6.584   4.753  17.747  0.00  0.00    +0.000 C 
BRANCH  15  21
ATOM     16  C   UNL     1       8.259   5.688  13.047  0.00  0.00    +0.000 C 
ATOM     17  C   UNL     1       7.338   4.934  13.961  0.00  0.00    +0.000 A 
ATOM     18  C   UNL     1       6.347   4.089  13.458  0.00  0.00    +0.000 A 
ATOM     19  C   UNL     1       5.473   3.436  14.326  0.00  0.00    +0.000 A 
ATOM     20  C   UNL     1       5.569   3.636  15.703  0.00  0.00    +0.000 A 
ATOM     21  C   UNL     1       6.536   4.506  16.238  0.00  0.00    +0.000 A 
ATOM     22  C   UNL     1       7.439   5.118  15.347  0.00  0.00    +0.000 A 
ENDBRANCH  15  21
BRANCH  15  23
ATOM     23  C   UNL     1       7.511   5.818  18.210  0.00  0.00    +0.000 C 
ATOM     24  N   UNL     1       8.201   6.648  18.629  0.00  0.00    +0.000 NA
ENDBRANCH  15  23
ENDBRANCH   1  15
TORSDOF 4
ENDMDL
MODEL 4
REMARK VINA RESULT:      -8.1      2.084      6.014
REMARK  Name = 
REMARK  5 active torsions:
REMARK  status: ('A' for Active; 'I' for Inactive)
REMARK    1  A    between atoms: C_1  and  C_2
REMARK    2  A    between atoms: C_6  and  C_7
REMARK    3  A    between atoms: C_7  and  C_8
REMARK    4  A    between atoms: C_7  and  C_10
REMARK    5  A    between atoms: C_19  and  C_20
REMARK                            x       y       z     vdW  Elec       q    Type
REMARK                         _______ _______ _______ _____ _____    ______ ____
ROOT
ATOM      1  C   UNL     1       5.110   4.294  17.265  0.00  0.00    +0.000 A 
ATOM      2  N   UNL     1       4.629   3.096  17.731  0.00  0.00    +0.000 NA
ATOM      3  C   UNL     1       3.343   3.010  18.123  0.00  0.00    +0.000 A 
ATOM      4  C   UNL     1       2.805   1.786  18.513  0.00  0.00    +0.000 A 
ATOM      5  C   UNL     1       1.463   1.664  18.884  0.00  0.00    +0.000 A 
ATOM      6  C   UNL     1       0.649   2.789  18.885  0.00  0.00    +0.000 A 
ATOM      7  C   UNL     1       1.182   4.019  18.500  0.00  0.00    +0.000 A 
ATOM      8  C   UNL     1       2.511   4.139  18.105  0.00  0.00    +0.000 A 
ATOM      9  N   UNL     1       2.977   5.325  17.681  0.00  0.00    +0.000 NA
ATOM     10  C   UNL     1       4.275   5.416  17.230  0.00  0.00    +0.000 A 
ENDROOT
BRANCH  10  11
ATOM     11  C   UNL     1       4.637   6.766  16.642  0.00  0.00    +0.000 C 
ATOM     12  F   UNL     1       4.877   6.778  15.308  0.00  0.00    +0.000 F 
ATOM     13  F   UNL     1       3.659   7.695  16.853  0.00  0.00    +0.000 F 
ATOM     14  F   UNL     1       5.767   7.293  17.199  0.00  0.00    +0.000 F 
ENDBRANCH  10  11
BRANCH   1  15
ATOM     15  C   UNL     1       6.544   4.199  16.740  0.00  0.00    +0.000 C 
BRANCH  15  21
ATOM     16  C   UNL     1       5.203   2.966  12.002  0.00  0.00    +0.000 C 
ATOM     17  C   UNL     1       6.044   3.793  12.930  0.00  0.00    +0.000 A 
ATOM     18  C   UNL     1       7.045   4.636  12.444  0.00  0.00    +0.000 A 
ATOM     19  C   UNL     1       7.844   5.360  13.329  0.00  0.00    +0.000 A 
ATOM     20  C   UNL     1       7.663   5.231  14.706  0.00  0.00    +0.000 A 
ATOM     21  C   UNL     1       6.684   4.366  15.226  0.00  0.00    +0.000 A 
ATOM     22  C   UNL     1       5.856   3.681  14.314  0.00  0.00    +0.000 A 
ENDBRANCH  15  21
BRANCH  15  23
ATOM     23  C   UNL     1       7.494   4.976  17.577  0.00  0.00    +0.000 C 
ATOM     24  N   UNL     1       8.182   5.617  18.253  0.00  0.00    +0.000 NA
ENDBRANCH  15  23
ENDBRANCH   1  15
TORSDOF 4
ENDMDL
MODEL 5
REMARK VINA RESULT:      -7.9      0.696      1.056
REMARK  Name = 
REMARK  5 active torsions:
REMARK  status: ('A' for Active; 'I' for Inactive)
REMARK    1  A    between atoms: C_1  and  C_2
REMARK    2  A    between atoms: C_6  and  C_7
REMARK    3  A    between atoms: C_7  and  C_8
REMARK    4  A    between atoms: C_7  and  C_10
REMARK    5  A    between atoms: C_19  and  C_20
REMARK                            x       y       z     vdW  Elec       q    Type
REMARK                         _______ _______ _______ _____ _____    ______ ____
ROOT
ATOM      1  C   UNL     1       5.495   4.734  17.650  0.00  0.00    +0.000 A 
ATOM      2  N   UNL     1       4.874   4.265  16.519  0.00  0.00    +0.000 NA
ATOM      3  C   UNL     1       5.533   4.299  15.344  0.00  0.00    +0.000 A 
ATOM      4  C   UNL     1       4.964   3.747  14.200  0.00  0.00    +0.000 A 
ATOM      5  C   UNL     1       5.645   3.734  12.979  0.00  0.00    +0.000 A 
ATOM      6  C   UNL     1       6.909   4.303  12.896  0.00  0.00    +0.000 A 
ATOM      7  C   UNL     1       7.483   4.862  14.037  0.00  0.00    +0.000 A 
ATOM      8  C   UNL     1       6.819   4.853  15.260  0.00  0.00    +0.000 A 
ATOM      9  N   UNL     1       7.426   5.344  16.353  0.00  0.00    +0.000 NA
ATOM     10  C   UNL     1       6.784   5.269  17.568  0.00  0.00    +0.000 A 
ENDROOT
BRANCH  10  11
ATOM     11  C   UNL     1       7.626   5.720  18.746  0.00  0.00    +0.000 C 
ATOM     12  F   UNL     1       8.656   4.903  19.077  0.00  0.00    +0.000 F 
ATOM     13  F   UNL     1       8.181   6.951  18.537  0.00  0.00    +0.000 F 
ATOM     14  F   UNL     1       6.899   5.838  19.896  0.00  0.00    +0.000 F 
ENDBRANCH  10  11
BRANCH   1  15
ATOM     15  C   UNL     1       4.670   4.509  18.920  0.00  0.00    +0.000 C 
BRANCH  15  21
ATOM     16  C   UNL     1       2.398   8.901  17.771  0.00  0.00    +0.000 C 
ATOM     17  C   UNL     1       2.472   7.675  18.633  0.00  0.00    +0.000 A 
ATOM     18  C   UNL     1       1.647   7.521  19.748  0.00  0.00    +0.000 A 
ATOM     19  C   UNL     1       1.766   6.393  20.560  0.00  0.00    +0.000 A 
ATOM     20  C   UNL     1       2.724   5.419  20.276  0.00  0.00    +0.000 A 
ATOM     21  C   UNL     1       3.591   5.562  19.177  0.00  0.00    +0.000 A 
ATOM     22  C   UNL     1       3.421   6.685  18.343  0.00  0.00    +0.000 A 
ENDBRANCH  15  21
BRANCH  15  23
ATOM     23  C   UNL     1       4.253   3.091  19.068  0.00  0.00    +0.000 C 
ATOM     24  N   UNL     1       3.872   2.007  19.214  0.00  0.00    +0.000 NA
ENDBRANCH  15  23
ENDBRANCH   1  15
TORSDOF 4
ENDMDL
MODEL 6
REMARK VINA RESULT:      -7.6      2.097      5.998
REMARK  Name = 
REMARK  5 active torsions:
REMARK  status: ('A' for Active; 'I' for Inactive)
REMARK    1  A    between atoms: C_1  and  C_2
REMARK    2  A    between atoms: C_6  and  C_7
REMARK    3  A    between atoms: C_7  and  C_8
REMARK    4  A    between atoms: C_7  and  C_10
REMARK    5  A    between atoms: C_19  and  C_20
REMARK                            x       y       z     vdW  Elec       q    Type
REMARK                         _______ _______ _______ _____ _____    ______ ____
ROOT
ATOM      1  C   UNL     1       5.065   4.514  17.553  0.00  0.00    +0.000 A 
ATOM      2  N   UNL     1       4.650   3.308  18.060  0.00  0.00    +0.000 NA
ATOM      3  C   UNL     1       3.376   3.173  18.478  0.00  0.00    +0.000 A 
ATOM      4  C   UNL     1       2.903   1.938  18.910  0.00  0.00    +0.000 A 
ATOM      5  C   UNL     1       1.575   1.763  19.310  0.00  0.00    +0.000 A 
ATOM      6  C   UNL     1       0.710   2.849  19.296  0.00  0.00    +0.000 A 
ATOM      7  C   UNL     1       1.177   4.091  18.868  0.00  0.00    +0.000 A 
ATOM      8  C   UNL     1       2.492   4.262  18.445  0.00  0.00    +0.000 A 
ATOM      9  N   UNL     1       2.894   5.456  17.980  0.00  0.00    +0.000 NA
ATOM     10  C   UNL     1       4.178   5.594  17.504  0.00  0.00    +0.000 A 
ENDROOT
BRANCH  10  11
ATOM     11  C   UNL     1       4.467   6.943  16.873  0.00  0.00    +0.000 C 
ATOM     12  F   UNL     1       5.506   7.629  17.408  0.00  0.00    +0.000 F 
ATOM     13  F   UNL     1       4.739   6.836  15.539  0.00  0.00    +0.000 F 
ATOM     14  F   UNL     1       3.407   7.800  16.961  0.00  0.00    +0.000 F 
ENDBRANCH  10  11
BRANCH   1  15
ATOM     15  C   UNL     1       6.494   4.472  17.004  0.00  0.00    +0.000 C 
BRANCH  15  21
ATOM     16  C   UNL     1       8.600   5.970  12.635  0.00  0.00    +0.000 C 
ATOM     17  C   UNL     1       7.602   5.113  13.358  0.00  0.00    +0.000 A 
ATOM     18  C   UNL     1       6.671   4.340  12.663  0.00  0.00    +0.000 A 
ATOM     19  C   UNL     1       5.724   3.588  13.357  0.00  0.00    +0.000 A 
ATOM     20  C   UNL     1       5.687   3.617  14.751  0.00  0.00    +0.000 A 
ATOM     21  C   UNL     1       6.592   4.412  15.478  0.00  0.00    +0.000 A 
ATOM     22  C   UNL     1       7.571   5.126  14.759  0.00  0.00    +0.000 A 
ENDBRANCH  15  21
BRANCH  15  23
ATOM     23  C   UNL     1       7.378   5.454  17.681  0.00  0.00    +0.000 C 
ATOM     24  N   UNL     1       8.121   6.190  18.179  0.00  0.00    +0.000 NA
ENDBRANCH  15  23
ENDBRANCH   1  15
TORSDOF 4
ENDMDL
MODEL 7
REMARK VINA RESULT:      -7.5      2.827      6.387
REMARK  Name = 
REMARK  5 active torsions:
REMARK  status: ('A' for Active; 'I' for Inactive)
REMARK    1  A    between atoms: C_1  and  C_2
REMARK    2  A    between atoms: C_6  and  C_7
REMARK    3  A    between atoms: C_7  and  C_8
REMARK    4  A    between atoms: C_7  and  C_10
REMARK    5  A    between atoms: C_19  and  C_20
REMARK                            x       y       z     vdW  Elec       q    Type
REMARK                         _______ _______ _______ _____ _____    ______ ____
ROOT
ATOM      1  C   UNL     1       2.551   5.596  18.470  0.00  0.00    +0.000 A 
ATOM      2  N   UNL     1       2.347   6.849  17.948  0.00  0.00    +0.000 NA
ATOM      3  C   UNL     1       1.904   7.834  18.753  0.00  0.00    +0.000 A 
ATOM      4  C   UNL     1       1.776   9.134  18.272  0.00  0.00    +0.000 A 
ATOM      5  C   UNL     1       1.358  10.181  19.099  0.00  0.00    +0.000 A 
ATOM      6  C   UNL     1       1.042   9.919  20.425  0.00  0.00    +0.000 A 
ATOM      7  C   UNL     1       1.163   8.618  20.913  0.00  0.00    +0.000 A 
ATOM      8  C   UNL     1       1.604   7.580  20.100  0.00  0.00    +0.000 A 
ATOM      9  N   UNL     1       1.769   6.351  20.616  0.00  0.00    +0.000 NA
ATOM     10  C   UNL     1       2.269   5.347  19.817  0.00  0.00    +0.000 A 
ENDROOT
BRANCH  10  11
ATOM     11  C   UNL     1       2.548   4.049  20.550  0.00  0.00    +0.000 C 
ATOM     12  F   UNL     1       3.721   3.444  20.242  0.00  0.00    +0.000 F 
ATOM     13  F   UNL     1       2.561   4.219  21.905  0.00  0.00    +0.000 F 
ATOM     14  F   UNL     1       1.598   3.098  20.310  0.00  0.00    +0.000 F 
ENDBRANCH  10  11
BRANCH   1  15
ATOM     15  C   UNL     1       3.174   4.625  17.466  0.00  0.00    +0.000 C 
BRANCH  15  21
ATOM     16  C   UNL     1       7.656   5.776  19.555  0.00  0.00    +0.000 C 
ATOM     17  C   UNL     1       6.879   5.182  18.417  0.00  0.00    +0.000 A 
ATOM     18  C   UNL     1       7.514   4.746  17.253  0.00  0.00    +0.000 A 
ATOM     19  C   UNL     1       6.766   4.240  16.191  0.00  0.00    +0.000 A 
ATOM     20  C   UNL     1       5.375   4.183  16.274  0.00  0.00    +0.000 A 
ATOM     21  C   UNL     1       4.704   4.644  17.421  0.00  0.00    +0.000 A 
ATOM     22  C   UNL     1       5.482   5.107  18.501  0.00  0.00    +0.000 A 
ENDBRANCH  15  21
BRANCH  15  23
ATOM     23  C   UNL     1       2.536   3.284  17.520  0.00  0.00    +0.000 C 
ATOM     24  N   UNL     1       2.091   2.215  17.525  0.00  0.00    +0.000 NA
ENDBRANCH  15  23
ENDBRANCH   1  15
TORSDOF 4
ENDMDL
MODEL 8
REMARK VINA RESULT:      -7.4      3.144      6.450
REMARK  Name = 
REMARK  5 active torsions:
REMARK  status: ('A' for Active; 'I' for Inactive)
REMARK    1  A    between atoms: C_1  and  C_2
REMARK    2  A    between atoms: C_6  and  C_7
REMARK    3  A    between atoms: C_7  and  C_8
REMARK    4  A    between atoms: C_7  and  C_10
REMARK    5  A    between atoms: C_19  and  C_20
REMARK                            x       y       z     vdW  Elec       q    Type
REMARK                         _______ _______ _______ _____ _____    ______ ____
ROOT
ATOM      1  C   UNL     1       2.637   6.441  18.401  0.00  0.00    +0.000 A 
ATOM      2  N   UNL     1       2.379   7.699  17.917  0.00  0.00    +0.000 NA
ATOM      3  C   UNL     1       1.814   8.613  18.728  0.00  0.00    +0.000 A 
ATOM      4  C   UNL     1       1.626   9.922  18.292  0.00  0.00    +0.000 A 
ATOM      5  C   UNL     1       1.078  10.899  19.130  0.00  0.00    +0.000 A 
ATOM      6  C   UNL     1       0.693  10.556  20.419  0.00  0.00    +0.000 A 
ATOM      7  C   UNL     1       0.875   9.245  20.861  0.00  0.00    +0.000 A 
ATOM      8  C   UNL     1       1.443   8.278  20.039  0.00  0.00    +0.000 A 
ATOM      9  N   UNL     1       1.661   7.041  20.515  0.00  0.00    +0.000 NA
ATOM     10  C   UNL     1       2.284   6.112  19.713  0.00  0.00    +0.000 A 
ENDROOT
BRANCH  10  11
ATOM     11  C   UNL     1       2.605   4.804  20.410  0.00  0.00    +0.000 C 
ATOM     12  F   UNL     1       3.854   4.319  20.200  0.00  0.00    +0.000 F 
ATOM     13  F   UNL     1       2.467   4.899  21.766  0.00  0.00    +0.000 F 
ATOM     14  F   UNL     1       1.775   3.789  20.029  0.00  0.00    +0.000 F 
ENDBRANCH  10  11
BRANCH   1  15
ATOM     15  C   UNL     1       3.395   5.561  17.404  0.00  0.00    +0.000 C 
BRANCH  15  21
ATOM     16  C   UNL     1       7.759   8.149  17.585  0.00  0.00    +0.000 C 
ATOM     17  C   UNL     1       7.036   6.836  17.643  0.00  0.00    +0.000 A 
ATOM     18  C   UNL     1       7.731   5.627  17.703  0.00  0.00    +0.000 A 
ATOM     19  C   UNL     1       7.038   4.417  17.709  0.00  0.00    +0.000 A 
ATOM     20  C   UNL     1       5.645   4.404  17.635  0.00  0.00    +0.000 A 
ATOM     21  C   UNL     1       4.919   5.604  17.542  0.00  0.00    +0.000 A 
ATOM     22  C   UNL     1       5.636   6.816  17.586  0.00  0.00    +0.000 A 
ENDBRANCH  15  21
BRANCH  15  23
ATOM     23  C   UNL     1       2.785   4.212  17.278  0.00  0.00    +0.000 C 
ATOM     24  N   UNL     1       2.273   3.185  17.127  0.00  0.00    +0.000 NA
ENDBRANCH  15  23
ENDBRANCH   1  15
TORSDOF 4
ENDMDL
MODEL 9
REMARK VINA RESULT:      -7.4      3.026      4.154
REMARK  Name = 
REMARK  5 active torsions:
REMARK  status: ('A' for Active; 'I' for Inactive)
REMARK    1  A    between atoms: C_1  and  C_2
REMARK    2  A    between atoms: C_6  and  C_7
REMARK    3  A    between atoms: C_7  and  C_8
REMARK    4  A    between atoms: C_7  and  C_10
REMARK    5  A    between atoms: C_19  and  C_20
REMARK                            x       y       z     vdW  Elec       q    Type
REMARK                         _______ _______ _______ _____ _____    ______ ____
ROOT
ATOM      1  C   UNL     1       3.627   4.870  19.052  0.00  0.00    +0.000 A 
ATOM      2  N   UNL     1       4.953   5.170  18.862  0.00  0.00    +0.000 NA
ATOM      3  C   UNL     1       5.543   4.834  17.698  0.00  0.00    +0.000 A 
ATOM      4  C   UNL     1       6.860   5.207  17.442  0.00  0.00    +0.000 A 
ATOM      5  C   UNL     1       7.480   4.906  16.226  0.00  0.00    +0.000 A 
ATOM      6  C   UNL     1       6.778   4.201  15.257  0.00  0.00    +0.000 A 
ATOM      7  C   UNL     1       5.460   3.821  15.508  0.00  0.00    +0.000 A 
ATOM      8  C   UNL     1       4.832   4.142  16.707  0.00  0.00    +0.000 A 
ATOM      9  N   UNL     1       3.542   3.815  16.893  0.00  0.00    +0.000 NA
ATOM     10  C   UNL     1       2.913   4.196  18.057  0.00  0.00    +0.000 A 
ENDROOT
BRANCH  10  11
ATOM     11  C   UNL     1       1.427   3.900  18.087  0.00  0.00    +0.000 C 
ATOM     12  F   UNL     1       0.769   4.313  19.198  0.00  0.00    +0.000 F 
ATOM     13  F   UNL     1       0.770   4.470  17.034  0.00  0.00    +0.000 F 
ATOM     14  F   UNL     1       1.157   2.564  18.005  0.00  0.00    +0.000 F 
ENDBRANCH  10  11
BRANCH   1  15
ATOM     15  C   UNL     1       3.072   5.428  20.365  0.00  0.00    +0.000 C 
BRANCH  15  21
ATOM     16  C   UNL     1       1.850   9.639  17.806  0.00  0.00    +0.000 C 
ATOM     17  C   UNL     1       1.643   8.747  18.995  0.00  0.00    +0.000 A 
ATOM     18  C   UNL     1       0.799   9.119  20.043  0.00  0.00    +0.000 A 
ATOM     19  C   UNL     1       0.658   8.294  21.159  0.00  0.00    +0.000 A 
ATOM     20  C   UNL     1       1.374   7.100  21.246  0.00  0.00    +0.000 A 
ATOM     21  C   UNL     1       2.255   6.713  20.220  0.00  0.00    +0.000 A 
ATOM     22  C   UNL     1       2.346   7.538  19.081  0.00  0.00    +0.000 A 
ENDBRANCH  15  21
BRANCH  15  23
ATOM     23  C   UNL     1       2.476   4.363  21.213  0.00  0.00    +0.000 C 
ATOM     24  N   UNL     1       2.066   3.495  21.861  0.00  0.00    +0.000 NA
ENDBRANCH  15  23
ENDBRANCH   1  15
TORSDOF 4
ENDMDL
