MODEL 1
REMARK VINA RESULT:      -7.8      0.000      0.000
REMARK  Name = 
REMARK  4 active torsions:
REMARK  status: ('A' for Active; 'I' for Inactive)
REMARK    1  A    between atoms: C_2  and  C_17
REMARK    2  A    between atoms: N_3  and  C_4
REMARK    3  A    between atoms: C_9  and  O_10
REMARK    4  A    between atoms: O_10  and  C_11
REMARK                            x       y       z     vdW  Elec       q    Type
REMARK                         _______ _______ _______ _____ _____    ______ ____
ROOT
ATOM      1  C   UNL     1       2.774   3.803  18.780  0.00  0.00    +0.000 A 
ATOM      2  C   UNL     1       2.024   2.620  18.926  0.00  0.00    +0.000 A 
ATOM      3  C   UNL     1       1.152   2.436  19.999  0.00  0.00    +0.000 A 
ATOM      4  C   UNL     1       1.010   3.438  20.950  0.00  0.00    +0.000 A 
ATOM      5  C   UNL     1       1.774   4.599  20.845  0.00  0.00    +0.000 A 
ATOM      6  C   UNL     1       2.685   4.778  19.790  0.00  0.00    +0.000 A 
ENDROOT
BRANCH   1   9
ATOM      7  O   UNL     1       5.612   3.776  18.694  0.00  0.00    +0.000 OA
ATOM      8  C   UNL     1       4.960   4.045  17.685  0.00  0.00    +0.000 C 
ATOM      9  N   UNL     1       3.583   3.964  17.636  0.00  0.00    +0.000 N 
ATOM     10  H   UNL     1       3.193   3.766  16.725  0.00  0.00    +0.000 HD
BRANCH   8  11
ATOM     11  C   UNL     1       5.633   4.418  16.447  0.00  0.00    +0.000 A 
ATOM     12  C   UNL     1       5.251   4.038  15.172  0.00  0.00    +0.000 A 
ATOM     13  C   UNL     1       6.205   4.398  14.183  0.00  0.00    +0.000 A 
ATOM     14  C   UNL     1       7.274   5.073  14.728  0.00  0.00    +0.000 A 
ATOM     15  S   UNL     1       7.096   5.308  16.416  0.00  0.00    +0.000 S 
ENDBRANCH   8  11
ENDBRANCH   1   9
BRANCH   6  16
ATOM     16  O   UNL     1       3.239   6.038  19.762  0.00  0.00    +0.000 OA
BRANCH  16  17
ATOM     17  C   UNL     1       2.502   7.156  19.473  0.00  0.00    +0.000 A 
ATOM     18  C   UNL     1       2.548   7.548  18.131  0.00  0.00    +0.000 A 
ATOM     19  C   UNL     1       1.881   8.696  17.706  0.00  0.00    +0.000 A 
ATOM     20  C   UNL     1       1.170   9.460  18.630  0.00  0.00    +0.000 A 
ATOM     21  C   UNL     1       1.091   9.050  19.963  0.00  0.00    +0.000 A 
ATOM     22  C   UNL     1       1.731   7.881  20.381  0.00  0.00    +0.000 A 
ENDBRANCH  16  17
ENDBRANCH   6  16
TORSDOF 4
ENDMDL
MODEL 2
REMARK VINA RESULT:      -7.8      1.844      2.390
REMARK  Name = 
REMARK  4 active torsions:
REMARK  status: ('A' for Active; 'I' for Inactive)
REMARK    1  A    between atoms: C_2  and  C_17
REMARK    2  A    between atoms: N_3  and  C_4
REMARK    3  A    between atoms: C_9  and  O_10
REMARK    4  A    between atoms: O_10  and  C_11
REMARK                            x       y       z     vdW  Elec       q    Type
REMARK                         _______ _______ _______ _____ _____    ______ ____
ROOT
ATOM      1  C   UNL     1       2.925   4.363  18.808  0.00  0.00    +0.000 A 
ATOM      2  C   UNL     1       2.524   3.197  18.128  0.00  0.00    +0.000 A 
ATOM      3  C   UNL     1       1.368   2.503  18.487  0.00  0.00    +0.000 A 
ATOM      4  C   UNL     1       0.585   2.967  19.537  0.00  0.00    +0.000 A 
ATOM      5  C   UNL     1       0.988   4.095  20.249  0.00  0.00    +0.000 A 
ATOM      6  C   UNL     1       2.172   4.779  19.922  0.00  0.00    +0.000 A 
ENDROOT
BRANCH   1   9
ATOM      7  O   UNL     1       5.630   3.826  19.486  0.00  0.00    +0.000 OA
ATOM      8  C   UNL     1       5.341   4.813  18.809  0.00  0.00    +0.000 C 
ATOM      9  N   UNL     1       4.062   5.063  18.354  0.00  0.00    +0.000 N 
ATOM     10  H   UNL     1       4.004   5.592  17.496  0.00  0.00    +0.000 HD
BRANCH   8  11
ATOM     11  C   UNL     1       6.372   5.757  18.399  0.00  0.00    +0.000 A 
ATOM     12  C   UNL     1       7.576   5.971  19.046  0.00  0.00    +0.000 A 
ATOM     13  C   UNL     1       8.291   7.083  18.523  0.00  0.00    +0.000 A 
ATOM     14  C   UNL     1       7.626   7.666  17.468  0.00  0.00    +0.000 A 
ATOM     15  S   UNL     1       6.172   6.841  17.088  0.00  0.00    +0.000 S 
ENDBRANCH   8  11
ENDBRANCH   1   9
BRANCH   6  16
ATOM     16  O   UNL     1       2.334   5.948  20.629  0.00  0.00    +0.000 OA
BRANCH  16  17
ATOM     17  C   UNL     1       1.938   7.163  20.135  0.00  0.00    +0.000 A 
ATOM     18  C   UNL     1       1.179   7.929  21.025  0.00  0.00    +0.000 A 
ATOM     19  C   UNL     1       0.670   9.169  20.636  0.00  0.00    +0.000 A 
ATOM     20  C   UNL     1       0.916   9.638  19.348  0.00  0.00    +0.000 A 
ATOM     21  C   UNL     1       1.704   8.893  18.469  0.00  0.00    +0.000 A 
ATOM     22  C   UNL     1       2.243   7.668  18.870  0.00  0.00    +0.000 A 
ENDBRANCH  16  17
ENDBRANCH   6  16
TORSDOF 4
ENDMDL
MODEL 3
REMARK VINA RESULT:      -7.7      0.310      1.097
REMARK  Name = 
REMARK  4 active torsions:
REMARK  status: ('A' for Active; 'I' for Inactive)
REMARK    1  A    between atoms: C_2  and  C_17
REMARK    2  A    between atoms: N_3  and  C_4
REMARK    3  A    between atoms: C_9  and  O_10
REMARK    4  A    between atoms: O_10  and  C_11
REMARK                            x       y       z     vdW  Elec       q    Type
REMARK                         _______ _______ _______ _____ _____    ______ ____
ROOT
ATOM      1  C   UNL     1       2.567   3.893  18.497  0.00  0.00    +0.000 A 
ATOM      2  C   UNL     1       1.738   2.756  18.502  0.00  0.00    +0.000 A 
ATOM      3  C   UNL     1       0.780   2.555  19.496  0.00  0.00    +0.000 A 
ATOM      4  C   UNL     1       0.629   3.495  20.507  0.00  0.00    +0.000 A 
ATOM      5  C   UNL     1       1.469   4.607  20.542  0.00  0.00    +0.000 A 
ATOM      6  C   UNL     1       2.465   4.799  19.569  0.00  0.00    +0.000 A 
ENDROOT
BRANCH   1   9
ATOM      7  O   UNL     1       5.392   3.619  18.590  0.00  0.00    +0.000 OA
ATOM      8  C   UNL     1       4.839   4.032  17.571  0.00  0.00    +0.000 C 
ATOM      9  N   UNL     1       3.467   4.080  17.427  0.00  0.00    +0.000 N 
ATOM     10  H   UNL     1       3.129   3.999  16.479  0.00  0.00    +0.000 HD
BRANCH   8  11
ATOM     11  C   UNL     1       5.627   4.450  16.419  0.00  0.00    +0.000 A 
ATOM     12  C   UNL     1       5.371   4.119  15.100  0.00  0.00    +0.000 A 
ATOM     13  C   UNL     1       6.416   4.514  14.222  0.00  0.00    +0.000 A 
ATOM     14  C   UNL     1       7.426   5.167  14.892  0.00  0.00    +0.000 A 
ATOM     15  S   UNL     1       7.085   5.338  16.562  0.00  0.00    +0.000 S 
ENDBRANCH   8  11
ENDBRANCH   1   9
BRANCH   6  16
ATOM     16  O   UNL     1       3.095   6.018  19.674  0.00  0.00    +0.000 OA
BRANCH  16  17
ATOM     17  C   UNL     1       2.495   7.188  19.291  0.00  0.00    +0.000 A 
ATOM     18  C   UNL     1       1.822   7.856  20.318  0.00  0.00    +0.000 A 
ATOM     19  C   UNL     1       1.127   9.037  20.058  0.00  0.00    +0.000 A 
ATOM     20  C   UNL     1       1.100   9.547  18.762  0.00  0.00    +0.000 A 
ATOM     21  C   UNL     1       1.802   8.903  17.741  0.00  0.00    +0.000 A 
ATOM     22  C   UNL     1       2.527   7.739  18.009  0.00  0.00    +0.000 A 
ENDBRANCH  16  17
ENDBRANCH   6  16
TORSDOF 4
ENDMDL
MODEL 4
REMARK VINA RESULT:      -7.5      1.822      2.133
REMARK  Name = 
REMARK  4 active torsions:
REMARK  status: ('A' for Active; 'I' for Inactive)
REMARK    1  A    between atoms: C_2  and  C_17
REMARK    2  A    between atoms: N_3  and  C_4
REMARK    3  A    between atoms: C_9  and  O_10
REMARK    4  A    between atoms: O_10  and  C_11
REMARK                            x       y       z     vdW  Elec       q    Type
REMARK                         _______ _______ _______ _____ _____    ______ ____
ROOT
ATOM      1  C   UNL     1       2.919   4.320  18.844  0.00  0.00    +0.000 A 
ATOM      2  C   UNL     1       2.493   3.173  18.148  0.00  0.00    +0.000 A 
ATOM      3  C   UNL     1       1.337   2.483  18.515  0.00  0.00    +0.000 A 
ATOM      4  C   UNL     1       0.580   2.932  19.589  0.00  0.00    +0.000 A 
ATOM      5  C   UNL     1       1.007   4.042  20.317  0.00  0.00    +0.000 A 
ATOM      6  C   UNL     1       2.191   4.720  19.980  0.00  0.00    +0.000 A 
ENDROOT
BRANCH   1   9
ATOM      7  O   UNL     1       5.629   3.761  19.480  0.00  0.00    +0.000 OA
ATOM      8  C   UNL     1       5.337   4.757  18.818  0.00  0.00    +0.000 C 
ATOM      9  N   UNL     1       4.053   5.020  18.383  0.00  0.00    +0.000 N 
ATOM     10  H   UNL     1       3.987   5.558  17.531  0.00  0.00    +0.000 HD
BRANCH   8  11
ATOM     11  C   UNL     1       6.368   5.700  18.405  0.00  0.00    +0.000 A 
ATOM     12  C   UNL     1       7.561   5.934  19.065  0.00  0.00    +0.000 A 
ATOM     13  C   UNL     1       8.276   7.040  18.531  0.00  0.00    +0.000 A 
ATOM     14  C   UNL     1       7.623   7.598  17.455  0.00  0.00    +0.000 A 
ATOM     15  S   UNL     1       6.181   6.757  17.070  0.00  0.00    +0.000 S 
ENDBRANCH   8  11
ENDBRANCH   1   9
BRANCH   6  16
ATOM     16  O   UNL     1       2.379   5.873  20.708  0.00  0.00    +0.000 OA
BRANCH  16  17
ATOM     17  C   UNL     1       1.877   7.083  20.305  0.00  0.00    +0.000 A 
ATOM     18  C   UNL     1       2.245   7.459  19.009  0.00  0.00    +0.000 A 
ATOM     19  C   UNL     1       1.843   8.688  18.488  0.00  0.00    +0.000 A 
ATOM     20  C   UNL     1       1.075   9.548  19.270  0.00  0.00    +0.000 A 
ATOM     21  C   UNL     1       0.674   9.160  20.550  0.00  0.00    +0.000 A 
ATOM     22  C   UNL     1       1.048   7.913  21.059  0.00  0.00    +0.000 A 
ENDBRANCH  16  17
ENDBRANCH   6  16
TORSDOF 4
ENDMDL
MODEL 5
REMARK VINA RESULT:      -7.5      2.487      6.247
REMARK  Name = 
REMARK  4 active torsions:
REMARK  status: ('A' for Active; 'I' for Inactive)
REMARK    1  A    between atoms: C_2  and  C_17
REMARK    2  A    between atoms: N_3  and  C_4
REMARK    3  A    between atoms: C_9  and  O_10
REMARK    4  A    between atoms: O_10  and  C_11
REMARK                            x       y       z     vdW  Elec       q    Type
REMARK                         _______ _______ _______ _____ _____    ______ ____
ROOT
ATOM      1  C   UNL     1       4.098   6.031  17.725  0.00  0.00    +0.000 A 
ATOM      2  C   UNL     1       5.201   6.772  17.260  0.00  0.00    +0.000 A 
ATOM      3  C   UNL     1       6.096   6.243  16.330  0.00  0.00    +0.000 A 
ATOM      4  C   UNL     1       5.903   4.957  15.843  0.00  0.00    +0.000 A 
ATOM      5  C   UNL     1       4.841   4.192  16.323  0.00  0.00    +0.000 A 
ATOM      6  C   UNL     1       3.956   4.701  17.289  0.00  0.00    +0.000 A 
ENDROOT
BRANCH   1   9
ATOM      7  O   UNL     1       2.497   8.316  17.193  0.00  0.00    +0.000 OA
ATOM      8  C   UNL     1       2.517   7.816  18.318  0.00  0.00    +0.000 C 
ATOM      9  N   UNL     1       3.185   6.643  18.608  0.00  0.00    +0.000 N 
ATOM     10  H   UNL     1       2.800   6.104  19.370  0.00  0.00    +0.000 HD
BRANCH   8  11
ATOM     11  C   UNL     1       1.771   8.426  19.412  0.00  0.00    +0.000 A 
ATOM     12  C   UNL     1       1.597   7.885  20.673  0.00  0.00    +0.000 A 
ATOM     13  C   UNL     1       0.669   8.617  21.461  0.00  0.00    +0.000 A 
ATOM     14  C   UNL     1       0.187   9.719  20.790  0.00  0.00    +0.000 A 
ATOM     15  S   UNL     1       0.891   9.885  19.236  0.00  0.00    +0.000 S 
ENDBRANCH   8  11
ENDBRANCH   1   9
BRANCH   6  16
ATOM     16  O   UNL     1       2.887   3.869  17.534  0.00  0.00    +0.000 OA
BRANCH  16  17
ATOM     17  C   UNL     1       2.532   3.486  18.801  0.00  0.00    +0.000 A 
ATOM     18  C   UNL     1       1.182   3.683  19.107  0.00  0.00    +0.000 A 
ATOM     19  C   UNL     1       0.693   3.380  20.377  0.00  0.00    +0.000 A 
ATOM     20  C   UNL     1       1.562   2.886  21.348  0.00  0.00    +0.000 A 
ATOM     21  C   UNL     1       2.902   2.653  21.035  0.00  0.00    +0.000 A 
ATOM     22  C   UNL     1       3.384   2.924  19.751  0.00  0.00    +0.000 A 
ENDBRANCH  16  17
ENDBRANCH   6  16
TORSDOF 4
ENDMDL
MODEL 6
REMARK VINA RESULT:      -7.5      2.497      5.290
REMARK  Name = 
REMARK  4 active torsions:
REMARK  status: ('A' for Active; 'I' for Inactive)
REMARK    1  A    between atoms: C_2  and  C_17
REMARK    2  A    between atoms: N_3  and  C_4
REMARK    3  A    between atoms: C_9  and  O_10
REMARK    4  A    between atoms: O_10  and  C_11
REMARK                            x       y       z     vdW  Elec       q    Type
REMARK                         _______ _______ _______ _____ _____    ______ ____
ROOT
ATOM      1  C   UNL     1       2.462   4.520  17.984  0.00  0.00    +0.000 A 
ATOM      2  C   UNL     1       1.598   3.659  18.687  0.00  0.00    +0.000 A 
ATOM      3  C   UNL     1       1.864   2.294  18.806  0.00  0.00    +0.000 A 
ATOM      4  C   UNL     1       3.008   1.763  18.224  0.00  0.00    +0.000 A 
ATOM      5  C   UNL     1       3.854   2.592  17.489  0.00  0.00    +0.000 A 
ATOM      6  C   UNL     1       3.574   3.960  17.329  0.00  0.00    +0.000 A 
ENDROOT
BRANCH   1   9
ATOM      7  O   UNL     1       3.247   6.444  19.919  0.00  0.00    +0.000 OA
ATOM      8  C   UNL     1       2.505   6.761  18.989  0.00  0.00    +0.000 C 
ATOM      9  N   UNL     1       2.181   5.902  17.959  0.00  0.00    +0.000 N 
ATOM     10  H   UNL     1       1.967   6.344  17.078  0.00  0.00    +0.000 HD
BRANCH   8  11
ATOM     11  C   UNL     1       1.965   8.112  18.902  0.00  0.00    +0.000 A 
ATOM     12  C   UNL     1       2.101   8.970  17.825  0.00  0.00    +0.000 A 
ATOM     13  C   UNL     1       1.630  10.281  18.105  0.00  0.00    +0.000 A 
ATOM     14  C   UNL     1       1.116  10.378  19.378  0.00  0.00    +0.000 A 
ATOM     15  S   UNL     1       1.163   8.879  20.207  0.00  0.00    +0.000 S 
ENDBRANCH   8  11
ENDBRANCH   1   9
BRANCH   6  16
ATOM     16  O   UNL     1       4.589   4.649  16.704  0.00  0.00    +0.000 OA
BRANCH  16  17
ATOM     17  C   UNL     1       5.604   5.249  17.401  0.00  0.00    +0.000 A 
ATOM     18  C   UNL     1       6.142   6.381  16.781  0.00  0.00    +0.000 A 
ATOM     19  C   UNL     1       7.213   7.063  17.358  0.00  0.00    +0.000 A 
ATOM     20  C   UNL     1       7.752   6.605  18.558  0.00  0.00    +0.000 A 
ATOM     21  C   UNL     1       7.193   5.497  19.200  0.00  0.00    +0.000 A 
ATOM     22  C   UNL     1       6.098   4.835  18.639  0.00  0.00    +0.000 A 
ENDBRANCH  16  17
ENDBRANCH   6  16
TORSDOF 4
ENDMDL
MODEL 7
REMARK VINA RESULT:      -7.5      2.957      5.010
REMARK  Name = 
REMARK  4 active torsions:
REMARK  status: ('A' for Active; 'I' for Inactive)
REMARK    1  A    between atoms: C_2  and  C_17
REMARK    2  A    between atoms: N_3  and  C_4
REMARK    3  A    between atoms: C_9  and  O_10
REMARK    4  A    between atoms: O_10  and  C_11
REMARK                            x       y       z     vdW  Elec       q    Type
REMARK                         _______ _______ _______ _____ _____    ______ ____
ROOT
ATOM      1  C   UNL     1       6.301   4.451  16.628  0.00  0.00    +0.000 A 
ATOM      2  C   UNL     1       7.597   4.553  17.170  0.00  0.00    +0.000 A 
ATOM      3  C   UNL     1       7.820   5.105  18.431  0.00  0.00    +0.000 A 
ATOM      4  C   UNL     1       6.746   5.566  19.181  0.00  0.00    +0.000 A 
ATOM      5  C   UNL     1       5.460   5.512  18.645  0.00  0.00    +0.000 A 
ATOM      6  C   UNL     1       5.228   4.995  17.359  0.00  0.00    +0.000 A 
ENDROOT
BRANCH   1   9
ATOM      7  O   UNL     1       7.158   5.419  14.100  0.00  0.00    +0.000 OA
ATOM      8  C   UNL     1       6.477   4.397  14.178  0.00  0.00    +0.000 C 
ATOM      9  N   UNL     1       6.127   3.817  15.381  0.00  0.00    +0.000 N 
ATOM     10  H   UNL     1       5.980   2.818  15.353  0.00  0.00    +0.000 HD
BRANCH   8  11
ATOM     11  C   UNL     1       6.045   3.702  12.972  0.00  0.00    +0.000 A 
ATOM     12  C   UNL     1       4.747   3.637  12.498  0.00  0.00    +0.000 A 
ATOM     13  C   UNL     1       4.605   2.735  11.409  0.00  0.00    +0.000 A 
ATOM     14  C   UNL     1       5.808   2.161  11.061  0.00  0.00    +0.000 A 
ATOM     15  S   UNL     1       7.102   2.750  12.018  0.00  0.00    +0.000 S 
ENDBRANCH   8  11
ENDBRANCH   1   9
BRANCH   6  16
ATOM     16  O   UNL     1       3.890   4.882  17.055  0.00  0.00    +0.000 OA
BRANCH  16  17
ATOM     17  C   UNL     1       3.086   3.933  17.630  0.00  0.00    +0.000 A 
ATOM     18  C   UNL     1       1.871   4.425  18.117  0.00  0.00    +0.000 A 
ATOM     19  C   UNL     1       0.975   3.577  18.769  0.00  0.00    +0.000 A 
ATOM     20  C   UNL     1       1.302   2.234  18.941  0.00  0.00    +0.000 A 
ATOM     21  C   UNL     1       2.498   1.732  18.424  0.00  0.00    +0.000 A 
ATOM     22  C   UNL     1       3.379   2.574  17.740  0.00  0.00    +0.000 A 
ENDBRANCH  16  17
ENDBRANCH   6  16
TORSDOF 4
ENDMDL
MODEL 8
REMARK VINA RESULT:      -7.4      2.597      6.349
REMARK  Name = 
REMARK  4 active torsions:
REMARK  status: ('A' for Active; 'I' for Inactive)
REMARK    1  A    between atoms: C_2  and  C_17
REMARK    2  A    between atoms: N_3  and  C_4
REMARK    3  A    between atoms: C_9  and  O_10
REMARK    4  A    between atoms: O_10  and  C_11
REMARK                            x       y       z     vdW  Elec       q    Type
REMARK                         _______ _______ _______ _____ _____    ______ ____
ROOT
ATOM      1  C   UNL     1       3.803   6.192  17.788  0.00  0.00    +0.000 A 
ATOM      2  C   UNL     1       4.879   6.933  17.262  0.00  0.00    +0.000 A 
ATOM      3  C   UNL     1       5.750   6.386  16.320  0.00  0.00    +0.000 A 
ATOM      4  C   UNL     1       5.559   5.083  15.880  0.00  0.00    +0.000 A 
ATOM      5  C   UNL     1       4.524   4.320  16.420  0.00  0.00    +0.000 A 
ATOM      6  C   UNL     1       3.665   4.847  17.400  0.00  0.00    +0.000 A 
ENDROOT
BRANCH   1   9
ATOM      7  O   UNL     1       2.311   8.561  17.311  0.00  0.00    +0.000 OA
ATOM      8  C   UNL     1       2.300   8.030  18.421  0.00  0.00    +0.000 C 
ATOM      9  N   UNL     1       2.911   6.821  18.683  0.00  0.00    +0.000 N 
ATOM     10  H   UNL     1       2.497   6.278  19.427  0.00  0.00    +0.000 HD
BRANCH   8  11
ATOM     11  C   UNL     1       1.574   8.642  19.527  0.00  0.00    +0.000 A 
ATOM     12  C   UNL     1       1.411   8.098  20.788  0.00  0.00    +0.000 A 
ATOM     13  C   UNL     1       0.501   8.836  21.592  0.00  0.00    +0.000 A 
ATOM     14  C   UNL     1       0.019   9.943  20.931  0.00  0.00    +0.000 A 
ATOM     15  S   UNL     1       0.703  10.109  19.368  0.00  0.00    +0.000 S 
ENDBRANCH   8  11
ENDBRANCH   1   9
BRANCH   6  16
ATOM     16  O   UNL     1       2.617   4.010  17.707  0.00  0.00    +0.000 OA
BRANCH  16  17
ATOM     17  C   UNL     1       2.358   3.601  18.989  0.00  0.00    +0.000 A 
ATOM     18  C   UNL     1       3.454   3.037  19.648  0.00  0.00    +0.000 A 
ATOM     19  C   UNL     1       3.320   2.535  20.942  0.00  0.00    +0.000 A 
ATOM     20  C   UNL     1       2.080   2.592  21.576  0.00  0.00    +0.000 A 
ATOM     21  C   UNL     1       0.993   3.188  20.934  0.00  0.00    +0.000 A 
ATOM     22  C   UNL     1       1.136   3.722  19.651  0.00  0.00    +0.000 A 
ENDBRANCH  16  17
ENDBRANCH   6  16
TORSDOF 4
ENDMDL
MODEL 9
REMARK VINA RESULT:      -7.4      2.726      4.812
REMARK  Name = 
REMARK  4 active torsions:
REMARK  status: ('A' for Active; 'I' for Inactive)
REMARK    1  A    between atoms: C_2  and  C_17
REMARK    2  A    between atoms: N_3  and  C_4
REMARK    3  A    between atoms: C_9  and  O_10
REMARK    4  A    between atoms: O_10  and  C_11
REMARK                            x       y       z     vdW  Elec       q    Type
REMARK                         _______ _______ _______ _____ _____    ______ ____
ROOT
ATOM      1  C   UNL     1       6.310   4.515  16.727  0.00  0.00    +0.000 A 
ATOM      2  C   UNL     1       7.608   4.514  17.271  0.00  0.00    +0.000 A 
ATOM      3  C   UNL     1       7.870   5.043  18.536  0.00  0.00    +0.000 A 
ATOM      4  C   UNL     1       6.833   5.583  19.284  0.00  0.00    +0.000 A 
ATOM      5  C   UNL     1       5.548   5.631  18.746  0.00  0.00    +0.000 A 
ATOM      6  C   UNL     1       5.280   5.138  17.457  0.00  0.00    +0.000 A 
ENDROOT
BRANCH   1   9
ATOM      7  O   UNL     1       7.427   5.296  14.235  0.00  0.00    +0.000 OA
ATOM      8  C   UNL     1       6.585   4.399  14.288  0.00  0.00    +0.000 C 
ATOM      9  N   UNL     1       6.091   3.901  15.476  0.00  0.00    +0.000 N 
ATOM     10  H   UNL     1       5.783   2.939  15.448  0.00  0.00    +0.000 HD
BRANCH   8  11
ATOM     11  C   UNL     1       6.099   3.768  13.067  0.00  0.00    +0.000 A 
ATOM     12  C   UNL     1       4.786   3.751  12.633  0.00  0.00    +0.000 A 
ATOM     13  C   UNL     1       4.590   2.901  11.511  0.00  0.00    +0.000 A 
ATOM     14  C   UNL     1       5.768   2.319  11.099  0.00  0.00    +0.000 A 
ATOM     15  S   UNL     1       7.104   2.838  12.038  0.00  0.00    +0.000 S 
ENDBRANCH   8  11
ENDBRANCH   1   9
BRANCH   6  16
ATOM     16  O   UNL     1       3.939   5.130  17.149  0.00  0.00    +0.000 OA
BRANCH  16  17
ATOM     17  C   UNL     1       3.041   4.329  17.806  0.00  0.00    +0.000 A 
ATOM     18  C   UNL     1       3.153   2.968  17.507  0.00  0.00    +0.000 A 
ATOM     19  C   UNL     1       2.272   2.045  18.069  0.00  0.00    +0.000 A 
ATOM     20  C   UNL     1       1.270   2.488  18.930  0.00  0.00    +0.000 A 
ATOM     21  C   UNL     1       1.179   3.842  19.260  0.00  0.00    +0.000 A 
ATOM     22  C   UNL     1       2.084   4.762  18.724  0.00  0.00    +0.000 A 
ENDBRANCH  16  17
ENDBRANCH   6  16
TORSDOF 4
ENDMDL
