MODEL 1
REMARK VINA RESULT:      -7.9      0.000      0.000
REMARK  Name = 
REMARK  16 active torsions:
REMARK  status: ('A' for Active; 'I' for Inactive)
REMARK    1  A    between atoms: C_1  and  C_2
REMARK    2  A    between atoms: C_2  and  C_3
REMARK    3  A    between atoms: C_3  and  C_4
REMARK    4  A    between atoms: C_4  and  C_5
REMARK    5  A    between atoms: C_5  and  C_6
REMARK    6  A    between atoms: C_6  and  C_7
REMARK    7  A    between atoms: C_7  and  C_8
REMARK    8  A    between atoms: C_8  and  C_9
REMARK    9  A    between atoms: C_9  and  C_10
REMARK   10  A    between atoms: C_10  and  C_11
REMARK   11  A    between atoms: C_11  and  C_12
REMARK   12  A    between atoms: C_19  and  N_20
REMARK   13  A    between atoms: N_20  and  C_21
REMARK   14  A    between atoms: N_20  and  C_22
REMARK   15  A    between atoms: N_29  and  C_30
REMARK   16  A    between atoms: N_29  and  C_31
REMARK                            x       y       z     vdW  Elec       q    Type
REMARK                         _______ _______ _______ _____ _____    ______ ____
ROOT
ATOM      1  C   UNL     1       3.962   5.658  18.225  0.00  0.00    +0.000 A 
ATOM      2  C   UNL     1       3.627   6.925  17.893  0.00  0.00    +0.000 A 
ATOM      3  C   UNL     1       2.617   7.776  18.585  0.00  0.00    +0.000 A 
ATOM      4  N   UNL     1       2.372   8.962  18.125  0.00  0.00    +0.000 NA
ATOM      5  C   UNL     1       1.451   9.822  18.768  0.00  0.00    +0.000 A 
ATOM      6  C   UNL     1       1.233  11.102  18.250  0.00  0.00    +0.000 A 
ATOM      7  C   UNL     1       0.331  12.000  18.866  0.00  0.00    +0.000 A 
ATOM      8  C   UNL     1      -0.394  11.655  20.016  0.00  0.00    +0.000 A 
ATOM      9  C   UNL     1      -0.173  10.367  20.497  0.00  0.00    +0.000 A 
ATOM     10  C   UNL     1       0.738   9.478  19.913  0.00  0.00    +0.000 A 
ATOM     11  S   UNL     1       0.923   7.956  20.769  0.00  0.00    +0.000 S 
ATOM     12  C   UNL     1       2.039   7.134  19.783  0.00  0.00    +0.000 A 
ATOM     13  C   UNL     1       2.364   5.892  20.143  0.00  0.00    +0.000 A 
ATOM     14  C   UNL     1       3.236   4.954  19.371  0.00  0.00    +0.000 A 
ATOM     15  N   UNL     1       3.295   3.687  19.725  0.00  0.00    +0.000 N 
ATOM     16  C   UNL     1       2.733   3.135  21.026  0.00  0.00    +0.000 C 
ATOM     17  C   UNL     1       3.906   2.558  18.949  0.00  0.00    +0.000 C 
ENDROOT
BRANCH   8  18
ATOM     18  N   UNL     1      -1.225  12.540  20.682  0.00  0.00    +0.000 N 
ATOM     19  C   UNL     1      -1.668  12.273  22.046  0.00  0.00    +0.000 C 
ATOM     20  C   UNL     1      -1.408  13.925  20.237  0.00  0.00    +0.000 C 
ENDBRANCH   8  18
BRANCH   1  21
ATOM     21  C   UNL     1       5.142   5.066  17.487  0.00  0.00    +0.000 C 
BRANCH  21  22
ATOM     22  C   UNL     1       4.864   4.831  16.002  0.00  0.00    +0.000 C 
BRANCH  22  23
ATOM     23  C   UNL     1       5.829   5.641  15.146  0.00  0.00    +0.000 C 
BRANCH  23  24
ATOM     24  C   UNL     1       6.702   4.728  14.296  0.00  0.00    +0.000 C 
BRANCH  24  25
ATOM     25  C   UNL     1       5.851   3.642  13.651  0.00  0.00    +0.000 C 
BRANCH  25  26
ATOM     26  C   UNL     1       6.350   3.311  12.251  0.00  0.00    +0.000 C 
BRANCH  26  27
ATOM     27  C   UNL     1       5.234   2.664  11.439  0.00  0.00    +0.000 C 
BRANCH  27  28
ATOM     28  C   UNL     1       3.959   3.497  11.498  0.00  0.00    +0.000 C 
BRANCH  28  29
ATOM     29  C   UNL     1       3.107   3.254  10.256  0.00  0.00    +0.000 C 
BRANCH  29  31
ATOM     30  C   UNL     1       1.911   5.063   8.997  0.00  0.00    +0.000 C 
ATOM     31  C   UNL     1       3.251   4.398   9.258  0.00  0.00    +0.000 C 
ENDBRANCH  29  31
ENDBRANCH  28  29
ENDBRANCH  27  28
ENDBRANCH  26  27
ENDBRANCH  25  26
ENDBRANCH  24  25
ENDBRANCH  23  24
ENDBRANCH  22  23
ENDBRANCH  21  22
ENDBRANCH   1  21
TORSDOF 11
ENDMDL
MODEL 2
REMARK VINA RESULT:      -7.8      1.143      1.201
REMARK  Name = 
REMARK  16 active torsions:
REMARK  status: ('A' for Active; 'I' for Inactive)
REMARK    1  A    between atoms: C_1  and  C_2
REMARK    2  A    between atoms: C_2  and  C_3
REMARK    3  A    between atoms: C_3  and  C_4
REMARK    4  A    between atoms: C_4  and  C_5
REMARK    5  A    between atoms: C_5  and  C_6
REMARK    6  A    between atoms: C_6  and  C_7
REMARK    7  A    between atoms: C_7  and  C_8
REMARK    8  A    between atoms: C_8  and  C_9
REMARK    9  A    between atoms: C_9  and  C_10
REMARK   10  A    between atoms: C_10  and  C_11
REMARK   11  A    between atoms: C_11  and  C_12
REMARK   12  A    between atoms: C_19  and  N_20
REMARK   13  A    between atoms: N_20  and  C_21
REMARK   14  A    between atoms: N_20  and  C_22
REMARK   15  A    between atoms: N_29  and  C_30
REMARK   16  A    between atoms: N_29  and  C_31
REMARK                            x       y       z     vdW  Elec       q    Type
REMARK                         _______ _______ _______ _____ _____    ______ ____
ROOT
ATOM      1  C   UNL     1       2.729   4.903  18.198  0.00  0.00    +0.000 A 
ATOM      2  C   UNL     1       2.600   6.182  17.780  0.00  0.00    +0.000 A 
ATOM      3  C   UNL     1       2.100   7.326  18.596  0.00  0.00    +0.000 A 
ATOM      4  N   UNL     1       1.994   8.493  18.045  0.00  0.00    +0.000 NA
ATOM      5  C   UNL     1       1.561   9.617  18.786  0.00  0.00    +0.000 A 
ATOM      6  C   UNL     1       1.481  10.863  18.157  0.00  0.00    +0.000 A 
ATOM      7  C   UNL     1       1.065  12.016  18.862  0.00  0.00    +0.000 A 
ATOM      8  C   UNL     1       0.706  11.972  20.217  0.00  0.00    +0.000 A 
ATOM      9  C   UNL     1       0.774  10.715  20.811  0.00  0.00    +0.000 A 
ATOM     10  C   UNL     1       1.211   9.571  20.133  0.00  0.00    +0.000 A 
ATOM     11  S   UNL     1       1.318   8.128  21.129  0.00  0.00    +0.000 S 
ATOM     12  C   UNL     1       1.824   6.960  20.000  0.00  0.00    +0.000 A 
ATOM     13  C   UNL     1       1.958   5.710  20.442  0.00  0.00    +0.000 A 
ATOM     14  C   UNL     1       2.286   4.514  19.607  0.00  0.00    +0.000 A 
ATOM     15  N   UNL     1       2.168   3.310  20.128  0.00  0.00    +0.000 N 
ATOM     16  C   UNL     1       1.960   3.035  21.609  0.00  0.00    +0.000 C 
ATOM     17  C   UNL     1       2.212   2.000  19.399  0.00  0.00    +0.000 C 
ENDROOT
BRANCH   8  18
ATOM     18  N   UNL     1       0.369  13.098  20.949  0.00  0.00    +0.000 N 
ATOM     19  C   UNL     1      -0.914  13.189  21.638  0.00  0.00    +0.000 C 
ATOM     20  C   UNL     1       1.370  14.076  21.384  0.00  0.00    +0.000 C 
ENDBRANCH   8  18
BRANCH   1  21
ATOM     21  C   UNL     1       3.428   3.959  17.245  0.00  0.00    +0.000 C 
BRANCH  21  22
ATOM     22  C   UNL     1       4.943   4.164  17.203  0.00  0.00    +0.000 C 
BRANCH  22  23
ATOM     23  C   UNL     1       5.352   4.829  15.895  0.00  0.00    +0.000 C 
BRANCH  23  24
ATOM     24  C   UNL     1       6.354   3.969  15.135  0.00  0.00    +0.000 C 
BRANCH  24  25
ATOM     25  C   UNL     1       6.710   4.628  13.809  0.00  0.00    +0.000 C 
BRANCH  25  26
ATOM     26  C   UNL     1       6.399   3.708  12.637  0.00  0.00    +0.000 C 
BRANCH  26  27
ATOM     27  C   UNL     1       4.922   3.336  12.643  0.00  0.00    +0.000 C 
BRANCH  27  28
ATOM     28  C   UNL     1       4.425   3.042  11.232  0.00  0.00    +0.000 C 
BRANCH  28  29
ATOM     29  C   UNL     1       3.500   4.156  10.751  0.00  0.00    +0.000 C 
BRANCH  29  31
ATOM     30  C   UNL     1       2.231   5.039   8.777  0.00  0.00    +0.000 C 
ATOM     31  C   UNL     1       2.894   3.819   9.393  0.00  0.00    +0.000 C 
ENDBRANCH  29  31
ENDBRANCH  28  29
ENDBRANCH  27  28
ENDBRANCH  26  27
ENDBRANCH  25  26
ENDBRANCH  24  25
ENDBRANCH  23  24
ENDBRANCH  22  23
ENDBRANCH  21  22
ENDBRANCH   1  21
TORSDOF 11
ENDMDL
MODEL 3
REMARK VINA RESULT:      -7.7      0.861      1.168
REMARK  Name = 
REMARK  16 active torsions:
REMARK  status: ('A' for Active; 'I' for Inactive)
REMARK    1  A    between atoms: C_1  and  C_2
REMARK    2  A    between atoms: C_2  and  C_3
REMARK    3  A    between atoms: C_3  and  C_4
REMARK    4  A    between atoms: C_4  and  C_5
REMARK    5  A    between atoms: C_5  and  C_6
REMARK    6  A    between atoms: C_6  and  C_7
REMARK    7  A    between atoms: C_7  and  C_8
REMARK    8  A    between atoms: C_8  and  C_9
REMARK    9  A    between atoms: C_9  and  C_10
REMARK   10  A    between atoms: C_10  and  C_11
REMARK   11  A    between atoms: C_11  and  C_12
REMARK   12  A    between atoms: C_19  and  N_20
REMARK   13  A    between atoms: N_20  and  C_21
REMARK   14  A    between atoms: N_20  and  C_22
REMARK   15  A    between atoms: N_29  and  C_30
REMARK   16  A    between atoms: N_29  and  C_31
REMARK                            x       y       z     vdW  Elec       q    Type
REMARK                         _______ _______ _______ _____ _____    ______ ____
ROOT
ATOM      1  C   UNL     1       3.386   5.583  18.749  0.00  0.00    +0.000 A 
ATOM      2  C   UNL     1       3.110   6.845  18.350  0.00  0.00    +0.000 A 
ATOM      3  C   UNL     1       2.198   7.804  19.038  0.00  0.00    +0.000 A 
ATOM      4  N   UNL     1       2.000   8.971  18.512  0.00  0.00    +0.000 NA
ATOM      5  C   UNL     1       1.174   9.930  19.145  0.00  0.00    +0.000 A 
ATOM      6  C   UNL     1       1.005  11.185  18.554  0.00  0.00    +0.000 A 
ATOM      7  C   UNL     1       0.199  12.178  19.158  0.00  0.00    +0.000 A 
ATOM      8  C   UNL     1      -0.474  11.957  20.368  0.00  0.00    +0.000 A 
ATOM      9  C   UNL     1      -0.305  10.691  20.922  0.00  0.00    +0.000 A 
ATOM     10  C   UNL     1       0.512   9.709  20.350  0.00  0.00    +0.000 A 
ATOM     11  S   UNL     1       0.654   8.236  21.297  0.00  0.00    +0.000 S 
ATOM     12  C   UNL     1       1.656   7.280  20.307  0.00  0.00    +0.000 A 
ATOM     13  C   UNL     1       1.924   6.046  20.733  0.00  0.00    +0.000 A 
ATOM     14  C   UNL     1       2.689   5.005  19.979  0.00  0.00    +0.000 A 
ATOM     15  N   UNL     1       2.690   3.762  20.415  0.00  0.00    +0.000 N 
ATOM     16  C   UNL     1       2.175   3.333  21.780  0.00  0.00    +0.000 C 
ATOM     17  C   UNL     1       3.182   2.548  19.685  0.00  0.00    +0.000 C 
ENDROOT
BRANCH   8  18
ATOM     18  N   UNL     1      -1.207  12.936  21.017  0.00  0.00    +0.000 N 
ATOM     19  C   UNL     1      -0.544  14.039  21.703  0.00  0.00    +0.000 C 
ATOM     20  C   UNL     1      -2.636  13.144  20.757  0.00  0.00    +0.000 C 
ENDBRANCH   8  18
BRANCH   1  21
ATOM     21  C   UNL     1       4.480   4.869  17.987  0.00  0.00    +0.000 C 
BRANCH  21  22
ATOM     22  C   UNL     1       5.683   5.764  17.686  0.00  0.00    +0.000 C 
BRANCH  22  23
ATOM     23  C   UNL     1       6.688   5.024  16.813  0.00  0.00    +0.000 C 
BRANCH  23  24
ATOM     24  C   UNL     1       5.995   3.978  15.949  0.00  0.00    +0.000 C 
BRANCH  24  25
ATOM     25  C   UNL     1       6.722   3.833  14.619  0.00  0.00    +0.000 C 
BRANCH  25  26
ATOM     26  C   UNL     1       5.778   4.072  13.448  0.00  0.00    +0.000 C 
BRANCH  26  27
ATOM     27  C   UNL     1       6.292   3.351  12.208  0.00  0.00    +0.000 C 
BRANCH  27  28
ATOM     28  C   UNL     1       5.157   2.655  11.468  0.00  0.00    +0.000 C 
BRANCH  28  29
ATOM     29  C   UNL     1       3.930   3.560  11.402  0.00  0.00    +0.000 C 
BRANCH  29  31
ATOM     30  C   UNL     1       2.864   4.405   9.295  0.00  0.00    +0.000 C 
ATOM     31  C   UNL     1       3.049   3.205  10.209  0.00  0.00    +0.000 C 
ENDBRANCH  29  31
ENDBRANCH  28  29
ENDBRANCH  27  28
ENDBRANCH  26  27
ENDBRANCH  25  26
ENDBRANCH  24  25
ENDBRANCH  23  24
ENDBRANCH  22  23
ENDBRANCH  21  22
ENDBRANCH   1  21
TORSDOF 11
ENDMDL
MODEL 4
REMARK VINA RESULT:      -7.7      2.737      4.517
REMARK  Name = 
REMARK  16 active torsions:
REMARK  status: ('A' for Active; 'I' for Inactive)
REMARK    1  A    between atoms: C_1  and  C_2
REMARK    2  A    between atoms: C_2  and  C_3
REMARK    3  A    between atoms: C_3  and  C_4
REMARK    4  A    between atoms: C_4  and  C_5
REMARK    5  A    between atoms: C_5  and  C_6
REMARK    6  A    between atoms: C_6  and  C_7
REMARK    7  A    between atoms: C_7  and  C_8
REMARK    8  A    between atoms: C_8  and  C_9
REMARK    9  A    between atoms: C_9  and  C_10
REMARK   10  A    between atoms: C_10  and  C_11
REMARK   11  A    between atoms: C_11  and  C_12
REMARK   12  A    between atoms: C_19  and  N_20
REMARK   13  A    between atoms: N_20  and  C_21
REMARK   14  A    between atoms: N_20  and  C_22
REMARK   15  A    between atoms: N_29  and  C_30
REMARK   16  A    between atoms: N_29  and  C_31
REMARK                            x       y       z     vdW  Elec       q    Type
REMARK                         _______ _______ _______ _____ _____    ______ ____
ROOT
ATOM      1  C   UNL     1       2.923   6.131  18.395  0.00  0.00    +0.000 A 
ATOM      2  C   UNL     1       2.654   7.425  18.108  0.00  0.00    +0.000 A 
ATOM      3  C   UNL     1       1.952   8.394  18.999  0.00  0.00    +0.000 A 
ATOM      4  N   UNL     1       1.728   9.595  18.570  0.00  0.00    +0.000 NA
ATOM      5  C   UNL     1       1.100  10.562  19.389  0.00  0.00    +0.000 A 
ATOM      6  C   UNL     1       0.898  11.853  18.893  0.00  0.00    +0.000 A 
ATOM      7  C   UNL     1       0.286  12.855  19.682  0.00  0.00    +0.000 A 
ATOM      8  C   UNL     1      -0.155  12.607  20.990  0.00  0.00    +0.000 A 
ATOM      9  C   UNL     1       0.040  11.307  21.449  0.00  0.00    +0.000 A 
ATOM     10  C   UNL     1       0.670  10.314  20.690  0.00  0.00    +0.000 A 
ATOM     11  S   UNL     1       0.900   8.789  21.531  0.00  0.00    +0.000 S 
ATOM     12  C   UNL     1       1.632   7.834  20.328  0.00  0.00    +0.000 A 
ATOM     13  C   UNL     1       1.901   6.568  20.643  0.00  0.00    +0.000 A 
ATOM     14  C   UNL     1       2.441   5.528  19.713  0.00  0.00    +0.000 A 
ATOM     15  N   UNL     1       2.450   4.266  20.090  0.00  0.00    +0.000 N 
ATOM     16  C   UNL     1       2.182   3.795  21.511  0.00  0.00    +0.000 C 
ATOM     17  C   UNL     1       2.718   3.067  19.230  0.00  0.00    +0.000 C 
ENDROOT
BRANCH   8  18
ATOM     18  N   UNL     1      -0.688  13.588  21.808  0.00  0.00    +0.000 N 
ATOM     19  C   UNL     1      -1.818  13.303  22.685  0.00  0.00    +0.000 C 
ATOM     20  C   UNL     1       0.040  14.821  22.127  0.00  0.00    +0.000 C 
ENDBRANCH   8  18
BRANCH   1  21
ATOM     21  C   UNL     1       3.805   5.401  17.407  0.00  0.00    +0.000 C 
BRANCH  21  22
ATOM     22  C   UNL     1       4.601   6.343  16.503  0.00  0.00    +0.000 C 
BRANCH  22  23
ATOM     23  C   UNL     1       5.299   5.556  15.400  0.00  0.00    +0.000 C 
BRANCH  23  24
ATOM     24  C   UNL     1       6.760   5.306  15.751  0.00  0.00    +0.000 C 
BRANCH  24  25
ATOM     25  C   UNL     1       6.860   4.285  16.876  0.00  0.00    +0.000 C 
BRANCH  25  26
ATOM     26  C   UNL     1       7.829   4.749  17.955  0.00  0.00    +0.000 C 
BRANCH  26  27
ATOM     27  C   UNL     1       7.247   5.944  18.701  0.00  0.00    +0.000 C 
BRANCH  27  28
ATOM     28  C   UNL     1       8.177   7.148  18.618  0.00  0.00    +0.000 C 
BRANCH  28  29
ATOM     29  C   UNL     1       7.688   8.126  17.553  0.00  0.00    +0.000 C 
BRANCH  29  31
ATOM     30  C   UNL     1       9.129   9.581  19.000  0.00  0.00    +0.000 C 
ATOM     31  C   UNL     1       8.083   9.557  17.899  0.00  0.00    +0.000 C 
ENDBRANCH  29  31
ENDBRANCH  28  29
ENDBRANCH  27  28
ENDBRANCH  26  27
ENDBRANCH  25  26
ENDBRANCH  24  25
ENDBRANCH  23  24
ENDBRANCH  22  23
ENDBRANCH  21  22
ENDBRANCH   1  21
TORSDOF 11
ENDMDL
MODEL 5
REMARK VINA RESULT:      -7.7      1.169      1.597
REMARK  Name = 
REMARK  16 active torsions:
REMARK  status: ('A' for Active; 'I' for Inactive)
REMARK    1  A    between atoms: C_1  and  C_2
REMARK    2  A    between atoms: C_2  and  C_3
REMARK    3  A    between atoms: C_3  and  C_4
REMARK    4  A    between atoms: C_4  and  C_5
REMARK    5  A    between atoms: C_5  and  C_6
REMARK    6  A    between atoms: C_6  and  C_7
REMARK    7  A    between atoms: C_7  and  C_8
REMARK    8  A    between atoms: C_8  and  C_9
REMARK    9  A    between atoms: C_9  and  C_10
REMARK   10  A    between atoms: C_10  and  C_11
REMARK   11  A    between atoms: C_11  and  C_12
REMARK   12  A    between atoms: C_19  and  N_20
REMARK   13  A    between atoms: N_20  and  C_21
REMARK   14  A    between atoms: N_20  and  C_22
REMARK   15  A    between atoms: N_29  and  C_30
REMARK   16  A    between atoms: N_29  and  C_31
REMARK                            x       y       z     vdW  Elec       q    Type
REMARK                         _______ _______ _______ _____ _____    ______ ____
ROOT
ATOM      1  C   UNL     1       2.916   4.746  18.179  0.00  0.00    +0.000 A 
ATOM      2  C   UNL     1       2.822   6.032  17.771  0.00  0.00    +0.000 A 
ATOM      3  C   UNL     1       2.277   7.168  18.567  0.00  0.00    +0.000 A 
ATOM      4  N   UNL     1       2.213   8.343  18.025  0.00  0.00    +0.000 NA
ATOM      5  C   UNL     1       1.740   9.461  18.751  0.00  0.00    +0.000 A 
ATOM      6  C   UNL     1       1.708  10.715  18.134  0.00  0.00    +0.000 A 
ATOM      7  C   UNL     1       1.254  11.862  18.825  0.00  0.00    +0.000 A 
ATOM      8  C   UNL     1       0.808  11.804  20.153  0.00  0.00    +0.000 A 
ATOM      9  C   UNL     1       0.830  10.539  20.735  0.00  0.00    +0.000 A 
ATOM     10  C   UNL     1       1.303   9.400  20.072  0.00  0.00    +0.000 A 
ATOM     11  S   UNL     1       1.337   7.945  21.055  0.00  0.00    +0.000 S 
ATOM     12  C   UNL     1       1.908   6.788  19.945  0.00  0.00    +0.000 A 
ATOM     13  C   UNL     1       2.006   5.532  20.380  0.00  0.00    +0.000 A 
ATOM     14  C   UNL     1       2.380   4.343  19.553  0.00  0.00    +0.000 A 
ATOM     15  N   UNL     1       2.222   3.134  20.049  0.00  0.00    +0.000 N 
ATOM     16  C   UNL     1       1.918   2.842  21.511  0.00  0.00    +0.000 C 
ATOM     17  C   UNL     1       2.305   1.833  19.308  0.00  0.00    +0.000 C 
ENDROOT
BRANCH   8  18
ATOM     18  N   UNL     1       0.431  12.923  20.875  0.00  0.00    +0.000 N 
ATOM     19  C   UNL     1       1.367  14.016  21.110  0.00  0.00    +0.000 C 
ATOM     20  C   UNL     1      -0.976  13.256  21.123  0.00  0.00    +0.000 C 
ENDBRANCH   8  18
BRANCH   1  21
ATOM     21  C   UNL     1       3.670   3.810  17.262  0.00  0.00    +0.000 C 
BRANCH  21  22
ATOM     22  C   UNL     1       4.675   4.531  16.363  0.00  0.00    +0.000 C 
BRANCH  22  23
ATOM     23  C   UNL     1       6.079   4.424  16.945  0.00  0.00    +0.000 C 
BRANCH  23  24
ATOM     24  C   UNL     1       7.129   4.435  15.841  0.00  0.00    +0.000 C 
BRANCH  24  25
ATOM     25  C   UNL     1       6.494   4.849  14.520  0.00  0.00    +0.000 C 
BRANCH  25  26
ATOM     26  C   UNL     1       7.529   4.898  13.404  0.00  0.00    +0.000 C 
BRANCH  26  27
ATOM     27  C   UNL     1       6.919   4.390  12.103  0.00  0.00    +0.000 C 
BRANCH  27  28
ATOM     28  C   UNL     1       5.965   3.230  12.361  0.00  0.00    +0.000 C 
BRANCH  28  29
ATOM     29  C   UNL     1       4.521   3.670  12.144  0.00  0.00    +0.000 C 
BRANCH  29  31
ATOM     30  C   UNL     1       3.240   4.015  10.017  0.00  0.00    +0.000 C 
ATOM     31  C   UNL     1       3.919   2.996  10.916  0.00  0.00    +0.000 C 
ENDBRANCH  29  31
ENDBRANCH  28  29
ENDBRANCH  27  28
ENDBRANCH  26  27
ENDBRANCH  25  26
ENDBRANCH  24  25
ENDBRANCH  23  24
ENDBRANCH  22  23
ENDBRANCH  21  22
ENDBRANCH   1  21
TORSDOF 11
ENDMDL
MODEL 6
REMARK VINA RESULT:      -7.6      3.425      5.684
REMARK  Name = 
REMARK  16 active torsions:
REMARK  status: ('A' for Active; 'I' for Inactive)
REMARK    1  A    between atoms: C_1  and  C_2
REMARK    2  A    between atoms: C_2  and  C_3
REMARK    3  A    between atoms: C_3  and  C_4
REMARK    4  A    between atoms: C_4  and  C_5
REMARK    5  A    between atoms: C_5  and  C_6
REMARK    6  A    between atoms: C_6  and  C_7
REMARK    7  A    between atoms: C_7  and  C_8
REMARK    8  A    between atoms: C_8  and  C_9
REMARK    9  A    between atoms: C_9  and  C_10
REMARK   10  A    between atoms: C_10  and  C_11
REMARK   11  A    between atoms: C_11  and  C_12
REMARK   12  A    between atoms: C_19  and  N_20
REMARK   13  A    between atoms: N_20  and  C_21
REMARK   14  A    between atoms: N_20  and  C_22
REMARK   15  A    between atoms: N_29  and  C_30
REMARK   16  A    between atoms: N_29  and  C_31
REMARK                            x       y       z     vdW  Elec       q    Type
REMARK                         _______ _______ _______ _____ _____    ______ ____
ROOT
ATOM      1  C   UNL     1       3.908   5.385  18.111  0.00  0.00    +0.000 A 
ATOM      2  C   UNL     1       3.567   6.656  17.798  0.00  0.00    +0.000 A 
ATOM      3  C   UNL     1       2.631   7.528  18.564  0.00  0.00    +0.000 A 
ATOM      4  N   UNL     1       2.369   8.715  18.118  0.00  0.00    +0.000 NA
ATOM      5  C   UNL     1       1.517   9.594  18.827  0.00  0.00    +0.000 A 
ATOM      6  C   UNL     1       1.278  10.874  18.320  0.00  0.00    +0.000 A 
ATOM      7  C   UNL     1       0.444  11.790  19.002  0.00  0.00    +0.000 A 
ATOM      8  C   UNL     1      -0.190  11.464  20.210  0.00  0.00    +0.000 A 
ATOM      9  C   UNL     1       0.049  10.175  20.679  0.00  0.00    +0.000 A 
ATOM     10  C   UNL     1       0.894   9.268  20.030  0.00  0.00    +0.000 A 
ATOM     11  S   UNL     1       1.124   7.748  20.878  0.00  0.00    +0.000 S 
ATOM     12  C   UNL     1       2.143   6.902  19.810  0.00  0.00    +0.000 A 
ATOM     13  C   UNL     1       2.476   5.657  20.151  0.00  0.00    +0.000 A 
ATOM     14  C   UNL     1       3.267   4.701  19.317  0.00  0.00    +0.000 A 
ATOM     15  N   UNL     1       3.334   3.435  19.673  0.00  0.00    +0.000 N 
ATOM     16  C   UNL     1       2.872   2.899  21.019  0.00  0.00    +0.000 C 
ATOM     17  C   UNL     1       3.862   2.292  18.858  0.00  0.00    +0.000 C 
ENDROOT
BRANCH   8  18
ATOM     18  N   UNL     1      -0.949  12.366  20.935  0.00  0.00    +0.000 N 
ATOM     19  C   UNL     1      -2.255  12.805  20.454  0.00  0.00    +0.000 C 
ATOM     20  C   UNL     1      -0.691  12.645  22.351  0.00  0.00    +0.000 C 
ENDBRANCH   8  18
BRANCH   1  21
ATOM     21  C   UNL     1       5.014   4.771  17.283  0.00  0.00    +0.000 C 
BRANCH  21  22
ATOM     22  C   UNL     1       6.102   5.774  16.895  0.00  0.00    +0.000 C 
BRANCH  22  23
ATOM     23  C   UNL     1       7.343   5.570  17.754  0.00  0.00    +0.000 C 
BRANCH  23  24
ATOM     24  C   UNL     1       7.858   6.898  18.293  0.00  0.00    +0.000 C 
BRANCH  24  25
ATOM     25  C   UNL     1       7.309   8.048  17.460  0.00  0.00    +0.000 C 
BRANCH  25  26
ATOM     26  C   UNL     1       8.092   9.330  17.708  0.00  0.00    +0.000 C 
BRANCH  26  27
ATOM     27  C   UNL     1       8.962   9.179  18.950  0.00  0.00    +0.000 C 
BRANCH  27  28
ATOM     28  C   UNL     1       9.214  10.528  19.611  0.00  0.00    +0.000 C 
BRANCH  28  29
ATOM     29  C   UNL     1      10.468  11.178  19.035  0.00  0.00    +0.000 C 
BRANCH  29  31
ATOM     30  C   UNL     1      11.315  12.687  17.221  0.00  0.00    +0.000 C 
ATOM     31  C   UNL     1      10.112  12.293  18.060  0.00  0.00    +0.000 C 
ENDBRANCH  29  31
ENDBRANCH  28  29
ENDBRANCH  27  28
ENDBRANCH  26  27
ENDBRANCH  25  26
ENDBRANCH  24  25
ENDBRANCH  23  24
ENDBRANCH  22  23
ENDBRANCH  21  22
ENDBRANCH   1  21
TORSDOF 11
ENDMDL
MODEL 7
REMARK VINA RESULT:      -7.4      1.360      2.064
REMARK  Name = 
REMARK  16 active torsions:
REMARK  status: ('A' for Active; 'I' for Inactive)
REMARK    1  A    between atoms: C_1  and  C_2
REMARK    2  A    between atoms: C_2  and  C_3
REMARK    3  A    between atoms: C_3  and  C_4
REMARK    4  A    between atoms: C_4  and  C_5
REMARK    5  A    between atoms: C_5  and  C_6
REMARK    6  A    between atoms: C_6  and  C_7
REMARK    7  A    between atoms: C_7  and  C_8
REMARK    8  A    between atoms: C_8  and  C_9
REMARK    9  A    between atoms: C_9  and  C_10
REMARK   10  A    between atoms: C_10  and  C_11
REMARK   11  A    between atoms: C_11  and  C_12
REMARK   12  A    between atoms: C_19  and  N_20
REMARK   13  A    between atoms: N_20  and  C_21
REMARK   14  A    between atoms: N_20  and  C_22
REMARK   15  A    between atoms: N_29  and  C_30
REMARK   16  A    between atoms: N_29  and  C_31
REMARK                            x       y       z     vdW  Elec       q    Type
REMARK                         _______ _______ _______ _____ _____    ______ ____
ROOT
ATOM      1  C   UNL     1       3.031   5.227  18.429  0.00  0.00    +0.000 A 
ATOM      2  C   UNL     1       2.866   6.508  18.030  0.00  0.00    +0.000 A 
ATOM      3  C   UNL     1       2.176   7.584  18.798  0.00  0.00    +0.000 A 
ATOM      4  N   UNL     1       2.059   8.760  18.268  0.00  0.00    +0.000 NA
ATOM      5  C   UNL     1       1.447   9.824  18.970  0.00  0.00    +0.000 A 
ATOM      6  C   UNL     1       1.361  11.083  18.368  0.00  0.00    +0.000 A 
ATOM      7  C   UNL     1       0.768  12.178  19.038  0.00  0.00    +0.000 A 
ATOM      8  C   UNL     1       0.232  12.061  20.328  0.00  0.00    +0.000 A 
ATOM      9  C   UNL     1       0.312  10.791  20.894  0.00  0.00    +0.000 A 
ATOM     10  C   UNL     1       0.921   9.705  20.254  0.00  0.00    +0.000 A 
ATOM     11  S   UNL     1       0.998   8.239  21.218  0.00  0.00    +0.000 S 
ATOM     12  C   UNL     1       1.739   7.150  20.140  0.00  0.00    +0.000 A 
ATOM     13  C   UNL     1       1.904   5.898  20.565  0.00  0.00    +0.000 A 
ATOM     14  C   UNL     1       2.431   4.758  19.753  0.00  0.00    +0.000 A 
ATOM     15  N   UNL     1       2.333   3.531  20.222  0.00  0.00    +0.000 N 
ATOM     16  C   UNL     1       1.947   3.190  21.653  0.00  0.00    +0.000 C 
ATOM     17  C   UNL     1       2.573   2.255  19.473  0.00  0.00    +0.000 C 
ENDROOT
BRANCH   8  18
ATOM     18  N   UNL     1      -0.284  13.133  21.035  0.00  0.00    +0.000 N 
ATOM     19  C   UNL     1      -0.773  14.322  20.344  0.00  0.00    +0.000 C 
ATOM     20  C   UNL     1      -0.715  13.015  22.432  0.00  0.00    +0.000 C 
ENDBRANCH   8  18
BRANCH   1  21
ATOM     21  C   UNL     1       3.923   4.369  17.559  0.00  0.00    +0.000 C 
BRANCH  21  22
ATOM     22  C   UNL     1       5.366   4.871  17.500  0.00  0.00    +0.000 C 
BRANCH  22  23
ATOM     23  C   UNL     1       6.217   3.940  16.646  0.00  0.00    +0.000 C 
BRANCH  23  24
ATOM     24  C   UNL     1       7.301   4.715  15.909  0.00  0.00    +0.000 C 
BRANCH  24  25
ATOM     25  C   UNL     1       6.825   5.077  14.509  0.00  0.00    +0.000 C 
BRANCH  25  26
ATOM     26  C   UNL     1       5.751   4.112  14.026  0.00  0.00    +0.000 C 
BRANCH  26  27
ATOM     27  C   UNL     1       6.193   3.445  12.729  0.00  0.00    +0.000 C 
BRANCH  27  28
ATOM     28  C   UNL     1       5.034   3.337  11.745  0.00  0.00    +0.000 C 
BRANCH  28  29
ATOM     29  C   UNL     1       5.044   1.974  11.059  0.00  0.00    +0.000 C 
BRANCH  29  31
ATOM     30  C   UNL     1       6.189  -0.239  11.335  0.00  0.00    +0.000 C 
ATOM     31  C   UNL     1       6.379   1.266  11.262  0.00  0.00    +0.000 C 
ENDBRANCH  29  31
ENDBRANCH  28  29
ENDBRANCH  27  28
ENDBRANCH  26  27
ENDBRANCH  25  26
ENDBRANCH  24  25
ENDBRANCH  23  24
ENDBRANCH  22  23
ENDBRANCH  21  22
ENDBRANCH   1  21
TORSDOF 11
ENDMDL
MODEL 8
REMARK VINA RESULT:      -7.4      1.739      2.817
REMARK  Name = 
REMARK  16 active torsions:
REMARK  status: ('A' for Active; 'I' for Inactive)
REMARK    1  A    between atoms: C_1  and  C_2
REMARK    2  A    between atoms: C_2  and  C_3
REMARK    3  A    between atoms: C_3  and  C_4
REMARK    4  A    between atoms: C_4  and  C_5
REMARK    5  A    between atoms: C_5  and  C_6
REMARK    6  A    between atoms: C_6  and  C_7
REMARK    7  A    between atoms: C_7  and  C_8
REMARK    8  A    between atoms: C_8  and  C_9
REMARK    9  A    between atoms: C_9  and  C_10
REMARK   10  A    between atoms: C_10  and  C_11
REMARK   11  A    between atoms: C_11  and  C_12
REMARK   12  A    between atoms: C_19  and  N_20
REMARK   13  A    between atoms: N_20  and  C_21
REMARK   14  A    between atoms: N_20  and  C_22
REMARK   15  A    between atoms: N_29  and  C_30
REMARK   16  A    between atoms: N_29  and  C_31
REMARK                            x       y       z     vdW  Elec       q    Type
REMARK                         _______ _______ _______ _____ _____    ______ ____
ROOT
ATOM      1  C   UNL     1       2.746   5.032  18.393  0.00  0.00    +0.000 A 
ATOM      2  C   UNL     1       2.677   6.335  18.038  0.00  0.00    +0.000 A 
ATOM      3  C   UNL     1       2.102   7.439  18.859  0.00  0.00    +0.000 A 
ATOM      4  N   UNL     1       2.069   8.637  18.367  0.00  0.00    +0.000 NA
ATOM      5  C   UNL     1       1.569   9.725  19.120  0.00  0.00    +0.000 A 
ATOM      6  C   UNL     1       1.571  11.005  18.559  0.00  0.00    +0.000 A 
ATOM      7  C   UNL     1       1.092  12.124  19.279  0.00  0.00    +0.000 A 
ATOM      8  C   UNL     1       0.587  12.009  20.582  0.00  0.00    +0.000 A 
ATOM      9  C   UNL     1       0.577  10.720  21.107  0.00  0.00    +0.000 A 
ATOM     10  C   UNL     1       1.073   9.609  20.416  0.00  0.00    +0.000 A 
ATOM     11  S   UNL     1       1.056   8.111  21.334  0.00  0.00    +0.000 S 
ATOM     12  C   UNL     1       1.670   7.000  20.201  0.00  0.00    +0.000 A 
ATOM     13  C   UNL     1       1.742   5.725  20.583  0.00  0.00    +0.000 A 
ATOM     14  C   UNL     1       2.147   4.572  19.721  0.00  0.00    +0.000 A 
ATOM     15  N   UNL     1       1.961   3.343  20.156  0.00  0.00    +0.000 N 
ATOM     16  C   UNL     1       1.590   2.989  21.588  0.00  0.00    +0.000 C 
ATOM     17  C   UNL     1       2.071   2.076  19.363  0.00  0.00    +0.000 C 
ENDROOT
BRANCH   8  18
ATOM     18  N   UNL     1       0.183  13.098  21.336  0.00  0.00    +0.000 N 
ATOM     19  C   UNL     1       0.355  14.460  20.841  0.00  0.00    +0.000 C 
ATOM     20  C   UNL     1      -0.748  12.968  22.462  0.00  0.00    +0.000 C 
ENDBRANCH   8  18
BRANCH   1  21
ATOM     21  C   UNL     1       3.536   4.132  17.469  0.00  0.00    +0.000 C 
BRANCH  21  22
ATOM     22  C   UNL     1       4.859   3.663  18.076  0.00  0.00    +0.000 C 
BRANCH  22  23
ATOM     23  C   UNL     1       5.270   4.576  19.224  0.00  0.00    +0.000 C 
BRANCH  23  24
ATOM     24  C   UNL     1       6.336   5.568  18.776  0.00  0.00    +0.000 C 
BRANCH  24  25
ATOM     25  C   UNL     1       7.064   5.035  17.550  0.00  0.00    +0.000 C 
BRANCH  25  26
ATOM     26  C   UNL     1       7.081   6.066  16.429  0.00  0.00    +0.000 C 
BRANCH  26  27
ATOM     27  C   UNL     1       6.096   5.667  15.337  0.00  0.00    +0.000 C 
BRANCH  27  28
ATOM     28  C   UNL     1       6.662   4.549  14.470  0.00  0.00    +0.000 C 
BRANCH  28  29
ATOM     29  C   UNL     1       5.533   3.700  13.893  0.00  0.00    +0.000 C 
BRANCH  29  31
ATOM     30  C   UNL     1       7.149   3.814  11.979  0.00  0.00    +0.000 C 
ATOM     31  C   UNL     1       5.733   3.461  12.400  0.00  0.00    +0.000 C 
ENDBRANCH  29  31
ENDBRANCH  28  29
ENDBRANCH  27  28
ENDBRANCH  26  27
ENDBRANCH  25  26
ENDBRANCH  24  25
ENDBRANCH  23  24
ENDBRANCH  22  23
ENDBRANCH  21  22
ENDBRANCH   1  21
TORSDOF 11
ENDMDL
MODEL 9
REMARK VINA RESULT:      -7.2      3.106      5.268
REMARK  Name = 
REMARK  16 active torsions:
REMARK  status: ('A' for Active; 'I' for Inactive)
REMARK    1  A    between atoms: C_1  and  C_2
REMARK    2  A    between atoms: C_2  and  C_3
REMARK    3  A    between atoms: C_3  and  C_4
REMARK    4  A    between atoms: C_4  and  C_5
REMARK    5  A    between atoms: C_5  and  C_6
REMARK    6  A    between atoms: C_6  and  C_7
REMARK    7  A    between atoms: C_7  and  C_8
REMARK    8  A    between atoms: C_8  and  C_9
REMARK    9  A    between atoms: C_9  and  C_10
REMARK   10  A    between atoms: C_10  and  C_11
REMARK   11  A    between atoms: C_11  and  C_12
REMARK   12  A    between atoms: C_19  and  N_20
REMARK   13  A    between atoms: N_20  and  C_21
REMARK   14  A    between atoms: N_20  and  C_22
REMARK   15  A    between atoms: N_29  and  C_30
REMARK   16  A    between atoms: N_29  and  C_31
REMARK                            x       y       z     vdW  Elec       q    Type
REMARK                         _______ _______ _______ _____ _____    ______ ____
ROOT
ATOM      1  C   UNL     1       2.851   5.070  18.268  0.00  0.00    +0.000 A 
ATOM      2  C   UNL     1       2.714   6.370  17.923  0.00  0.00    +0.000 A 
ATOM      3  C   UNL     1       2.146   7.451  18.780  0.00  0.00    +0.000 A 
ATOM      4  N   UNL     1       2.041   8.647  18.296  0.00  0.00    +0.000 NA
ATOM      5  C   UNL     1       1.545   9.715  19.081  0.00  0.00    +0.000 A 
ATOM      6  C   UNL     1       1.468  10.995  18.526  0.00  0.00    +0.000 A 
ATOM      7  C   UNL     1       0.990  12.094  19.277  0.00  0.00    +0.000 A 
ATOM      8  C   UNL     1       0.564  11.958  20.606  0.00  0.00    +0.000 A 
ATOM      9  C   UNL     1       0.631  10.668  21.125  0.00  0.00    +0.000 A 
ATOM     10  C   UNL     1       1.128   9.577  20.402  0.00  0.00    +0.000 A 
ATOM     11  S   UNL     1       1.217   8.078  21.313  0.00  0.00    +0.000 S 
ATOM     12  C   UNL     1       1.807   6.993  20.142  0.00  0.00    +0.000 A 
ATOM     13  C   UNL     1       1.948   5.721  20.514  0.00  0.00    +0.000 A 
ATOM     14  C   UNL     1       2.346   4.586  19.626  0.00  0.00    +0.000 A 
ATOM     15  N   UNL     1       2.230   3.350  20.065  0.00  0.00    +0.000 N 
ATOM     16  C   UNL     1       1.953   2.979  21.514  0.00  0.00    +0.000 C 
ATOM     17  C   UNL     1       2.341   2.089  19.261  0.00  0.00    +0.000 C 
ENDROOT
BRANCH   8  18
ATOM     18  N   UNL     1       0.163  13.029  21.386  0.00  0.00    +0.000 N 
ATOM     19  C   UNL     1       0.622  14.383  21.095  0.00  0.00    +0.000 C 
ATOM     20  C   UNL     1      -0.994  12.953  22.284  0.00  0.00    +0.000 C 
ENDBRANCH   8  18
BRANCH   1  21
ATOM     21  C   UNL     1       3.620   4.202  17.297  0.00  0.00    +0.000 C 
BRANCH  21  22
ATOM     22  C   UNL     1       5.134   4.266  17.505  0.00  0.00    +0.000 C 
BRANCH  22  23
ATOM     23  C   UNL     1       5.787   5.089  16.402  0.00  0.00    +0.000 C 
BRANCH  23  24
ATOM     24  C   UNL     1       6.387   6.372  16.962  0.00  0.00    +0.000 C 
BRANCH  24  25
ATOM     25  C   UNL     1       7.315   6.050  18.126  0.00  0.00    +0.000 C 
BRANCH  25  26
ATOM     26  C   UNL     1       8.097   7.281  18.563  0.00  0.00    +0.000 C 
BRANCH  26  27
ATOM     27  C   UNL     1       8.012   8.362  17.491  0.00  0.00    +0.000 C 
BRANCH  27  28
ATOM     28  C   UNL     1       7.990   9.752  18.114  0.00  0.00    +0.000 C 
BRANCH  28  29
ATOM     29  C   UNL     1       9.409  10.294  18.255  0.00  0.00    +0.000 C 
BRANCH  29  31
ATOM     30  C   UNL     1       9.686  12.524  19.368  0.00  0.00    +0.000 C 
ATOM     31  C   UNL     1       9.442  11.805  18.052  0.00  0.00    +0.000 C 
ENDBRANCH  29  31
ENDBRANCH  28  29
ENDBRANCH  27  28
ENDBRANCH  26  27
ENDBRANCH  25  26
ENDBRANCH  24  25
ENDBRANCH  23  24
ENDBRANCH  22  23
ENDBRANCH  21  22
ENDBRANCH   1  21
TORSDOF 11
ENDMDL
