MODEL 1
REMARK VINA RESULT:      -8.1      0.000      0.000
REMARK  Name = 
REMARK  4 active torsions:
REMARK  status: ('A' for Active; 'I' for Inactive)
REMARK    1  A    between atoms: C_1  and  C_2
REMARK    2  A    between atoms: C_5  and  C_6
REMARK    3  A    between atoms: C_8  and  C_9
REMARK    4  A    between atoms: N_10  and  C_11
REMARK                            x       y       z     vdW  Elec       q    Type
REMARK                         _______ _______ _______ _____ _____    ______ ____
ROOT
ATOM      1  C   UNL     1       4.624   5.551  16.662  0.00  0.00    +0.000 A 
ATOM      2  C   UNL     1       4.145   6.829  16.993  0.00  0.00    +0.000 A 
ATOM      3  C   UNL     1       3.208   6.632  17.988  0.00  0.00    +0.000 A 
ATOM      4  C   UNL     1       2.488   7.669  18.770  0.00  0.00    +0.000 C 
ATOM      5  N   UNL     1       3.169   5.259  18.215  0.00  0.00    +0.000 N 
ATOM      6  N   UNL     1       4.040   4.600  17.398  0.00  0.00    +0.000 NA
ENDROOT
BRANCH   1  11
ATOM      7  C   UNL     1       6.947   4.009  12.613  0.00  0.00    +0.000 C 
ATOM      8  C   UNL     1       6.715   4.618  13.937  0.00  0.00    +0.000 A 
ATOM      9  N   UNL     1       7.617   5.404  14.534  0.00  0.00    +0.000 NA
ATOM     10  O   UNL     1       6.939   5.857  15.670  0.00  0.00    +0.000 OA
ATOM     11  C   UNL     1       5.695   5.281  15.648  0.00  0.00    +0.000 A 
ATOM     12  N   UNL     1       5.531   4.480  14.610  0.00  0.00    +0.000 NA
ENDBRANCH   1  11
BRANCH   5  13
ATOM     13  C   UNL     1       2.444   4.528  19.205  0.00  0.00    +0.000 A 
ATOM     14  C   UNL     1       2.792   4.581  20.562  0.00  0.00    +0.000 A 
ATOM     15  C   UNL     1       2.145   3.759  21.487  0.00  0.00    +0.000 A 
ATOM     16  C   UNL     1       1.141   2.891  21.070  0.00  0.00    +0.000 A 
ATOM     17  C   UNL     1       0.747   2.875  19.733  0.00  0.00    +0.000 A 
ATOM     18  C   UNL     1       1.381   3.704  18.804  0.00  0.00    +0.000 A 
ENDBRANCH   5  13
TORSDOF 2
ENDMDL
MODEL 2
REMARK VINA RESULT:      -8.0      0.346      1.189
REMARK  Name = 
REMARK  4 active torsions:
REMARK  status: ('A' for Active; 'I' for Inactive)
REMARK    1  A    between atoms: C_1  and  C_2
REMARK    2  A    between atoms: C_5  and  C_6
REMARK    3  A    between atoms: C_8  and  C_9
REMARK    4  A    between atoms: N_10  and  C_11
REMARK                            x       y       z     vdW  Elec       q    Type
REMARK                         _______ _______ _______ _____ _____    ______ ____
ROOT
ATOM      1  C   UNL     1       4.824   5.386  16.432  0.00  0.00    +0.000 A 
ATOM      2  C   UNL     1       4.365   6.651  16.833  0.00  0.00    +0.000 A 
ATOM      3  C   UNL     1       3.433   6.415  17.824  0.00  0.00    +0.000 A 
ATOM      4  C   UNL     1       2.733   7.419  18.664  0.00  0.00    +0.000 C 
ATOM      5  N   UNL     1       3.377   5.032  17.980  0.00  0.00    +0.000 N 
ATOM      6  N   UNL     1       4.233   4.405  17.123  0.00  0.00    +0.000 NA
ENDROOT
BRANCH   1  11
ATOM      7  C   UNL     1       7.100   4.003  12.300  0.00  0.00    +0.000 C 
ATOM      8  C   UNL     1       6.884   4.559  13.649  0.00  0.00    +0.000 A 
ATOM      9  N   UNL     1       7.793   5.319  14.267  0.00  0.00    +0.000 NA
ATOM     10  O   UNL     1       7.128   5.728  15.428  0.00  0.00    +0.000 OA
ATOM     11  C   UNL     1       5.883   5.155  15.396  0.00  0.00    +0.000 A 
ATOM     12  N   UNL     1       5.706   4.396  14.329  0.00  0.00    +0.000 NA
ENDBRANCH   1  11
BRANCH   5  13
ATOM     13  C   UNL     1       2.650   4.261  18.936  0.00  0.00    +0.000 A 
ATOM     14  C   UNL     1       1.521   3.511  18.575  0.00  0.00    +0.000 A 
ATOM     15  C   UNL     1       0.759   2.870  19.554  0.00  0.00    +0.000 A 
ATOM     16  C   UNL     1       1.122   2.961  20.895  0.00  0.00    +0.000 A 
ATOM     17  C   UNL     1       2.276   3.654  21.257  0.00  0.00    +0.000 A 
ATOM     18  C   UNL     1       3.051   4.287  20.281  0.00  0.00    +0.000 A 
ENDBRANCH   5  13
TORSDOF 2
ENDMDL
MODEL 3
REMARK VINA RESULT:      -7.4      1.385      3.147
REMARK  Name = 
REMARK  4 active torsions:
REMARK  status: ('A' for Active; 'I' for Inactive)
REMARK    1  A    between atoms: C_1  and  C_2
REMARK    2  A    between atoms: C_5  and  C_6
REMARK    3  A    between atoms: C_8  and  C_9
REMARK    4  A    between atoms: N_10  and  C_11
REMARK                            x       y       z     vdW  Elec       q    Type
REMARK                         _______ _______ _______ _____ _____    ______ ____
ROOT
ATOM      1  C   UNL     1       4.671   5.353  16.653  0.00  0.00    +0.000 A 
ATOM      2  C   UNL     1       3.883   4.307  17.161  0.00  0.00    +0.000 A 
ATOM      3  C   UNL     1       2.978   4.901  18.017  0.00  0.00    +0.000 A 
ATOM      4  C   UNL     1       1.844   4.254  18.724  0.00  0.00    +0.000 C 
ATOM      5  N   UNL     1       3.251   6.266  17.982  0.00  0.00    +0.000 N 
ATOM      6  N   UNL     1       4.291   6.538  17.143  0.00  0.00    +0.000 NA
ENDROOT
BRANCH   1  11
ATOM      7  C   UNL     1       7.102   4.170  12.547  0.00  0.00    +0.000 C 
ATOM      8  C   UNL     1       6.833   4.669  13.909  0.00  0.00    +0.000 A 
ATOM      9  N   UNL     1       7.709   5.420  14.585  0.00  0.00    +0.000 NA
ATOM     10  O   UNL     1       7.000   5.772  15.739  0.00  0.00    +0.000 OA
ATOM     11  C   UNL     1       5.767   5.180  15.645  0.00  0.00    +0.000 A 
ATOM     12  N   UNL     1       5.638   4.461  14.543  0.00  0.00    +0.000 NA
ENDBRANCH   1  11
BRANCH   5  13
ATOM     13  C   UNL     1       2.550   7.343  18.604  0.00  0.00    +0.000 A 
ATOM     14  C   UNL     1       2.235   7.325  19.970  0.00  0.00    +0.000 A 
ATOM     15  C   UNL     1       1.440   8.333  20.522  0.00  0.00    +0.000 A 
ATOM     16  C   UNL     1       0.965   9.367  19.721  0.00  0.00    +0.000 A 
ATOM     17  C   UNL     1       1.324   9.425  18.375  0.00  0.00    +0.000 A 
ATOM     18  C   UNL     1       2.129   8.428  17.819  0.00  0.00    +0.000 A 
ENDBRANCH   5  13
TORSDOF 2
ENDMDL
MODEL 4
REMARK VINA RESULT:      -7.3      1.884      2.522
REMARK  Name = 
REMARK  4 active torsions:
REMARK  status: ('A' for Active; 'I' for Inactive)
REMARK    1  A    between atoms: C_1  and  C_2
REMARK    2  A    between atoms: C_5  and  C_6
REMARK    3  A    between atoms: C_8  and  C_9
REMARK    4  A    between atoms: N_10  and  C_11
REMARK                            x       y       z     vdW  Elec       q    Type
REMARK                         _______ _______ _______ _____ _____    ______ ____
ROOT
ATOM      1  C   UNL     1       6.461   4.737  16.357  0.00  0.00    +0.000 A 
ATOM      2  C   UNL     1       7.395   5.251  17.271  0.00  0.00    +0.000 A 
ATOM      3  C   UNL     1       6.772   5.220  18.502  0.00  0.00    +0.000 A 
ATOM      4  C   UNL     1       7.365   5.544  19.824  0.00  0.00    +0.000 C 
ATOM      5  N   UNL     1       5.504   4.687  18.280  0.00  0.00    +0.000 N 
ATOM      6  N   UNL     1       5.318   4.392  16.961  0.00  0.00    +0.000 NA
ENDROOT
BRANCH   1  11
ATOM      7  C   UNL     1       6.095   3.173  11.710  0.00  0.00    +0.000 C 
ATOM      8  C   UNL     1       6.598   3.879  12.905  0.00  0.00    +0.000 A 
ATOM      9  N   UNL     1       7.489   4.872  12.831  0.00  0.00    +0.000 NA
ATOM     10  O   UNL     1       7.567   5.327  14.152  0.00  0.00    +0.000 OA
ATOM     11  C   UNL     1       6.720   4.544  14.893  0.00  0.00    +0.000 A 
ATOM     12  N   UNL     1       6.128   3.614  14.164  0.00  0.00    +0.000 NA
ENDBRANCH   1  11
BRANCH   5  13
ATOM     13  C   UNL     1       4.490   4.348  19.226  0.00  0.00    +0.000 A 
ATOM     14  C   UNL     1       4.333   3.038  19.700  0.00  0.00    +0.000 A 
ATOM     15  C   UNL     1       3.255   2.713  20.526  0.00  0.00    +0.000 A 
ATOM     16  C   UNL     1       2.336   3.691  20.895  0.00  0.00    +0.000 A 
ATOM     17  C   UNL     1       2.518   5.008  20.478  0.00  0.00    +0.000 A 
ATOM     18  C   UNL     1       3.602   5.343  19.662  0.00  0.00    +0.000 A 
ENDBRANCH   5  13
TORSDOF 2
ENDMDL
MODEL 5
REMARK VINA RESULT:      -7.2      1.280      3.217
REMARK  Name = 
REMARK  4 active torsions:
REMARK  status: ('A' for Active; 'I' for Inactive)
REMARK    1  A    between atoms: C_1  and  C_2
REMARK    2  A    between atoms: C_5  and  C_6
REMARK    3  A    between atoms: C_8  and  C_9
REMARK    4  A    between atoms: N_10  and  C_11
REMARK                            x       y       z     vdW  Elec       q    Type
REMARK                         _______ _______ _______ _____ _____    ______ ____
ROOT
ATOM      1  C   UNL     1       4.838   5.326  16.726  0.00  0.00    +0.000 A 
ATOM      2  C   UNL     1       4.260   4.250  17.420  0.00  0.00    +0.000 A 
ATOM      3  C   UNL     1       3.324   4.808  18.266  0.00  0.00    +0.000 A 
ATOM      4  C   UNL     1       2.354   4.097  19.136  0.00  0.00    +0.000 C 
ATOM      5  N   UNL     1       3.373   6.182  18.044  0.00  0.00    +0.000 N 
ATOM      6  N   UNL     1       4.303   6.495  17.097  0.00  0.00    +0.000 NA
ENDROOT
BRANCH   1  11
ATOM      7  C   UNL     1       7.086   4.228  12.494  0.00  0.00    +0.000 C 
ATOM      8  C   UNL     1       6.874   4.715  13.871  0.00  0.00    +0.000 A 
ATOM      9  N   UNL     1       7.761   5.489  14.504  0.00  0.00    +0.000 NA
ATOM     10  O   UNL     1       7.103   5.817  15.694  0.00  0.00    +0.000 OA
ATOM     11  C   UNL     1       5.884   5.189  15.661  0.00  0.00    +0.000 A 
ATOM     12  N   UNL     1       5.719   4.469  14.565  0.00  0.00    +0.000 NA
ENDBRANCH   1  11
BRANCH   5  13
ATOM     13  C   UNL     1       2.547   7.214  18.585  0.00  0.00    +0.000 A 
ATOM     14  C   UNL     1       2.098   8.286  17.801  0.00  0.00    +0.000 A 
ATOM     15  C   UNL     1       1.398   9.342  18.389  0.00  0.00    +0.000 A 
ATOM     16  C   UNL     1       1.130   9.331  19.754  0.00  0.00    +0.000 A 
ATOM     17  C   UNL     1       1.519   8.241  20.529  0.00  0.00    +0.000 A 
ATOM     18  C   UNL     1       2.209   7.174  19.947  0.00  0.00    +0.000 A 
ENDBRANCH   5  13
TORSDOF 2
ENDMDL
MODEL 6
REMARK VINA RESULT:      -7.1      1.784      2.423
REMARK  Name = 
REMARK  4 active torsions:
REMARK  status: ('A' for Active; 'I' for Inactive)
REMARK    1  A    between atoms: C_1  and  C_2
REMARK    2  A    between atoms: C_5  and  C_6
REMARK    3  A    between atoms: C_8  and  C_9
REMARK    4  A    between atoms: N_10  and  C_11
REMARK                            x       y       z     vdW  Elec       q    Type
REMARK                         _______ _______ _______ _____ _____    ______ ____
ROOT
ATOM      1  C   UNL     1       6.384   4.829  16.240  0.00  0.00    +0.000 A 
ATOM      2  C   UNL     1       7.317   5.233  17.209  0.00  0.00    +0.000 A 
ATOM      3  C   UNL     1       6.623   5.284  18.400  0.00  0.00    +0.000 A 
ATOM      4  C   UNL     1       7.171   5.544  19.755  0.00  0.00    +0.000 C 
ATOM      5  N   UNL     1       5.316   4.907  18.103  0.00  0.00    +0.000 N 
ATOM      6  N   UNL     1       5.174   4.628  16.775  0.00  0.00    +0.000 NA
ENDROOT
BRANCH   1  11
ATOM      7  C   UNL     1       6.225   3.125  11.632  0.00  0.00    +0.000 C 
ATOM      8  C   UNL     1       6.670   3.871  12.824  0.00  0.00    +0.000 A 
ATOM      9  N   UNL     1       7.552   4.874  12.756  0.00  0.00    +0.000 NA
ATOM     10  O   UNL     1       7.572   5.368  14.064  0.00  0.00    +0.000 OA
ATOM     11  C   UNL     1       6.704   4.596  14.794  0.00  0.00    +0.000 A 
ATOM     12  N   UNL     1       6.153   3.638  14.070  0.00  0.00    +0.000 NA
ENDBRANCH   1  11
BRANCH   5  13
ATOM     13  C   UNL     1       4.214   4.698  18.986  0.00  0.00    +0.000 A 
ATOM     14  C   UNL     1       3.359   5.745  19.358  0.00  0.00    +0.000 A 
ATOM     15  C   UNL     1       2.368   5.536  20.321  0.00  0.00    +0.000 A 
ATOM     16  C   UNL     1       2.215   4.284  20.908  0.00  0.00    +0.000 A 
ATOM     17  C   UNL     1       3.021   3.222  20.500  0.00  0.00    +0.000 A 
ATOM     18  C   UNL     1       4.006   3.420  19.528  0.00  0.00    +0.000 A 
ENDBRANCH   5  13
TORSDOF 2
ENDMDL
MODEL 7
REMARK VINA RESULT:      -6.9      1.598      2.015
REMARK  Name = 
REMARK  4 active torsions:
REMARK  status: ('A' for Active; 'I' for Inactive)
REMARK    1  A    between atoms: C_1  and  C_2
REMARK    2  A    between atoms: C_5  and  C_6
REMARK    3  A    between atoms: C_8  and  C_9
REMARK    4  A    between atoms: N_10  and  C_11
REMARK                            x       y       z     vdW  Elec       q    Type
REMARK                         _______ _______ _______ _____ _____    ______ ____
ROOT
ATOM      1  C   UNL     1       5.888   4.694  16.041  0.00  0.00    +0.000 A 
ATOM      2  C   UNL     1       6.471   5.135  17.240  0.00  0.00    +0.000 A 
ATOM      3  C   UNL     1       5.517   4.931  18.217  0.00  0.00    +0.000 A 
ATOM      4  C   UNL     1       5.668   5.121  19.682  0.00  0.00    +0.000 C 
ATOM      5  N   UNL     1       4.415   4.375  17.572  0.00  0.00    +0.000 N 
ATOM      6  N   UNL     1       4.649   4.231  16.236  0.00  0.00    +0.000 NA
ENDROOT
BRANCH   1  11
ATOM      7  C   UNL     1       7.023   3.684  11.365  0.00  0.00    +0.000 C 
ATOM      8  C   UNL     1       7.099   4.261  12.721  0.00  0.00    +0.000 A 
ATOM      9  N   UNL     1       7.898   5.290  13.021  0.00  0.00    +0.000 NA
ATOM     10  O   UNL     1       7.550   5.586  14.344  0.00  0.00    +0.000 OA
ATOM     11  C   UNL     1       6.581   4.688  14.711  0.00  0.00    +0.000 A 
ATOM     12  N   UNL     1       6.299   3.830  13.746  0.00  0.00    +0.000 NA
ENDBRANCH   1  11
BRANCH   5  13
ATOM     13  C   UNL     1       3.197   3.882  18.129  0.00  0.00    +0.000 A 
ATOM     14  C   UNL     1       2.372   4.689  18.926  0.00  0.00    +0.000 A 
ATOM     15  C   UNL     1       1.254   4.141  19.560  0.00  0.00    +0.000 A 
ATOM     16  C   UNL     1       0.943   2.795  19.393  0.00  0.00    +0.000 A 
ATOM     17  C   UNL     1       1.723   2.001  18.555  0.00  0.00    +0.000 A 
ATOM     18  C   UNL     1       2.837   2.544  17.908  0.00  0.00    +0.000 A 
ENDBRANCH   5  13
TORSDOF 2
ENDMDL
MODEL 8
REMARK VINA RESULT:      -6.9      1.166      1.585
REMARK  Name = 
REMARK  4 active torsions:
REMARK  status: ('A' for Active; 'I' for Inactive)
REMARK    1  A    between atoms: C_1  and  C_2
REMARK    2  A    between atoms: C_5  and  C_6
REMARK    3  A    between atoms: C_8  and  C_9
REMARK    4  A    between atoms: N_10  and  C_11
REMARK                            x       y       z     vdW  Elec       q    Type
REMARK                         _______ _______ _______ _____ _____    ______ ____
ROOT
ATOM      1  C   UNL     1       4.686   5.071  16.335  0.00  0.00    +0.000 A 
ATOM      2  C   UNL     1       4.395   6.342  16.858  0.00  0.00    +0.000 A 
ATOM      3  C   UNL     1       3.571   6.120  17.943  0.00  0.00    +0.000 A 
ATOM      4  C   UNL     1       3.069   7.123  18.916  0.00  0.00    +0.000 C 
ATOM      5  N   UNL     1       3.408   4.740  18.029  0.00  0.00    +0.000 N 
ATOM      6  N   UNL     1       4.095   4.100  17.040  0.00  0.00    +0.000 NA
ENDROOT
BRANCH   1  11
ATOM      7  C   UNL     1       8.283   5.550  13.018  0.00  0.00    +0.000 C 
ATOM      8  C   UNL     1       7.106   5.010  13.725  0.00  0.00    +0.000 A 
ATOM      9  N   UNL     1       6.634   3.780  13.498  0.00  0.00    +0.000 NA
ATOM     10  O   UNL     1       5.629   3.643  14.462  0.00  0.00    +0.000 OA
ATOM     11  C   UNL     1       5.590   4.820  15.165  0.00  0.00    +0.000 A 
ATOM     12  N   UNL     1       6.465   5.703  14.717  0.00  0.00    +0.000 NA
ENDBRANCH   1  11
BRANCH   5  13
ATOM     13  C   UNL     1       2.733   3.972  19.026  0.00  0.00    +0.000 A 
ATOM     14  C   UNL     1       1.339   3.816  19.018  0.00  0.00    +0.000 A 
ATOM     15  C   UNL     1       0.698   3.166  20.075  0.00  0.00    +0.000 A 
ATOM     16  C   UNL     1       1.440   2.657  21.137  0.00  0.00    +0.000 A 
ATOM     17  C   UNL     1       2.830   2.755  21.124  0.00  0.00    +0.000 A 
ATOM     18  C   UNL     1       3.479   3.393  20.063  0.00  0.00    +0.000 A 
ENDBRANCH   5  13
TORSDOF 2
ENDMDL
MODEL 9
REMARK VINA RESULT:      -6.8      2.973      6.686
REMARK  Name = 
REMARK  4 active torsions:
REMARK  status: ('A' for Active; 'I' for Inactive)
REMARK    1  A    between atoms: C_1  and  C_2
REMARK    2  A    between atoms: C_5  and  C_6
REMARK    3  A    between atoms: C_8  and  C_9
REMARK    4  A    between atoms: N_10  and  C_11
REMARK                            x       y       z     vdW  Elec       q    Type
REMARK                         _______ _______ _______ _____ _____    ______ ____
ROOT
ATOM      1  C   UNL     1       2.592   6.321  19.649  0.00  0.00    +0.000 A 
ATOM      2  C   UNL     1       2.500   5.068  20.276  0.00  0.00    +0.000 A 
ATOM      3  C   UNL     1       3.387   4.248  19.609  0.00  0.00    +0.000 A 
ATOM      4  C   UNL     1       3.761   2.852  19.949  0.00  0.00    +0.000 C 
ATOM      5  N   UNL     1       3.975   5.037  18.622  0.00  0.00    +0.000 N 
ATOM      6  N   UNL     1       3.483   6.309  18.652  0.00  0.00    +0.000 NA
ENDROOT
BRANCH   1  11
ATOM      7  C   UNL     1       0.173   9.604  22.395  0.00  0.00    +0.000 C 
ATOM      8  C   UNL     1       0.778   8.952  21.218  0.00  0.00    +0.000 A 
ATOM      9  N   UNL     1       0.966   9.592  20.059  0.00  0.00    +0.000 NA
ATOM     10  O   UNL     1       1.676   8.660  19.294  0.00  0.00    +0.000 OA
ATOM     11  C   UNL     1       1.831   7.542  20.072  0.00  0.00    +0.000 A 
ATOM     12  N   UNL     1       1.259   7.671  21.257  0.00  0.00    +0.000 NA
ENDBRANCH   1  11
BRANCH   5  13
ATOM     13  C   UNL     1       5.029   4.712  17.717  0.00  0.00    +0.000 A 
ATOM     14  C   UNL     1       6.378   4.840  18.079  0.00  0.00    +0.000 A 
ATOM     15  C   UNL     1       7.383   4.635  17.132  0.00  0.00    +0.000 A 
ATOM     16  C   UNL     1       7.054   4.291  15.824  0.00  0.00    +0.000 A 
ATOM     17  C   UNL     1       5.719   4.103  15.471  0.00  0.00    +0.000 A 
ATOM     18  C   UNL     1       4.708   4.293  16.416  0.00  0.00    +0.000 A 
ENDBRANCH   5  13
TORSDOF 2
ENDMDL
