MODEL 1
REMARK VINA RESULT:      -7.6      0.000      0.000
REMARK  Name = 
REMARK  6 active torsions:
REMARK  status: ('A' for Active; 'I' for Inactive)
REMARK    1  A    between atoms: C_2  and  C_3
REMARK    2  A    between atoms: C_2  and  C_4
REMARK    3  A    between atoms: C_7  and  C_8
REMARK    4  A    between atoms: C_9  and  O_10
REMARK    5  A    between atoms: C_13  and  C_14
REMARK    6  A    between atoms: C_13  and  O_15
REMARK                            x       y       z     vdW  Elec       q    Type
REMARK                         _______ _______ _______ _____ _____    ______ ____
ROOT
ATOM      1  C   UNL     1       4.942   4.754  15.787  0.00  0.00    +0.000 C 
ATOM      2  C   UNL     1       4.910   6.170  16.381  0.00  0.00    +0.000 C 
ATOM      3  C   UNL     1       3.854   6.352  17.462  0.00  0.00    +0.000 C 
ATOM      4  C   UNL     1       3.934   5.278  18.578  0.00  0.00    +0.000 C 
ATOM      5  C   UNL     1       5.285   5.462  19.320  0.00  0.00    +0.000 C 
ATOM      6  C   UNL     1       2.739   5.493  19.551  0.00  0.00    +0.000 C 
ATOM      7  C   UNL     1       2.609   4.393  20.603  0.00  0.00    +0.000 C 
ATOM      8  C   UNL     1       2.546   3.005  19.975  0.00  0.00    +0.000 C 
ATOM      9  C   UNL     1       3.694   2.723  18.983  0.00  0.00    +0.000 C 
ATOM     10  C   UNL     1       3.473   1.337  18.364  0.00  0.00    +0.000 C 
ATOM     11  C   UNL     1       3.775   3.863  17.918  0.00  0.00    +0.000 C 
ATOM     12  C   UNL     1       4.854   3.624  16.842  0.00  0.00    +0.000 C 
ENDROOT
BRANCH   1  14
ATOM     13  C   UNL     1       7.375   5.012  15.233  0.00  0.00    +0.000 C 
ATOM     14  C   UNL     1       6.156   4.570  14.878  0.00  0.00    +0.000 C 
ATOM     15  C   UNL     1       5.960   3.861  13.561  0.00  0.00    +0.000 C 
ENDBRANCH   1  14
BRANCH   6  16
ATOM     16  O   UNL     1       2.809   6.757  20.204  0.00  0.00    +0.000 OA
ATOM     17  H   UNL     1       1.962   7.216  20.075  0.00  0.00    +0.000 HD
ENDBRANCH   6  16
BRANCH   9  18
ATOM     18  O   UNL     1       4.931   2.658  19.694  0.00  0.00    +0.000 OA
ATOM     19  H   UNL     1       4.793   2.989  20.598  0.00  0.00    +0.000 HD
ENDBRANCH   9  18
TORSDOF 3
ENDMDL
MODEL 2
REMARK VINA RESULT:      -7.4      0.839      1.186
REMARK  Name = 
REMARK  6 active torsions:
REMARK  status: ('A' for Active; 'I' for Inactive)
REMARK    1  A    between atoms: C_2  and  C_3
REMARK    2  A    between atoms: C_2  and  C_4
REMARK    3  A    between atoms: C_7  and  C_8
REMARK    4  A    between atoms: C_9  and  O_10
REMARK    5  A    between atoms: C_13  and  C_14
REMARK    6  A    between atoms: C_13  and  O_15
REMARK                            x       y       z     vdW  Elec       q    Type
REMARK                         _______ _______ _______ _____ _____    ______ ____
ROOT
ATOM      1  C   UNL     1       4.742   4.978  15.958  0.00  0.00    +0.000 C 
ATOM      2  C   UNL     1       4.964   6.332  16.648  0.00  0.00    +0.000 C 
ATOM      3  C   UNL     1       3.839   6.721  17.598  0.00  0.00    +0.000 C 
ATOM      4  C   UNL     1       3.504   5.615  18.631  0.00  0.00    +0.000 C 
ATOM      5  C   UNL     1       4.741   5.430  19.549  0.00  0.00    +0.000 C 
ATOM      6  C   UNL     1       2.270   6.076  19.459  0.00  0.00    +0.000 C 
ATOM      7  C   UNL     1       1.734   4.997  20.400  0.00  0.00    +0.000 C 
ATOM      8  C   UNL     1       1.432   3.696  19.666  0.00  0.00    +0.000 C 
ATOM      9  C   UNL     1       2.608   3.183  18.809  0.00  0.00    +0.000 C 
ATOM     10  C   UNL     1       2.154   1.921  18.064  0.00  0.00    +0.000 C 
ATOM     11  C   UNL     1       3.107   4.312  17.852  0.00  0.00    +0.000 C 
ATOM     12  C   UNL     1       4.239   3.860  16.905  0.00  0.00    +0.000 C 
ENDROOT
BRANCH   1  14
ATOM     13  C   UNL     1       5.921   4.040  13.954  0.00  0.00    +0.000 C 
ATOM     14  C   UNL     1       5.992   4.540  15.199  0.00  0.00    +0.000 C 
ATOM     15  C   UNL     1       7.330   4.694  15.880  0.00  0.00    +0.000 C 
ENDBRANCH   1  14
BRANCH   6  16
ATOM     16  O   UNL     1       2.545   7.255  20.209  0.00  0.00    +0.000 OA
ATOM     17  H   UNL     1       2.746   6.995  21.124  0.00  0.00    +0.000 HD
ENDBRANCH   6  16
BRANCH   9  18
ATOM     18  O   UNL     1       3.681   2.785  19.664  0.00  0.00    +0.000 OA
ATOM     19  H   UNL     1       3.790   1.821  19.607  0.00  0.00    +0.000 HD
ENDBRANCH   9  18
TORSDOF 3
ENDMDL
MODEL 3
REMARK VINA RESULT:      -6.8      2.578      5.048
REMARK  Name = 
REMARK  6 active torsions:
REMARK  status: ('A' for Active; 'I' for Inactive)
REMARK    1  A    between atoms: C_2  and  C_3
REMARK    2  A    between atoms: C_2  and  C_4
REMARK    3  A    between atoms: C_7  and  C_8
REMARK    4  A    between atoms: C_9  and  O_10
REMARK    5  A    between atoms: C_13  and  C_14
REMARK    6  A    between atoms: C_13  and  O_15
REMARK                            x       y       z     vdW  Elec       q    Type
REMARK                         _______ _______ _______ _____ _____    ______ ____
ROOT
ATOM      1  C   UNL     1       2.251   7.320  19.981  0.00  0.00    +0.000 C 
ATOM      2  C   UNL     1       2.618   7.409  18.493  0.00  0.00    +0.000 C 
ATOM      3  C   UNL     1       3.469   6.244  18.006  0.00  0.00    +0.000 C 
ATOM      4  C   UNL     1       2.862   4.861  18.350  0.00  0.00    +0.000 C 
ATOM      5  C   UNL     1       1.527   4.719  17.571  0.00  0.00    +0.000 C 
ATOM      6  C   UNL     1       3.872   3.760  17.914  0.00  0.00    +0.000 C 
ATOM      7  C   UNL     1       3.464   2.355  18.353  0.00  0.00    +0.000 C 
ATOM      8  C   UNL     1       3.201   2.277  19.853  0.00  0.00    +0.000 C 
ATOM      9  C   UNL     1       2.217   3.351  20.364  0.00  0.00    +0.000 C 
ATOM     10  C   UNL     1       2.100   3.218  21.887  0.00  0.00    +0.000 C 
ATOM     11  C   UNL     1       2.686   4.769  19.907  0.00  0.00    +0.000 C 
ATOM     12  C   UNL     1       1.794   5.911  20.437  0.00  0.00    +0.000 C 
ENDROOT
BRANCH   1  14
ATOM     13  C   UNL     1       0.545   8.333  21.516  0.00  0.00    +0.000 C 
ATOM     14  C   UNL     1       1.221   8.384  20.355  0.00  0.00    +0.000 C 
ATOM     15  C   UNL     1       0.983   9.517  19.388  0.00  0.00    +0.000 C 
ENDBRANCH   1  14
BRANCH   6  16
ATOM     16  O   UNL     1       4.086   3.766  16.506  0.00  0.00    +0.000 OA
ATOM     17  H   UNL     1       3.228   3.892  16.067  0.00  0.00    +0.000 HD
ENDBRANCH   6  16
BRANCH   9  18
ATOM     18  O   UNL     1       0.916   3.094  19.832  0.00  0.00    +0.000 OA
ATOM     19  H   UNL     1       0.916   3.303  18.883  0.00  0.00    +0.000 HD
ENDBRANCH   9  18
TORSDOF 3
ENDMDL
MODEL 4
REMARK VINA RESULT:      -6.8      2.094      4.949
REMARK  Name = 
REMARK  6 active torsions:
REMARK  status: ('A' for Active; 'I' for Inactive)
REMARK    1  A    between atoms: C_2  and  C_3
REMARK    2  A    between atoms: C_2  and  C_4
REMARK    3  A    between atoms: C_7  and  C_8
REMARK    4  A    between atoms: C_9  and  O_10
REMARK    5  A    between atoms: C_13  and  C_14
REMARK    6  A    between atoms: C_13  and  O_15
REMARK                            x       y       z     vdW  Elec       q    Type
REMARK                         _______ _______ _______ _____ _____    ______ ____
ROOT
ATOM      1  C   UNL     1       3.230   4.556  19.646  0.00  0.00    +0.000 C 
ATOM      2  C   UNL     1       2.583   4.850  18.284  0.00  0.00    +0.000 C 
ATOM      3  C   UNL     1       3.317   5.915  17.480  0.00  0.00    +0.000 C 
ATOM      4  C   UNL     1       4.832   5.628  17.330  0.00  0.00    +0.000 C 
ATOM      5  C   UNL     1       4.990   4.331  16.491  0.00  0.00    +0.000 C 
ATOM      6  C   UNL     1       5.490   6.835  16.602  0.00  0.00    +0.000 C 
ATOM      7  C   UNL     1       7.014   6.750  16.542  0.00  0.00    +0.000 C 
ATOM      8  C   UNL     1       7.632   6.555  17.922  0.00  0.00    +0.000 C 
ATOM      9  C   UNL     1       7.018   5.380  18.713  0.00  0.00    +0.000 C 
ATOM     10  C   UNL     1       7.663   5.340  20.104  0.00  0.00    +0.000 C 
ATOM     11  C   UNL     1       5.463   5.522  18.763  0.00  0.00    +0.000 C 
ATOM     12  C   UNL     1       4.773   4.424  19.598  0.00  0.00    +0.000 C 
ENDROOT
BRANCH   1  14
ATOM     13  C   UNL     1       2.327   3.300  21.620  0.00  0.00    +0.000 C 
ATOM     14  C   UNL     1       2.589   3.335  20.302  0.00  0.00    +0.000 C 
ATOM     15  C   UNL     1       2.239   2.156  19.428  0.00  0.00    +0.000 C 
ENDBRANCH   1  14
BRANCH   6  16
ATOM     16  O   UNL     1       4.979   7.000  15.282  0.00  0.00    +0.000 OA
ATOM     17  H   UNL     1       5.702   7.309  14.711  0.00  0.00    +0.000 HD
ENDBRANCH   6  16
BRANCH   9  18
ATOM     18  O   UNL     1       7.355   4.149  18.073  0.00  0.00    +0.000 OA
ATOM     19  H   UNL     1       8.320   4.105  17.961  0.00  0.00    +0.000 HD
ENDBRANCH   9  18
TORSDOF 3
ENDMDL
MODEL 5
REMARK VINA RESULT:      -6.5      2.048      2.844
REMARK  Name = 
REMARK  6 active torsions:
REMARK  status: ('A' for Active; 'I' for Inactive)
REMARK    1  A    between atoms: C_2  and  C_3
REMARK    2  A    between atoms: C_2  and  C_4
REMARK    3  A    between atoms: C_7  and  C_8
REMARK    4  A    between atoms: C_9  and  O_10
REMARK    5  A    between atoms: C_13  and  C_14
REMARK    6  A    between atoms: C_13  and  O_15
REMARK                            x       y       z     vdW  Elec       q    Type
REMARK                         _______ _______ _______ _____ _____    ______ ____
ROOT
ATOM      1  C   UNL     1       6.114   5.188  17.922  0.00  0.00    +0.000 C 
ATOM      2  C   UNL     1       5.069   5.993  17.136  0.00  0.00    +0.000 C 
ATOM      3  C   UNL     1       3.805   5.204  16.822  0.00  0.00    +0.000 C 
ATOM      4  C   UNL     1       3.176   4.540  18.073  0.00  0.00    +0.000 C 
ATOM      5  C   UNL     1       2.701   5.671  19.025  0.00  0.00    +0.000 C 
ATOM      6  C   UNL     1       1.971   3.669  17.612  0.00  0.00    +0.000 C 
ATOM      7  C   UNL     1       1.368   2.827  18.735  0.00  0.00    +0.000 C 
ATOM      8  C   UNL     1       2.416   1.966  19.432  0.00  0.00    +0.000 C 
ATOM      9  C   UNL     1       3.651   2.760  19.906  0.00  0.00    +0.000 C 
ATOM     10  C   UNL     1       4.658   1.776  20.513  0.00  0.00    +0.000 C 
ATOM     11  C   UNL     1       4.243   3.589  18.721  0.00  0.00    +0.000 C 
ATOM     12  C   UNL     1       5.527   4.360  19.092  0.00  0.00    +0.000 C 
ENDROOT
BRANCH   1  14
ATOM     13  C   UNL     1       7.983   5.786  19.485  0.00  0.00    +0.000 C 
ATOM     14  C   UNL     1       7.252   6.089  18.398  0.00  0.00    +0.000 C 
ATOM     15  C   UNL     1       7.554   7.337  17.605  0.00  0.00    +0.000 C 
ENDBRANCH   1  14
BRANCH   6  16
ATOM     16  O   UNL     1       0.945   4.458  17.017  0.00  0.00    +0.000 OA
ATOM     17  H   UNL     1       0.922   5.320  17.466  0.00  0.00    +0.000 HD
ENDBRANCH   6  16
BRANCH   9  18
ATOM     18  O   UNL     1       3.269   3.651  20.955  0.00  0.00    +0.000 OA
ATOM     19  H   UNL     1       3.702   3.371  21.779  0.00  0.00    +0.000 HD
ENDBRANCH   9  18
TORSDOF 3
ENDMDL
MODEL 6
REMARK VINA RESULT:      -6.2      1.251      1.608
REMARK  Name = 
REMARK  6 active torsions:
REMARK  status: ('A' for Active; 'I' for Inactive)
REMARK    1  A    between atoms: C_2  and  C_3
REMARK    2  A    between atoms: C_2  and  C_4
REMARK    3  A    between atoms: C_7  and  C_8
REMARK    4  A    between atoms: C_9  and  O_10
REMARK    5  A    between atoms: C_13  and  C_14
REMARK    6  A    between atoms: C_13  and  O_15
REMARK                            x       y       z     vdW  Elec       q    Type
REMARK                         _______ _______ _______ _____ _____    ______ ____
ROOT
ATOM      1  C   UNL     1       4.518   5.375  16.780  0.00  0.00    +0.000 C 
ATOM      2  C   UNL     1       3.824   6.507  17.551  0.00  0.00    +0.000 C 
ATOM      3  C   UNL     1       2.529   6.076  18.227  0.00  0.00    +0.000 C 
ATOM      4  C   UNL     1       2.694   4.815  19.112  0.00  0.00    +0.000 C 
ATOM      5  C   UNL     1       3.643   5.178  20.286  0.00  0.00    +0.000 C 
ATOM      6  C   UNL     1       1.292   4.404  19.646  0.00  0.00    +0.000 C 
ATOM      7  C   UNL     1       1.296   3.073  20.397  0.00  0.00    +0.000 C 
ATOM      8  C   UNL     1       1.903   1.948  19.566  0.00  0.00    +0.000 C 
ATOM      9  C   UNL     1       3.293   2.289  18.988  0.00  0.00    +0.000 C 
ATOM     10  C   UNL     1       3.757   1.118  18.114  0.00  0.00    +0.000 C 
ATOM     11  C   UNL     1       3.234   3.645  18.215  0.00  0.00    +0.000 C 
ATOM     12  C   UNL     1       4.569   4.028  17.543  0.00  0.00    +0.000 C 
ENDROOT
BRANCH   1  14
ATOM     13  C   UNL     1       6.624   6.722  16.988  0.00  0.00    +0.000 C 
ATOM     14  C   UNL     1       5.910   5.802  16.317  0.00  0.00    +0.000 C 
ATOM     15  C   UNL     1       6.481   5.153  15.080  0.00  0.00    +0.000 C 
ENDBRANCH   1  14
BRANCH   6  16
ATOM     16  O   UNL     1       0.728   5.410  20.482  0.00  0.00    +0.000 OA
ATOM     17  H   UNL     1       1.403   6.093  20.637  0.00  0.00    +0.000 HD
ENDBRANCH   6  16
BRANCH   9  18
ATOM     18  O   UNL     1       4.237   2.399  20.054  0.00  0.00    +0.000 OA
ATOM     19  H   UNL     1       4.854   1.649  20.008  0.00  0.00    +0.000 HD
ENDBRANCH   9  18
TORSDOF 3
ENDMDL
MODEL 7
REMARK VINA RESULT:      -6.1      1.774      5.468
REMARK  Name = 
REMARK  6 active torsions:
REMARK  status: ('A' for Active; 'I' for Inactive)
REMARK    1  A    between atoms: C_2  and  C_3
REMARK    2  A    between atoms: C_2  and  C_4
REMARK    3  A    between atoms: C_7  and  C_8
REMARK    4  A    between atoms: C_9  and  O_10
REMARK    5  A    between atoms: C_13  and  C_14
REMARK    6  A    between atoms: C_13  and  O_15
REMARK                            x       y       z     vdW  Elec       q    Type
REMARK                         _______ _______ _______ _____ _____    ______ ____
ROOT
ATOM      1  C   UNL     1       2.169   4.031  18.958  0.00  0.00    +0.000 C 
ATOM      2  C   UNL     1       2.986   2.765  18.664  0.00  0.00    +0.000 C 
ATOM      3  C   UNL     1       3.753   2.828  17.349  0.00  0.00    +0.000 C 
ATOM      4  C   UNL     1       4.625   4.102  17.214  0.00  0.00    +0.000 C 
ATOM      5  C   UNL     1       5.729   4.042  18.304  0.00  0.00    +0.000 C 
ATOM      6  C   UNL     1       5.258   4.113  15.792  0.00  0.00    +0.000 C 
ATOM      7  C   UNL     1       6.008   5.406  15.473  0.00  0.00    +0.000 C 
ATOM      8  C   UNL     1       5.137   6.640  15.682  0.00  0.00    +0.000 C 
ATOM      9  C   UNL     1       4.462   6.691  17.069  0.00  0.00    +0.000 C 
ATOM     10  C   UNL     1       3.557   7.928  17.124  0.00  0.00    +0.000 C 
ATOM     11  C   UNL     1       3.693   5.359  17.341  0.00  0.00    +0.000 C 
ATOM     12  C   UNL     1       2.928   5.353  18.680  0.00  0.00    +0.000 C 
ENDROOT
BRANCH   1  14
ATOM     13  C   UNL     1       1.217   2.855  20.958  0.00  0.00    +0.000 C 
ATOM     14  C   UNL     1       1.608   4.003  20.378  0.00  0.00    +0.000 C 
ATOM     15  C   UNL     1       1.514   5.305  21.135  0.00  0.00    +0.000 C 
ENDBRANCH   1  14
BRANCH   6  16
ATOM     16  O   UNL     1       6.130   3.005  15.593  0.00  0.00    +0.000 OA
ATOM     17  H   UNL     1       6.289   2.582  16.453  0.00  0.00    +0.000 HD
ENDBRANCH   6  16
BRANCH   9  18
ATOM     18  O   UNL     1       5.458   6.871  18.076  0.00  0.00    +0.000 OA
ATOM     19  H   UNL     1       5.029   7.168  18.895  0.00  0.00    +0.000 HD
ENDBRANCH   9  18
TORSDOF 3
ENDMDL
MODEL 8
REMARK VINA RESULT:      -5.9      2.193      3.756
REMARK  Name = 
REMARK  6 active torsions:
REMARK  status: ('A' for Active; 'I' for Inactive)
REMARK    1  A    between atoms: C_2  and  C_3
REMARK    2  A    between atoms: C_2  and  C_4
REMARK    3  A    between atoms: C_7  and  C_8
REMARK    4  A    between atoms: C_9  and  O_10
REMARK    5  A    between atoms: C_13  and  C_14
REMARK    6  A    between atoms: C_13  and  O_15
REMARK                            x       y       z     vdW  Elec       q    Type
REMARK                         _______ _______ _______ _____ _____    ______ ____
ROOT
ATOM      1  C   UNL     1       5.762   5.225  18.963  0.00  0.00    +0.000 C 
ATOM      2  C   UNL     1       5.806   3.854  18.273  0.00  0.00    +0.000 C 
ATOM      3  C   UNL     1       4.751   2.881  18.783  0.00  0.00    +0.000 C 
ATOM      4  C   UNL     1       3.319   3.472  18.763  0.00  0.00    +0.000 C 
ATOM      5  C   UNL     1       2.929   3.726  17.282  0.00  0.00    +0.000 C 
ATOM      6  C   UNL     1       2.354   2.441  19.415  0.00  0.00    +0.000 C 
ATOM      7  C   UNL     1       0.935   2.975  19.608  0.00  0.00    +0.000 C 
ATOM      8  C   UNL     1       0.919   4.288  20.383  0.00  0.00    +0.000 C 
ATOM      9  C   UNL     1       1.866   5.360  19.801  0.00  0.00    +0.000 C 
ATOM     10  C   UNL     1       1.818   6.595  20.709  0.00  0.00    +0.000 C 
ATOM     11  C   UNL     1       3.305   4.773  19.641  0.00  0.00    +0.000 C 
ATOM     12  C   UNL     1       4.334   5.803  19.131  0.00  0.00    +0.000 C 
ENDROOT
BRANCH   1  14
ATOM     13  C   UNL     1       7.929   6.461  18.708  0.00  0.00    +0.000 C 
ATOM     14  C   UNL     1       6.684   6.220  18.262  0.00  0.00    +0.000 C 
ATOM     15  C   UNL     1       6.167   6.927  17.034  0.00  0.00    +0.000 C 
ENDBRANCH   1  14
BRANCH   6  16
ATOM     16  O   UNL     1       2.298   1.226  18.674  0.00  0.00    +0.000 OA
ATOM     17  H   UNL     1       1.860   0.553  19.222  0.00  0.00    +0.000 HD
ENDBRANCH   6  16
BRANCH   9  18
ATOM     18  O   UNL     1       1.384   5.776  18.523  0.00  0.00    +0.000 OA
ATOM     19  H   UNL     1       1.639   5.114  17.859  0.00  0.00    +0.000 HD
ENDBRANCH   9  18
TORSDOF 3
ENDMDL
MODEL 9
REMARK VINA RESULT:      -5.9      2.262      4.862
REMARK  Name = 
REMARK  6 active torsions:
REMARK  status: ('A' for Active; 'I' for Inactive)
REMARK    1  A    between atoms: C_2  and  C_3
REMARK    2  A    between atoms: C_2  and  C_4
REMARK    3  A    between atoms: C_7  and  C_8
REMARK    4  A    between atoms: C_9  and  O_10
REMARK    5  A    between atoms: C_13  and  C_14
REMARK    6  A    between atoms: C_13  and  O_15
REMARK                            x       y       z     vdW  Elec       q    Type
REMARK                         _______ _______ _______ _____ _____    ______ ____
ROOT
ATOM      1  C   UNL     1       3.311   3.413  18.088  0.00  0.00    +0.000 C 
ATOM      2  C   UNL     1       3.830   4.135  19.339  0.00  0.00    +0.000 C 
ATOM      3  C   UNL     1       5.315   4.470  19.276  0.00  0.00    +0.000 C 
ATOM      4  C   UNL     1       5.713   5.229  17.984  0.00  0.00    +0.000 C 
ATOM      5  C   UNL     1       5.004   6.610  18.006  0.00  0.00    +0.000 C 
ATOM      6  C   UNL     1       7.259   5.405  17.977  0.00  0.00    +0.000 C 
ATOM      7  C   UNL     1       7.796   5.992  16.672  0.00  0.00    +0.000 C 
ATOM      8  C   UNL     1       7.341   5.193  15.455  0.00  0.00    +0.000 C 
ATOM      9  C   UNL     1       5.816   4.965  15.402  0.00  0.00    +0.000 C 
ATOM     10  C   UNL     1       5.498   4.088  14.184  0.00  0.00    +0.000 C 
ATOM     11  C   UNL     1       5.319   4.347  16.747  0.00  0.00    +0.000 C 
ATOM     12  C   UNL     1       3.811   4.019  16.753  0.00  0.00    +0.000 C 
ENDROOT
BRANCH   1  14
ATOM     13  C   UNL     1       1.008   4.223  17.515  0.00  0.00    +0.000 C 
ATOM     14  C   UNL     1       1.788   3.305  18.111  0.00  0.00    +0.000 C 
ATOM     15  C   UNL     1       1.167   2.124  18.816  0.00  0.00    +0.000 C 
ENDBRANCH   1  14
BRANCH   6  16
ATOM     16  O   UNL     1       7.706   6.205  19.068  0.00  0.00    +0.000 OA
ATOM     17  H   UNL     1       8.461   6.738  18.767  0.00  0.00    +0.000 HD
ENDBRANCH   6  16
BRANCH   9  18
ATOM     18  O   UNL     1       5.156   6.213  15.187  0.00  0.00    +0.000 OA
ATOM     19  H   UNL     1       5.074   6.677  16.037  0.00  0.00    +0.000 HD
ENDBRANCH   9  18
TORSDOF 3
ENDMDL
