MODEL 1
REMARK VINA RESULT:      -8.1      0.000      0.000
REMARK  Name = 
REMARK  16 active torsions:
REMARK  status: ('A' for Active; 'I' for Inactive)
REMARK    1  A    between atoms: C_1  and  C_2
REMARK    2  A    between atoms: C_2  and  O_3
REMARK    3  A    between atoms: O_3  and  P_4
REMARK    4  A    between atoms: C_7  and  C_8
REMARK    5  A    between atoms: C_9  and  O_10
REMARK    6  A    between atoms: C_11  and  C_12
REMARK    7  A    between atoms: C_12  and  C_13
REMARK    8  A    between atoms: C_12  and  C_14
REMARK    9  A    between atoms: C_12  and  C_15
REMARK   10  A    between atoms: N_16  and  C_17
REMARK   11  A    between atoms: C_17  and  C_18
REMARK   12  A    between atoms: C_18  and  C_19
REMARK   13  A    between atoms: C_19  and  C_20
REMARK   14  A    between atoms: C_19  and  C_21
REMARK   15  A    between atoms: C_19  and  C_22
REMARK   16  A    between atoms: C_29  and  C_30
REMARK                            x       y       z     vdW  Elec       q    Type
REMARK                         _______ _______ _______ _____ _____    ______ ____
ROOT
ATOM      1  C   UNL     1       2.002   7.769  19.264  0.00  0.00    +0.000 C 
ATOM      2  C   UNL     1       2.279   6.631  19.920  0.00  0.00    +0.000 C 
ATOM      3  C   UNL     1       3.147   5.655  19.160  0.00  0.00    +0.000 C 
ATOM      4  N   UNL     1       3.448   6.505  18.011  0.00  0.00    +0.000 N 
ATOM      5  C   UNL     1       2.716   7.682  17.989  0.00  0.00    +0.000 C 
ATOM      6  O   UNL     1       2.688   8.551  17.141  0.00  0.00    +0.000 OA
ENDROOT
BRANCH   1  10
ATOM      7  P   UNL     1       0.471  11.310  19.329  0.00  0.00    +0.000 P 
ATOM      8  O   UNL     1      -0.154  12.095  18.212  0.00  0.00    +0.000 OA
ATOM      9  N   UNL     1       1.090   9.895  18.914  0.00  0.00    +0.000 NA
ATOM     10  C   UNL     1       1.148   8.891  19.740  0.00  0.00    +0.000 C 
ATOM     11  N   UNL     1       0.549   8.864  20.984  0.00  0.00    +0.000 N 
ATOM     12  C   UNL     1      -0.254   9.890  21.510  0.00  0.00    +0.000 A 
ATOM     13  C   UNL     1      -0.688   9.873  22.839  0.00  0.00    +0.000 A 
ATOM     14  C   UNL     1      -1.352  10.981  23.393  0.00  0.00    +0.000 A 
ATOM     15  C   UNL     1      -1.659  12.094  22.605  0.00  0.00    +0.000 A 
ATOM     16  C   UNL     1      -1.265  12.105  21.271  0.00  0.00    +0.000 A 
ATOM     17  C   UNL     1      -0.491  11.049  20.766  0.00  0.00    +0.000 A 
ATOM     18  H   UNL     1       0.549   7.974  21.487  0.00  0.00    +0.000 HD
BRANCH  15  19
ATOM     19  C   UNL     1      -2.254  13.268  23.176  0.00  0.00    +0.000 C 
ATOM     20  N   UNL     1      -2.776  14.197  23.636  0.00  0.00    +0.000 NA
ENDBRANCH  15  19
BRANCH   7  21
ATOM     21  O   UNL     1       1.749  12.111  19.946  0.00  0.00    +0.000 OA
BRANCH  21  23
ATOM     22  C   UNL     1       2.979  13.358  18.303  0.00  0.00    +0.000 C 
ATOM     23  C   UNL     1       1.979  13.410  19.440  0.00  0.00    +0.000 C 
ENDBRANCH  21  23
ENDBRANCH   7  21
ENDBRANCH   1  10
BRANCH   3  24
ATOM     24  C   UNL     1       2.466   4.272  18.803  0.00  0.00    +0.000 C 
ATOM     25  C   UNL     1       3.498   3.204  18.385  0.00  0.00    +0.000 C 
ATOM     26  C   UNL     1       1.659   3.708  19.995  0.00  0.00    +0.000 C 
ATOM     27  C   UNL     1       1.446   4.429  17.649  0.00  0.00    +0.000 C 
ENDBRANCH   3  24
BRANCH   2  28
ATOM     28  O   UNL     1       1.882   6.331  21.206  0.00  0.00    +0.000 OA
ATOM     29  H   UNL     1       2.203   7.067  21.781  0.00  0.00    +0.000 HD
ENDBRANCH   2  28
BRANCH   4  30
ATOM     30  C   UNL     1       4.514   6.220  17.072  0.00  0.00    +0.000 C 
BRANCH  30  31
ATOM     31  C   UNL     1       5.806   6.988  17.372  0.00  0.00    +0.000 C 
BRANCH  31  32
ATOM     32  C   UNL     1       6.926   6.128  18.012  0.00  0.00    +0.000 C 
ATOM     33  C   UNL     1       6.400   5.382  19.249  0.00  0.00    +0.000 C 
ATOM     34  C   UNL     1       7.396   5.090  16.976  0.00  0.00    +0.000 C 
ATOM     35  C   UNL     1       8.131   6.998  18.408  0.00  0.00    +0.000 C 
ENDBRANCH  31  32
ENDBRANCH  30  31
ENDBRANCH   4  30
TORSDOF 9
ENDMDL
MODEL 2
REMARK VINA RESULT:      -8.1      0.850      1.387
REMARK  Name = 
REMARK  16 active torsions:
REMARK  status: ('A' for Active; 'I' for Inactive)
REMARK    1  A    between atoms: C_1  and  C_2
REMARK    2  A    between atoms: C_2  and  O_3
REMARK    3  A    between atoms: O_3  and  P_4
REMARK    4  A    between atoms: C_7  and  C_8
REMARK    5  A    between atoms: C_9  and  O_10
REMARK    6  A    between atoms: C_11  and  C_12
REMARK    7  A    between atoms: C_12  and  C_13
REMARK    8  A    between atoms: C_12  and  C_14
REMARK    9  A    between atoms: C_12  and  C_15
REMARK   10  A    between atoms: N_16  and  C_17
REMARK   11  A    between atoms: C_17  and  C_18
REMARK   12  A    between atoms: C_18  and  C_19
REMARK   13  A    between atoms: C_19  and  C_20
REMARK   14  A    between atoms: C_19  and  C_21
REMARK   15  A    between atoms: C_19  and  C_22
REMARK   16  A    between atoms: C_29  and  C_30
REMARK                            x       y       z     vdW  Elec       q    Type
REMARK                         _______ _______ _______ _____ _____    ______ ____
ROOT
ATOM      1  C   UNL     1       1.688   8.246  19.397  0.00  0.00    +0.000 C 
ATOM      2  C   UNL     1       1.997   7.179  20.152  0.00  0.00    +0.000 C 
ATOM      3  C   UNL     1       2.909   6.173  19.488  0.00  0.00    +0.000 C 
ATOM      4  N   UNL     1       3.195   6.932  18.273  0.00  0.00    +0.000 N 
ATOM      5  C   UNL     1       2.423   8.075  18.142  0.00  0.00    +0.000 C 
ATOM      6  O   UNL     1       2.375   8.867  17.221  0.00  0.00    +0.000 OA
ENDROOT
BRANCH   1  10
ATOM      7  P   UNL     1      -0.104  11.644  19.043  0.00  0.00    +0.000 P 
ATOM      8  O   UNL     1      -0.872  12.196  17.876  0.00  0.00    +0.000 OA
ATOM      9  N   UNL     1       0.589  10.224  18.801  0.00  0.00    +0.000 NA
ATOM     10  C   UNL     1       0.789   9.373  19.765  0.00  0.00    +0.000 C 
ATOM     11  N   UNL     1       0.290   9.509  21.046  0.00  0.00    +0.000 N 
ATOM     12  C   UNL     1      -0.547  10.552  21.473  0.00  0.00    +0.000 A 
ATOM     13  C   UNL     1      -0.876  10.723  22.822  0.00  0.00    +0.000 A 
ATOM     14  C   UNL     1      -1.579  11.861  23.253  0.00  0.00    +0.000 A 
ATOM     15  C   UNL     1      -2.032  12.810  22.330  0.00  0.00    +0.000 A 
ATOM     16  C   UNL     1      -1.743  12.629  20.982  0.00  0.00    +0.000 A 
ATOM     17  C   UNL     1      -0.930  11.558  20.581  0.00  0.00    +0.000 A 
ATOM     18  H   UNL     1       0.398   8.714  21.680  0.00  0.00    +0.000 HD
BRANCH  15  19
ATOM     19  C   UNL     1      -2.671  14.020  22.761  0.00  0.00    +0.000 C 
ATOM     20  N   UNL     1      -3.199  15.007  23.066  0.00  0.00    +0.000 NA
ENDBRANCH  15  19
BRANCH   7  21
ATOM     21  O   UNL     1       1.151  12.615  19.412  0.00  0.00    +0.000 OA
BRANCH  21  23
ATOM     22  C   UNL     1       2.640  13.979  18.113  0.00  0.00    +0.000 C 
ATOM     23  C   UNL     1       2.256  12.575  18.533  0.00  0.00    +0.000 C 
ENDBRANCH  21  23
ENDBRANCH   7  21
ENDBRANCH   1  10
BRANCH   3  24
ATOM     24  C   UNL     1       2.283   4.741  19.244  0.00  0.00    +0.000 C 
ATOM     25  C   UNL     1       1.139   4.428  20.229  0.00  0.00    +0.000 C 
ATOM     26  C   UNL     1       1.723   4.600  17.810  0.00  0.00    +0.000 C 
ATOM     27  C   UNL     1       3.351   3.630  19.383  0.00  0.00    +0.000 C 
ENDBRANCH   3  24
BRANCH   2  28
ATOM     28  O   UNL     1       1.593   6.977  21.454  0.00  0.00    +0.000 OA
ATOM     29  H   UNL     1       1.888   7.767  21.969  0.00  0.00    +0.000 HD
ENDBRANCH   2  28
BRANCH   4  30
ATOM     30  C   UNL     1       4.284   6.607  17.374  0.00  0.00    +0.000 C 
BRANCH  30  31
ATOM     31  C   UNL     1       5.477   5.953  18.080  0.00  0.00    +0.000 C 
BRANCH  31  32
ATOM     32  C   UNL     1       6.740   5.801  17.192  0.00  0.00    +0.000 C 
ATOM     33  C   UNL     1       6.347   5.554  15.726  0.00  0.00    +0.000 C 
ATOM     34  C   UNL     1       7.549   7.110  17.268  0.00  0.00    +0.000 C 
ATOM     35  C   UNL     1       7.629   4.650  17.690  0.00  0.00    +0.000 C 
ENDBRANCH  31  32
ENDBRANCH  30  31
ENDBRANCH   4  30
TORSDOF 9
ENDMDL
MODEL 3
REMARK VINA RESULT:      -8.1      0.875      1.140
REMARK  Name = 
REMARK  16 active torsions:
REMARK  status: ('A' for Active; 'I' for Inactive)
REMARK    1  A    between atoms: C_1  and  C_2
REMARK    2  A    between atoms: C_2  and  O_3
REMARK    3  A    between atoms: O_3  and  P_4
REMARK    4  A    between atoms: C_7  and  C_8
REMARK    5  A    between atoms: C_9  and  O_10
REMARK    6  A    between atoms: C_11  and  C_12
REMARK    7  A    between atoms: C_12  and  C_13
REMARK    8  A    between atoms: C_12  and  C_14
REMARK    9  A    between atoms: C_12  and  C_15
REMARK   10  A    between atoms: N_16  and  C_17
REMARK   11  A    between atoms: C_17  and  C_18
REMARK   12  A    between atoms: C_18  and  C_19
REMARK   13  A    between atoms: C_19  and  C_20
REMARK   14  A    between atoms: C_19  and  C_21
REMARK   15  A    between atoms: C_19  and  C_22
REMARK   16  A    between atoms: C_29  and  C_30
REMARK                            x       y       z     vdW  Elec       q    Type
REMARK                         _______ _______ _______ _____ _____    ______ ____
ROOT
ATOM      1  C   UNL     1       1.666   8.243  19.399  0.00  0.00    +0.000 C 
ATOM      2  C   UNL     1       1.976   7.178  20.155  0.00  0.00    +0.000 C 
ATOM      3  C   UNL     1       2.900   6.179  19.499  0.00  0.00    +0.000 C 
ATOM      4  N   UNL     1       3.191   6.940  18.286  0.00  0.00    +0.000 N 
ATOM      5  C   UNL     1       2.412   8.078  18.150  0.00  0.00    +0.000 C 
ATOM      6  O   UNL     1       2.366   8.870  17.229  0.00  0.00    +0.000 OA
ENDROOT
BRANCH   1  10
ATOM      7  P   UNL     1      -0.211  11.589  18.992  0.00  0.00    +0.000 P 
ATOM      8  O   UNL     1      -1.031  12.085  17.836  0.00  0.00    +0.000 OA
ATOM      9  N   UNL     1       0.504  10.176  18.775  0.00  0.00    +0.000 NA
ATOM     10  C   UNL     1       0.756   9.364  19.760  0.00  0.00    +0.000 C 
ATOM     11  N   UNL     1       0.299   9.534  21.052  0.00  0.00    +0.000 N 
ATOM     12  C   UNL     1      -0.545  10.575  21.473  0.00  0.00    +0.000 A 
ATOM     13  C   UNL     1      -0.830  10.786  22.826  0.00  0.00    +0.000 A 
ATOM     14  C   UNL     1      -1.542  11.924  23.242  0.00  0.00    +0.000 A 
ATOM     15  C   UNL     1      -2.047  12.830  22.305  0.00  0.00    +0.000 A 
ATOM     16  C   UNL     1      -1.802  12.609  20.954  0.00  0.00    +0.000 A 
ATOM     17  C   UNL     1      -0.981  11.541  20.562  0.00  0.00    +0.000 A 
ATOM     18  H   UNL     1       0.447   8.764  21.708  0.00  0.00    +0.000 HD
BRANCH  15  19
ATOM     19  C   UNL     1      -2.697  14.041  22.716  0.00  0.00    +0.000 C 
ATOM     20  N   UNL     1      -3.248  15.019  23.012  0.00  0.00    +0.000 NA
ENDBRANCH  15  19
BRANCH   7  21
ATOM     21  O   UNL     1       1.035  12.599  19.283  0.00  0.00    +0.000 OA
BRANCH  21  23
ATOM     22  C   UNL     1       3.024  13.743  18.577  0.00  0.00    +0.000 C 
ATOM     23  C   UNL     1       2.103  12.560  18.359  0.00  0.00    +0.000 C 
ENDBRANCH  21  23
ENDBRANCH   7  21
ENDBRANCH   1  10
BRANCH   3  24
ATOM     24  C   UNL     1       2.286   4.743  19.250  0.00  0.00    +0.000 C 
ATOM     25  C   UNL     1       1.711   4.593  17.827  0.00  0.00    +0.000 C 
ATOM     26  C   UNL     1       3.339   3.629  19.453  0.00  0.00    +0.000 C 
ATOM     27  C   UNL     1       1.154   4.432  20.259  0.00  0.00    +0.000 C 
ENDBRANCH   3  24
BRANCH   2  28
ATOM     28  O   UNL     1       1.563   6.973  21.454  0.00  0.00    +0.000 OA
ATOM     29  H   UNL     1       1.003   6.160  21.450  0.00  0.00    +0.000 HD
ENDBRANCH   2  28
BRANCH   4  30
ATOM     30  C   UNL     1       4.289   6.623  17.396  0.00  0.00    +0.000 C 
BRANCH  30  31
ATOM     31  C   UNL     1       5.474   5.960  18.109  0.00  0.00    +0.000 C 
BRANCH  31  32
ATOM     32  C   UNL     1       6.752   5.835  17.240  0.00  0.00    +0.000 C 
ATOM     33  C   UNL     1       7.633   4.674  17.732  0.00  0.00    +0.000 C 
ATOM     34  C   UNL     1       6.328   5.547  15.787  0.00  0.00    +0.000 C 
ATOM     35  C   UNL     1       7.562   7.143  17.260  0.00  0.00    +0.000 C 
ENDBRANCH  31  32
ENDBRANCH  30  31
ENDBRANCH   4  30
TORSDOF 9
ENDMDL
MODEL 4
REMARK VINA RESULT:      -8.1      0.264      1.149
REMARK  Name = 
REMARK  16 active torsions:
REMARK  status: ('A' for Active; 'I' for Inactive)
REMARK    1  A    between atoms: C_1  and  C_2
REMARK    2  A    between atoms: C_2  and  O_3
REMARK    3  A    between atoms: O_3  and  P_4
REMARK    4  A    between atoms: C_7  and  C_8
REMARK    5  A    between atoms: C_9  and  O_10
REMARK    6  A    between atoms: C_11  and  C_12
REMARK    7  A    between atoms: C_12  and  C_13
REMARK    8  A    between atoms: C_12  and  C_14
REMARK    9  A    between atoms: C_12  and  C_15
REMARK   10  A    between atoms: N_16  and  C_17
REMARK   11  A    between atoms: C_17  and  C_18
REMARK   12  A    between atoms: C_18  and  C_19
REMARK   13  A    between atoms: C_19  and  C_20
REMARK   14  A    between atoms: C_19  and  C_21
REMARK   15  A    between atoms: C_19  and  C_22
REMARK   16  A    between atoms: C_29  and  C_30
REMARK                            x       y       z     vdW  Elec       q    Type
REMARK                         _______ _______ _______ _____ _____    ______ ____
ROOT
ATOM      1  C   UNL     1       1.962   7.819  19.292  0.00  0.00    +0.000 C 
ATOM      2  C   UNL     1       2.227   6.691  19.970  0.00  0.00    +0.000 C 
ATOM      3  C   UNL     1       3.083   5.690  19.229  0.00  0.00    +0.000 C 
ATOM      4  N   UNL     1       3.392   6.514  18.063  0.00  0.00    +0.000 N 
ATOM      5  C   UNL     1       2.673   7.698  18.019  0.00  0.00    +0.000 C 
ATOM      6  O   UNL     1       2.653   8.551  17.153  0.00  0.00    +0.000 OA
ENDROOT
BRANCH   1  10
ATOM      7  P   UNL     1       0.477  11.380  19.294  0.00  0.00    +0.000 P 
ATOM      8  O   UNL     1      -0.134  12.155  18.163  0.00  0.00    +0.000 OA
ATOM      9  N   UNL     1       1.078   9.951  18.905  0.00  0.00    +0.000 NA
ATOM     10  C   UNL     1       1.121   8.960  19.747  0.00  0.00    +0.000 C 
ATOM     11  N   UNL     1       0.517   8.960  20.989  0.00  0.00    +0.000 N 
ATOM     12  C   UNL     1      -0.274  10.005  21.495  0.00  0.00    +0.000 A 
ATOM     13  C   UNL     1      -0.713  10.015  22.823  0.00  0.00    +0.000 A 
ATOM     14  C   UNL     1      -1.365  11.141  23.357  0.00  0.00    +0.000 A 
ATOM     15  C   UNL     1      -1.654  12.245  22.549  0.00  0.00    +0.000 A 
ATOM     16  C   UNL     1      -1.256  12.229  21.217  0.00  0.00    +0.000 A 
ATOM     17  C   UNL     1      -0.494  11.155  20.731  0.00  0.00    +0.000 A 
ATOM     18  H   UNL     1       0.503   8.078  21.506  0.00  0.00    +0.000 HD
BRANCH  15  19
ATOM     19  C   UNL     1      -2.236  13.436  23.099  0.00  0.00    +0.000 C 
ATOM     20  N   UNL     1      -2.725  14.373  23.577  0.00  0.00    +0.000 NA
ENDBRANCH  15  19
BRANCH   7  21
ATOM     21  O   UNL     1       1.762  12.174  19.903  0.00  0.00    +0.000 OA
BRANCH  21  23
ATOM     22  C   UNL     1       1.620  14.566  20.054  0.00  0.00    +0.000 C 
ATOM     23  C   UNL     1       2.120  13.379  19.257  0.00  0.00    +0.000 C 
ENDBRANCH  21  23
ENDBRANCH   7  21
ENDBRANCH   1  10
BRANCH   3  24
ATOM     24  C   UNL     1       2.387   4.308  18.900  0.00  0.00    +0.000 C 
ATOM     25  C   UNL     1       1.449   4.403  17.680  0.00  0.00    +0.000 C 
ATOM     26  C   UNL     1       3.427   3.200  18.612  0.00  0.00    +0.000 C 
ATOM     27  C   UNL     1       1.558   3.796  20.102  0.00  0.00    +0.000 C 
ENDBRANCH   3  24
BRANCH   2  28
ATOM     28  O   UNL     1       1.829   6.421  21.262  0.00  0.00    +0.000 OA
ATOM     29  H   UNL     1       1.028   6.973  21.434  0.00  0.00    +0.000 HD
ENDBRANCH   2  28
BRANCH   4  30
ATOM     30  C   UNL     1       4.453   6.199  17.128  0.00  0.00    +0.000 C 
BRANCH  30  31
ATOM     31  C   UNL     1       5.745   6.979  17.395  0.00  0.00    +0.000 C 
BRANCH  31  32
ATOM     32  C   UNL     1       6.901   6.123  17.973  0.00  0.00    +0.000 C 
ATOM     33  C   UNL     1       8.093   7.011  18.367  0.00  0.00    +0.000 C 
ATOM     34  C   UNL     1       6.389   5.403  19.236  0.00  0.00    +0.000 C 
ATOM     35  C   UNL     1       7.360   5.060  16.960  0.00  0.00    +0.000 C 
ENDBRANCH  31  32
ENDBRANCH  30  31
ENDBRANCH   4  30
TORSDOF 9
ENDMDL
MODEL 5
REMARK VINA RESULT:      -7.9      0.921      1.350
REMARK  Name = 
REMARK  16 active torsions:
REMARK  status: ('A' for Active; 'I' for Inactive)
REMARK    1  A    between atoms: C_1  and  C_2
REMARK    2  A    between atoms: C_2  and  O_3
REMARK    3  A    between atoms: O_3  and  P_4
REMARK    4  A    between atoms: C_7  and  C_8
REMARK    5  A    between atoms: C_9  and  O_10
REMARK    6  A    between atoms: C_11  and  C_12
REMARK    7  A    between atoms: C_12  and  C_13
REMARK    8  A    between atoms: C_12  and  C_14
REMARK    9  A    between atoms: C_12  and  C_15
REMARK   10  A    between atoms: N_16  and  C_17
REMARK   11  A    between atoms: C_17  and  C_18
REMARK   12  A    between atoms: C_18  and  C_19
REMARK   13  A    between atoms: C_19  and  C_20
REMARK   14  A    between atoms: C_19  and  C_21
REMARK   15  A    between atoms: C_19  and  C_22
REMARK   16  A    between atoms: C_29  and  C_30
REMARK                            x       y       z     vdW  Elec       q    Type
REMARK                         _______ _______ _______ _____ _____    ______ ____
ROOT
ATOM      1  C   UNL     1       1.756   8.316  19.390  0.00  0.00    +0.000 C 
ATOM      2  C   UNL     1       2.095   7.255  20.140  0.00  0.00    +0.000 C 
ATOM      3  C   UNL     1       2.936   6.219  19.433  0.00  0.00    +0.000 C 
ATOM      4  N   UNL     1       3.153   6.951  18.187  0.00  0.00    +0.000 N 
ATOM      5  C   UNL     1       2.397   8.109  18.090  0.00  0.00    +0.000 C 
ATOM      6  O   UNL     1       2.302   8.887  17.161  0.00  0.00    +0.000 OA
ENDROOT
BRANCH   1  10
ATOM      7  P   UNL     1       0.267  11.873  19.267  0.00  0.00    +0.000 P 
ATOM      8  O   UNL     1      -0.331  12.613  18.105  0.00  0.00    +0.000 OA
ATOM      9  N   UNL     1       0.875  10.434  18.928  0.00  0.00    +0.000 NA
ATOM     10  C   UNL     1       0.909   9.469  19.800  0.00  0.00    +0.000 C 
ATOM     11  N   UNL     1       0.290   9.506  21.034  0.00  0.00    +0.000 N 
ATOM     12  C   UNL     1      -0.508  10.564  21.499  0.00  0.00    +0.000 A 
ATOM     13  C   UNL     1      -0.964  10.613  22.820  0.00  0.00    +0.000 A 
ATOM     14  C   UNL     1      -1.623  11.753  23.312  0.00  0.00    +0.000 A 
ATOM     15  C   UNL     1      -1.904  12.832  22.468  0.00  0.00    +0.000 A 
ATOM     16  C   UNL     1      -1.490  12.777  21.142  0.00  0.00    +0.000 A 
ATOM     17  C   UNL     1      -0.721  11.690  20.698  0.00  0.00    +0.000 A 
ATOM     18  H   UNL     1       0.271   8.640  21.577  0.00  0.00    +0.000 HD
BRANCH  15  19
ATOM     19  C   UNL     1      -2.494  14.038  22.975  0.00  0.00    +0.000 C 
ATOM     20  N   UNL     1      -2.969  14.996  23.427  0.00  0.00    +0.000 NA
ENDBRANCH  15  19
BRANCH   7  21
ATOM     21  O   UNL     1       1.545  12.687  19.867  0.00  0.00    +0.000 OA
BRANCH  21  23
ATOM     22  C   UNL     1       2.989  13.787  18.295  0.00  0.00    +0.000 C 
ATOM     23  C   UNL     1       1.835  13.932  19.265  0.00  0.00    +0.000 C 
ENDBRANCH  21  23
ENDBRANCH   7  21
ENDBRANCH   1  10
BRANCH   3  24
ATOM     24  C   UNL     1       2.265   4.797  19.258  0.00  0.00    +0.000 C 
ATOM     25  C   UNL     1       1.089   4.583  20.233  0.00  0.00    +0.000 C 
ATOM     26  C   UNL     1       1.731   4.591  17.822  0.00  0.00    +0.000 C 
ATOM     27  C   UNL     1       3.289   3.660  19.486  0.00  0.00    +0.000 C 
ENDBRANCH   3  24
BRANCH   2  28
ATOM     28  O   UNL     1       1.779   7.083  21.471  0.00  0.00    +0.000 OA
ATOM     29  H   UNL     1       2.402   6.404  21.825  0.00  0.00    +0.000 HD
ENDBRANCH   2  28
BRANCH   4  30
ATOM     30  C   UNL     1       4.169   6.587  17.220  0.00  0.00    +0.000 C 
BRANCH  30  31
ATOM     31  C   UNL     1       5.457   6.063  17.865  0.00  0.00    +0.000 C 
BRANCH  31  32
ATOM     32  C   UNL     1       6.271   5.094  16.968  0.00  0.00    +0.000 C 
ATOM     33  C   UNL     1       7.529   4.601  17.702  0.00  0.00    +0.000 C 
ATOM     34  C   UNL     1       5.387   3.877  16.638  0.00  0.00    +0.000 C 
ATOM     35  C   UNL     1       6.675   5.773  15.648  0.00  0.00    +0.000 C 
ENDBRANCH  31  32
ENDBRANCH  30  31
ENDBRANCH   4  30
TORSDOF 9
ENDMDL
MODEL 6
REMARK VINA RESULT:      -7.9      1.395      1.994
REMARK  Name = 
REMARK  16 active torsions:
REMARK  status: ('A' for Active; 'I' for Inactive)
REMARK    1  A    between atoms: C_1  and  C_2
REMARK    2  A    between atoms: C_2  and  O_3
REMARK    3  A    between atoms: O_3  and  P_4
REMARK    4  A    between atoms: C_7  and  C_8
REMARK    5  A    between atoms: C_9  and  O_10
REMARK    6  A    between atoms: C_11  and  C_12
REMARK    7  A    between atoms: C_12  and  C_13
REMARK    8  A    between atoms: C_12  and  C_14
REMARK    9  A    between atoms: C_12  and  C_15
REMARK   10  A    between atoms: N_16  and  C_17
REMARK   11  A    between atoms: C_17  and  C_18
REMARK   12  A    between atoms: C_18  and  C_19
REMARK   13  A    between atoms: C_19  and  C_20
REMARK   14  A    between atoms: C_19  and  C_21
REMARK   15  A    between atoms: C_19  and  C_22
REMARK   16  A    between atoms: C_29  and  C_30
REMARK                            x       y       z     vdW  Elec       q    Type
REMARK                         _______ _______ _______ _____ _____    ______ ____
ROOT
ATOM      1  C   UNL     1       2.463   6.362  19.600  0.00  0.00    +0.000 C 
ATOM      2  C   UNL     1       2.325   5.127  20.108  0.00  0.00    +0.000 C 
ATOM      3  C   UNL     1       3.319   4.113  19.594  0.00  0.00    +0.000 C 
ATOM      4  N   UNL     1       4.154   5.025  18.816  0.00  0.00    +0.000 N 
ATOM      5  C   UNL     1       3.625   6.302  18.711  0.00  0.00    +0.000 C 
ATOM      6  O   UNL     1       4.040   7.254  18.080  0.00  0.00    +0.000 OA
ENDROOT
BRANCH   1  10
ATOM      7  P   UNL     1       0.735   9.752  18.964  0.00  0.00    +0.000 P 
ATOM      8  O   UNL     1      -0.086  10.194  17.786  0.00  0.00    +0.000 OA
ATOM      9  N   UNL     1       1.379   8.294  18.846  0.00  0.00    +0.000 NA
ATOM     10  C   UNL     1       1.613   7.549  19.887  0.00  0.00    +0.000 C 
ATOM     11  N   UNL     1       1.192   7.841  21.170  0.00  0.00    +0.000 N 
ATOM     12  C   UNL     1       0.406   8.950  21.522  0.00  0.00    +0.000 A 
ATOM     13  C   UNL     1       0.158   9.278  22.859  0.00  0.00    +0.000 A 
ATOM     14  C   UNL     1      -0.492  10.478  23.197  0.00  0.00    +0.000 A 
ATOM     15  C   UNL     1      -0.974  11.332  22.200  0.00  0.00    +0.000 A 
ATOM     16  C   UNL     1      -0.767  10.995  20.867  0.00  0.00    +0.000 A 
ATOM     17  C   UNL     1      -0.004   9.862  20.545  0.00  0.00    +0.000 A 
ATOM     18  H   UNL     1       1.317   7.118  21.882  0.00  0.00    +0.000 HD
BRANCH  15  19
ATOM     19  C   UNL     1      -1.559  12.600  22.526  0.00  0.00    +0.000 C 
ATOM     20  N   UNL     1      -1.998  13.647  22.767  0.00  0.00    +0.000 NA
ENDBRANCH  15  19
BRANCH   7  21
ATOM     21  O   UNL     1       2.031  10.720  19.154  0.00  0.00    +0.000 OA
BRANCH  21  23
ATOM     22  C   UNL     1       2.077  13.077  19.611  0.00  0.00    +0.000 C 
ATOM     23  C   UNL     1       1.954  11.998  18.556  0.00  0.00    +0.000 C 
ENDBRANCH  21  23
ENDBRANCH   7  21
ENDBRANCH   1  10
BRANCH   3  24
ATOM     24  C   UNL     1       2.704   2.911  18.769  0.00  0.00    +0.000 C 
ATOM     25  C   UNL     1       1.444   2.326  19.440  0.00  0.00    +0.000 C 
ATOM     26  C   UNL     1       2.318   3.341  17.335  0.00  0.00    +0.000 C 
ATOM     27  C   UNL     1       3.729   1.764  18.596  0.00  0.00    +0.000 C 
ENDBRANCH   3  24
BRANCH   2  28
ATOM     28  O   UNL     1       1.405   4.755  21.065  0.00  0.00    +0.000 OA
ATOM     29  H   UNL     1       1.841   4.069  21.627  0.00  0.00    +0.000 HD
ENDBRANCH   2  28
BRANCH   4  30
ATOM     30  C   UNL     1       5.475   4.675  18.335  0.00  0.00    +0.000 C 
BRANCH  30  31
ATOM     31  C   UNL     1       5.511   4.370  16.833  0.00  0.00    +0.000 C 
BRANCH  31  32
ATOM     32  C   UNL     1       6.278   5.419  15.987  0.00  0.00    +0.000 C 
ATOM     33  C   UNL     1       7.108   4.732  14.890  0.00  0.00    +0.000 C 
ATOM     34  C   UNL     1       5.249   6.348  15.313  0.00  0.00    +0.000 C 
ATOM     35  C   UNL     1       7.199   6.275  16.873  0.00  0.00    +0.000 C 
ENDBRANCH  31  32
ENDBRANCH  30  31
ENDBRANCH   4  30
TORSDOF 9
ENDMDL
MODEL 7
REMARK VINA RESULT:      -7.9      1.890      2.973
REMARK  Name = 
REMARK  16 active torsions:
REMARK  status: ('A' for Active; 'I' for Inactive)
REMARK    1  A    between atoms: C_1  and  C_2
REMARK    2  A    between atoms: C_2  and  O_3
REMARK    3  A    between atoms: O_3  and  P_4
REMARK    4  A    between atoms: C_7  and  C_8
REMARK    5  A    between atoms: C_9  and  O_10
REMARK    6  A    between atoms: C_11  and  C_12
REMARK    7  A    between atoms: C_12  and  C_13
REMARK    8  A    between atoms: C_12  and  C_14
REMARK    9  A    between atoms: C_12  and  C_15
REMARK   10  A    between atoms: N_16  and  C_17
REMARK   11  A    between atoms: C_17  and  C_18
REMARK   12  A    between atoms: C_18  and  C_19
REMARK   13  A    between atoms: C_19  and  C_20
REMARK   14  A    between atoms: C_19  and  C_21
REMARK   15  A    between atoms: C_19  and  C_22
REMARK   16  A    between atoms: C_29  and  C_30
REMARK                            x       y       z     vdW  Elec       q    Type
REMARK                         _______ _______ _______ _____ _____    ______ ____
ROOT
ATOM      1  C   UNL     1       1.667   8.297  19.151  0.00  0.00    +0.000 C 
ATOM      2  C   UNL     1       1.973   7.296  19.992  0.00  0.00    +0.000 C 
ATOM      3  C   UNL     1       2.957   6.287  19.448  0.00  0.00    +0.000 C 
ATOM      4  N   UNL     1       3.282   6.974  18.200  0.00  0.00    +0.000 N 
ATOM      5  C   UNL     1       2.475   8.073  17.951  0.00  0.00    +0.000 C 
ATOM      6  O   UNL     1       2.448   8.799  16.976  0.00  0.00    +0.000 OA
ENDROOT
BRANCH   1  10
ATOM      7  P   UNL     1      -0.016  11.213  21.035  0.00  0.00    +0.000 P 
ATOM      8  O   UNL     1       0.613  12.408  21.691  0.00  0.00    +0.000 OA
ATOM      9  N   UNL     1       1.006  10.148  20.420  0.00  0.00    +0.000 NA
ATOM     10  C   UNL     1       0.707   9.407  19.393  0.00  0.00    +0.000 C 
ATOM     11  N   UNL     1      -0.428   9.562  18.620  0.00  0.00    +0.000 N 
ATOM     12  C   UNL     1      -1.388  10.571  18.798  0.00  0.00    +0.000 A 
ATOM     13  C   UNL     1      -2.595  10.567  18.092  0.00  0.00    +0.000 A 
ATOM     14  C   UNL     1      -3.611  11.491  18.399  0.00  0.00    +0.000 A 
ATOM     15  C   UNL     1      -3.405  12.480  19.364  0.00  0.00    +0.000 A 
ATOM     16  C   UNL     1      -2.193  12.517  20.045  0.00  0.00    +0.000 A 
ATOM     17  C   UNL     1      -1.239  11.512  19.821  0.00  0.00    +0.000 A 
ATOM     18  H   UNL     1      -0.490   9.012  17.760  0.00  0.00    +0.000 HD
BRANCH  15  19
ATOM     19  C   UNL     1      -4.460  13.371  19.752  0.00  0.00    +0.000 C 
ATOM     20  N   UNL     1      -5.331  14.059  20.092  0.00  0.00    +0.000 NA
ENDBRANCH  15  19
BRANCH   7  21
ATOM     21  O   UNL     1      -0.858  10.339  22.123  0.00  0.00    +0.000 OA
BRANCH  21  23
ATOM     22  C   UNL     1      -2.409  11.704  23.347  0.00  0.00    +0.000 C 
ATOM     23  C   UNL     1      -1.094  10.953  23.373  0.00  0.00    +0.000 C 
ENDBRANCH  21  23
ENDBRANCH   7  21
ENDBRANCH   1  10
BRANCH   3  24
ATOM     24  C   UNL     1       2.400   4.817  19.271  0.00  0.00    +0.000 C 
ATOM     25  C   UNL     1       1.737   4.606  17.895  0.00  0.00    +0.000 C 
ATOM     26  C   UNL     1       3.520   3.761  19.423  0.00  0.00    +0.000 C 
ATOM     27  C   UNL     1       1.357   4.475  20.362  0.00  0.00    +0.000 C 
ENDBRANCH   3  24
BRANCH   2  28
ATOM     28  O   UNL     1       1.507   7.165  21.282  0.00  0.00    +0.000 OA
ATOM     29  H   UNL     1       0.956   6.345  21.304  0.00  0.00    +0.000 HD
ENDBRANCH   2  28
BRANCH   4  30
ATOM     30  C   UNL     1       4.429   6.635  17.383  0.00  0.00    +0.000 C 
BRANCH  30  31
ATOM     31  C   UNL     1       5.652   6.210  18.205  0.00  0.00    +0.000 C 
BRANCH  31  32
ATOM     32  C   UNL     1       6.933   5.968  17.365  0.00  0.00    +0.000 C 
ATOM     33  C   UNL     1       6.572   5.634  15.908  0.00  0.00    +0.000 C 
ATOM     34  C   UNL     1       7.776   7.257  17.379  0.00  0.00    +0.000 C 
ATOM     35  C   UNL     1       7.777   4.829  17.962  0.00  0.00    +0.000 C 
ENDBRANCH  31  32
ENDBRANCH  30  31
ENDBRANCH   4  30
TORSDOF 9
ENDMDL
MODEL 8
REMARK VINA RESULT:      -7.8      1.341      1.926
REMARK  Name = 
REMARK  16 active torsions:
REMARK  status: ('A' for Active; 'I' for Inactive)
REMARK    1  A    between atoms: C_1  and  C_2
REMARK    2  A    between atoms: C_2  and  O_3
REMARK    3  A    between atoms: O_3  and  P_4
REMARK    4  A    between atoms: C_7  and  C_8
REMARK    5  A    between atoms: C_9  and  O_10
REMARK    6  A    between atoms: C_11  and  C_12
REMARK    7  A    between atoms: C_12  and  C_13
REMARK    8  A    between atoms: C_12  and  C_14
REMARK    9  A    between atoms: C_12  and  C_15
REMARK   10  A    between atoms: N_16  and  C_17
REMARK   11  A    between atoms: C_17  and  C_18
REMARK   12  A    between atoms: C_18  and  C_19
REMARK   13  A    between atoms: C_19  and  C_20
REMARK   14  A    between atoms: C_19  and  C_21
REMARK   15  A    between atoms: C_19  and  C_22
REMARK   16  A    between atoms: C_29  and  C_30
REMARK                            x       y       z     vdW  Elec       q    Type
REMARK                         _______ _______ _______ _____ _____    ______ ____
ROOT
ATOM      1  C   UNL     1       2.424   6.472  19.607  0.00  0.00    +0.000 C 
ATOM      2  C   UNL     1       2.307   5.248  20.146  0.00  0.00    +0.000 C 
ATOM      3  C   UNL     1       3.303   4.232  19.637  0.00  0.00    +0.000 C 
ATOM      4  N   UNL     1       4.115   5.135  18.823  0.00  0.00    +0.000 N 
ATOM      5  C   UNL     1       3.570   6.403  18.699  0.00  0.00    +0.000 C 
ATOM      6  O   UNL     1       3.963   7.345  18.039  0.00  0.00    +0.000 OA
ENDROOT
BRANCH   1  10
ATOM      7  P   UNL     1       0.714   9.869  18.958  0.00  0.00    +0.000 P 
ATOM      8  O   UNL     1      -0.073  10.323  17.763  0.00  0.00    +0.000 OA
ATOM      9  N   UNL     1       1.361   8.412  18.843  0.00  0.00    +0.000 NA
ATOM     10  C   UNL     1       1.567   7.657  19.883  0.00  0.00    +0.000 C 
ATOM     11  N   UNL     1       1.111   7.936  21.156  0.00  0.00    +0.000 N 
ATOM     12  C   UNL     1       0.315   9.042  21.498  0.00  0.00    +0.000 A 
ATOM     13  C   UNL     1       0.032   9.357  22.831  0.00  0.00    +0.000 A 
ATOM     14  C   UNL     1      -0.628  10.554  23.162  0.00  0.00    +0.000 A 
ATOM     15  C   UNL     1      -1.082  11.418  22.161  0.00  0.00    +0.000 A 
ATOM     16  C   UNL     1      -0.839  11.094  20.831  0.00  0.00    +0.000 A 
ATOM     17  C   UNL     1      -0.068   9.964  20.519  0.00  0.00    +0.000 A 
ATOM     18  H   UNL     1       1.216   7.206  21.865  0.00  0.00    +0.000 HD
BRANCH  15  19
ATOM     19  C   UNL     1      -1.675  12.684  22.484  0.00  0.00    +0.000 C 
ATOM     20  N   UNL     1      -2.146  13.722  22.702  0.00  0.00    +0.000 NA
ENDBRANCH  15  19
BRANCH   7  21
ATOM     21  O   UNL     1       2.005  10.835  19.192  0.00  0.00    +0.000 OA
BRANCH  21  23
ATOM     22  C   UNL     1       2.052  13.196  19.625  0.00  0.00    +0.000 C 
ATOM     23  C   UNL     1       1.959  12.106  18.578  0.00  0.00    +0.000 C 
ENDBRANCH  21  23
ENDBRANCH   7  21
ENDBRANCH   1  10
BRANCH   3  24
ATOM     24  C   UNL     1       2.686   3.005  18.851  0.00  0.00    +0.000 C 
ATOM     25  C   UNL     1       2.147   3.411  17.464  0.00  0.00    +0.000 C 
ATOM     26  C   UNL     1       3.726   1.880  18.644  0.00  0.00    +0.000 C 
ATOM     27  C   UNL     1       1.526   2.356  19.644  0.00  0.00    +0.000 C 
ENDBRANCH   3  24
BRANCH   2  28
ATOM     28  O   UNL     1       1.409   4.888  21.128  0.00  0.00    +0.000 OA
ATOM     29  H   UNL     1       0.546   5.306  20.891  0.00  0.00    +0.000 HD
ENDBRANCH   2  28
BRANCH   4  30
ATOM     30  C   UNL     1       5.430   4.787  18.327  0.00  0.00    +0.000 C 
BRANCH  30  31
ATOM     31  C   UNL     1       5.443   4.449  16.831  0.00  0.00    +0.000 C 
BRANCH  31  32
ATOM     32  C   UNL     1       6.223   5.463  15.954  0.00  0.00    +0.000 C 
ATOM     33  C   UNL     1       5.259   6.451  15.276  0.00  0.00    +0.000 C 
ATOM     34  C   UNL     1       7.180   6.257  16.863  0.00  0.00    +0.000 C 
ATOM     35  C   UNL     1       7.058   4.738  14.885  0.00  0.00    +0.000 C 
ENDBRANCH  31  32
ENDBRANCH  30  31
ENDBRANCH   4  30
TORSDOF 9
ENDMDL
MODEL 9
REMARK VINA RESULT:      -7.8      0.991      1.693
REMARK  Name = 
REMARK  16 active torsions:
REMARK  status: ('A' for Active; 'I' for Inactive)
REMARK    1  A    between atoms: C_1  and  C_2
REMARK    2  A    between atoms: C_2  and  O_3
REMARK    3  A    between atoms: O_3  and  P_4
REMARK    4  A    between atoms: C_7  and  C_8
REMARK    5  A    between atoms: C_9  and  O_10
REMARK    6  A    between atoms: C_11  and  C_12
REMARK    7  A    between atoms: C_12  and  C_13
REMARK    8  A    between atoms: C_12  and  C_14
REMARK    9  A    between atoms: C_12  and  C_15
REMARK   10  A    between atoms: N_16  and  C_17
REMARK   11  A    between atoms: C_17  and  C_18
REMARK   12  A    between atoms: C_18  and  C_19
REMARK   13  A    between atoms: C_19  and  C_20
REMARK   14  A    between atoms: C_19  and  C_21
REMARK   15  A    between atoms: C_19  and  C_22
REMARK   16  A    between atoms: C_29  and  C_30
REMARK                            x       y       z     vdW  Elec       q    Type
REMARK                         _______ _______ _______ _____ _____    ______ ____
ROOT
ATOM      1  C   UNL     1       2.256   7.410  19.453  0.00  0.00    +0.000 C 
ATOM      2  C   UNL     1       2.399   6.232  20.082  0.00  0.00    +0.000 C 
ATOM      3  C   UNL     1       3.428   5.308  19.474  0.00  0.00    +0.000 C 
ATOM      4  N   UNL     1       3.962   6.231  18.474  0.00  0.00    +0.000 N 
ATOM      5  C   UNL     1       3.235   7.405  18.364  0.00  0.00    +0.000 C 
ATOM      6  O   UNL     1       3.380   8.328  17.586  0.00  0.00    +0.000 OA
ENDROOT
BRANCH   1  10
ATOM      7  P   UNL     1       0.270  10.688  19.010  0.00  0.00    +0.000 P 
ATOM      8  O   UNL     1      -0.546  11.154  17.839  0.00  0.00    +0.000 OA
ATOM      9  N   UNL     1       1.038   9.301  18.807  0.00  0.00    +0.000 NA
ATOM     10  C   UNL     1       1.300   8.498  19.797  0.00  0.00    +0.000 C 
ATOM     11  N   UNL     1       0.815   8.652  21.080  0.00  0.00    +0.000 N 
ATOM     12  C   UNL     1      -0.072   9.663  21.486  0.00  0.00    +0.000 A 
ATOM     13  C   UNL     1      -0.389   9.863  22.833  0.00  0.00    +0.000 A 
ATOM     14  C   UNL     1      -1.149  10.976  23.236  0.00  0.00    +0.000 A 
ATOM     15  C   UNL     1      -1.668  11.864  22.289  0.00  0.00    +0.000 A 
ATOM     16  C   UNL     1      -1.391  11.651  20.943  0.00  0.00    +0.000 A 
ATOM     17  C   UNL     1      -0.526  10.612  20.566  0.00  0.00    +0.000 A 
ATOM     18  H   UNL     1       0.977   7.888  21.740  0.00  0.00    +0.000 HD
BRANCH  15  19
ATOM     19  C   UNL     1      -2.367  13.051  22.688  0.00  0.00    +0.000 C 
ATOM     20  N   UNL     1      -2.907  14.013  23.048  0.00  0.00    +0.000 NA
ENDBRANCH  15  19
BRANCH   7  21
ATOM     21  O   UNL     1       1.474  11.740  19.323  0.00  0.00    +0.000 OA
BRANCH  21  23
ATOM     22  C   UNL     1       2.636  13.550  18.254  0.00  0.00    +0.000 C 
ATOM     23  C   UNL     1       2.318  12.069  18.239  0.00  0.00    +0.000 C 
ENDBRANCH  21  23
ENDBRANCH   7  21
ENDBRANCH   1  10
BRANCH   3  24
ATOM     24  C   UNL     1       2.866   3.950  18.889  0.00  0.00    +0.000 C 
ATOM     25  C   UNL     1       2.047   4.164  17.600  0.00  0.00    +0.000 C 
ATOM     26  C   UNL     1       4.003   2.954  18.567  0.00  0.00    +0.000 C 
ATOM     27  C   UNL     1       1.961   3.228  19.917  0.00  0.00    +0.000 C 
ENDBRANCH   3  24
BRANCH   2  28
ATOM     28  O   UNL     1       1.734   5.851  21.227  0.00  0.00    +0.000 OA
ATOM     29  H   UNL     1       2.387   5.902  21.966  0.00  0.00    +0.000 HD
ENDBRANCH   2  28
BRANCH   4  30
ATOM     30  C   UNL     1       5.213   6.008  17.778  0.00  0.00    +0.000 C 
BRANCH  30  31
ATOM     31  C   UNL     1       5.027   5.612  16.309  0.00  0.00    +0.000 C 
BRANCH  31  32
ATOM     32  C   UNL     1       6.138   4.685  15.752  0.00  0.00    +0.000 C 
ATOM     33  C   UNL     1       6.802   5.315  14.516  0.00  0.00    +0.000 C 
ATOM     34  C   UNL     1       7.210   4.500  16.843  0.00  0.00    +0.000 C 
ATOM     35  C   UNL     1       5.572   3.303  15.387  0.00  0.00    +0.000 C 
ENDBRANCH  31  32
ENDBRANCH  30  31
ENDBRANCH   4  30
TORSDOF 9
ENDMDL
