MODEL 1
REMARK VINA RESULT:      -6.8      0.000      0.000
REMARK  Name = 
REMARK  8 active torsions:
REMARK  status: ('A' for Active; 'I' for Inactive)
REMARK    1  A    between atoms: C_1  and  O_2
REMARK    2  A    between atoms: O_2  and  C_3
REMARK    3  A    between atoms: C_3  and  C_4
REMARK    4  A    between atoms: C_4  and  C_5
REMARK    5  A    between atoms: C_4  and  N_15
REMARK    6  A    between atoms: C_5  and  C_7
REMARK    7  A    between atoms: C_10  and  O_11
REMARK    8  A    between atoms: O_11  and  C_12
REMARK                            x       y       z     vdW  Elec       q    Type
REMARK                         _______ _______ _______ _____ _____    ______ ____
ROOT
ATOM      1  C   UNL     1       3.570   3.034  17.902  0.00  0.00    +0.000 C 
ATOM      2  O   UNL     1       3.847   1.856  17.668  0.00  0.00    +0.000 OA
ENDROOT
BRANCH   1   3
ATOM      3  C   UNL     1       4.615   4.066  17.609  0.00  0.00    +0.000 A 
ATOM      4  C   UNL     1       5.501   4.550  18.577  0.00  0.00    +0.000 A 
ATOM      5  C   UNL     1       6.511   5.446  18.218  0.00  0.00    +0.000 A 
ATOM      6  C   UNL     1       6.660   5.859  16.894  0.00  0.00    +0.000 A 
ATOM      7  C   UNL     1       5.766   5.403  15.928  0.00  0.00    +0.000 A 
ATOM      8  C   UNL     1       4.751   4.505  16.283  0.00  0.00    +0.000 A 
BRANCH   6   9
ATOM      9  O   UNL     1       7.688   6.730  16.669  0.00  0.00    +0.000 OA
ATOM     10  C   UNL     1       7.717   7.869  17.523  0.00  0.00    +0.000 C 
ENDBRANCH   6   9
ENDBRANCH   1   3
BRANCH   1  11
ATOM     11  C   UNL     1       2.228   3.405  18.532  0.00  0.00    +0.000 C 
BRANCH  11  12
ATOM     12  N   UNL     1       2.171   3.102  19.957  0.00  0.00    +0.000 N 
ATOM     13  C   UNL     1       3.212   2.778  20.778  0.00  0.00    +0.000 A 
ATOM     14  N   UNL     1       2.758   2.481  21.972  0.00  0.00    +0.000 NA
ATOM     15  N   UNL     1       1.397   2.659  21.955  0.00  0.00    +0.000 NA
ATOM     16  C   UNL     1       1.061   3.063  20.751  0.00  0.00    +0.000 A 
ENDBRANCH  11  12
BRANCH  11  17
ATOM     17  C   UNL     1       1.816   4.846  18.190  0.00  0.00    +0.000 C 
BRANCH  17  19
ATOM     18  C   UNL     1       2.622   7.003  18.673  0.00  0.00    +0.000 C 
ATOM     19  O   UNL     1       2.202   5.755  19.220  0.00  0.00    +0.000 OA
ENDBRANCH  17  19
ENDBRANCH  11  17
ENDBRANCH   1  11
TORSDOF 6
ENDMDL
MODEL 2
REMARK VINA RESULT:      -6.6      3.295      5.745
REMARK  Name = 
REMARK  8 active torsions:
REMARK  status: ('A' for Active; 'I' for Inactive)
REMARK    1  A    between atoms: C_1  and  O_2
REMARK    2  A    between atoms: O_2  and  C_3
REMARK    3  A    between atoms: C_3  and  C_4
REMARK    4  A    between atoms: C_4  and  C_5
REMARK    5  A    between atoms: C_4  and  N_15
REMARK    6  A    between atoms: C_5  and  C_7
REMARK    7  A    between atoms: C_10  and  O_11
REMARK    8  A    between atoms: O_11  and  C_12
REMARK                            x       y       z     vdW  Elec       q    Type
REMARK                         _______ _______ _______ _____ _____    ______ ____
ROOT
ATOM      1  C   UNL     1       3.699   5.777  18.635  0.00  0.00    +0.000 C 
ATOM      2  O   UNL     1       4.176   5.282  19.658  0.00  0.00    +0.000 OA
ENDROOT
BRANCH   1   3
ATOM      3  C   UNL     1       2.809   6.971  18.790  0.00  0.00    +0.000 A 
ATOM      4  C   UNL     1       2.143   7.275  19.981  0.00  0.00    +0.000 A 
ATOM      5  C   UNL     1       1.399   8.453  20.088  0.00  0.00    +0.000 A 
ATOM      6  C   UNL     1       1.320   9.346  19.020  0.00  0.00    +0.000 A 
ATOM      7  C   UNL     1       1.958   9.038  17.820  0.00  0.00    +0.000 A 
ATOM      8  C   UNL     1       2.704   7.858  17.707  0.00  0.00    +0.000 A 
BRANCH   6   9
ATOM      9  O   UNL     1       0.570  10.464  19.249  0.00  0.00    +0.000 OA
ATOM     10  C   UNL     1      -0.812  10.344  18.924  0.00  0.00    +0.000 C 
ENDBRANCH   6   9
ENDBRANCH   1   3
BRANCH   1  11
ATOM     11  C   UNL     1       3.964   5.143  17.270  0.00  0.00    +0.000 C 
BRANCH  11  12
ATOM     12  N   UNL     1       5.349   5.292  16.838  0.00  0.00    +0.000 N 
ATOM     13  C   UNL     1       6.187   4.311  16.394  0.00  0.00    +0.000 A 
ATOM     14  N   UNL     1       7.382   4.811  16.187  0.00  0.00    +0.000 NA
ATOM     15  N   UNL     1       7.321   6.157  16.452  0.00  0.00    +0.000 NA
ATOM     16  C   UNL     1       6.089   6.439  16.809  0.00  0.00    +0.000 A 
ENDBRANCH  11  12
BRANCH  11  17
ATOM     17  C   UNL     1       3.448   3.696  17.203  0.00  0.00    +0.000 C 
BRANCH  17  19
ATOM     18  C   UNL     1       1.574   2.819  18.325  0.00  0.00    +0.000 C 
ATOM     19  O   UNL     1       2.022   3.650  17.256  0.00  0.00    +0.000 OA
ENDBRANCH  17  19
ENDBRANCH  11  17
ENDBRANCH   1  11
TORSDOF 6
ENDMDL
MODEL 3
REMARK VINA RESULT:      -6.5      3.235      5.981
REMARK  Name = 
REMARK  8 active torsions:
REMARK  status: ('A' for Active; 'I' for Inactive)
REMARK    1  A    between atoms: C_1  and  O_2
REMARK    2  A    between atoms: O_2  and  C_3
REMARK    3  A    between atoms: C_3  and  C_4
REMARK    4  A    between atoms: C_4  and  C_5
REMARK    5  A    between atoms: C_4  and  N_15
REMARK    6  A    between atoms: C_5  and  C_7
REMARK    7  A    between atoms: C_10  and  O_11
REMARK    8  A    between atoms: O_11  and  C_12
REMARK                            x       y       z     vdW  Elec       q    Type
REMARK                         _______ _______ _______ _____ _____    ______ ____
ROOT
ATOM      1  C   UNL     1       6.572   5.480  18.963  0.00  0.00    +0.000 C 
ATOM      2  O   UNL     1       7.244   5.377  19.991  0.00  0.00    +0.000 OA
ENDROOT
BRANCH   1   3
ATOM      3  C   UNL     1       5.137   5.055  19.025  0.00  0.00    +0.000 A 
ATOM      4  C   UNL     1       4.072   5.959  18.964  0.00  0.00    +0.000 A 
ATOM      5  C   UNL     1       2.756   5.491  18.936  0.00  0.00    +0.000 A 
ATOM      6  C   UNL     1       2.485   4.123  18.955  0.00  0.00    +0.000 A 
ATOM      7  C   UNL     1       3.539   3.216  19.044  0.00  0.00    +0.000 A 
ATOM      8  C   UNL     1       4.860   3.680  19.073  0.00  0.00    +0.000 A 
BRANCH   6   9
ATOM      9  O   UNL     1       1.161   3.791  18.917  0.00  0.00    +0.000 OA
ATOM     10  C   UNL     1       0.886   2.396  18.829  0.00  0.00    +0.000 C 
ENDBRANCH   6   9
ENDBRANCH   1   3
BRANCH   1  11
ATOM     11  C   UNL     1       7.211   5.965  17.663  0.00  0.00    +0.000 C 
BRANCH  11  12
ATOM     12  N   UNL     1       6.640   5.329  16.481  0.00  0.00    +0.000 N 
ATOM     13  C   UNL     1       6.986   4.124  15.942  0.00  0.00    +0.000 A 
ATOM     14  N   UNL     1       6.319   3.931  14.829  0.00  0.00    +0.000 NA
ATOM     15  N   UNL     1       5.481   5.004  14.655  0.00  0.00    +0.000 NA
ATOM     16  C   UNL     1       5.658   5.819  15.669  0.00  0.00    +0.000 A 
ENDBRANCH  11  12
BRANCH  11  17
ATOM     17  C   UNL     1       7.246   7.500  17.582  0.00  0.00    +0.000 C 
BRANCH  17  19
ATOM     18  C   UNL     1       8.423   9.450  18.173  0.00  0.00    +0.000 C 
ATOM     19  O   UNL     1       8.335   8.036  18.333  0.00  0.00    +0.000 OA
ENDBRANCH  17  19
ENDBRANCH  11  17
ENDBRANCH   1  11
TORSDOF 6
ENDMDL
MODEL 4
REMARK VINA RESULT:      -6.4      3.293      5.841
REMARK  Name = 
REMARK  8 active torsions:
REMARK  status: ('A' for Active; 'I' for Inactive)
REMARK    1  A    between atoms: C_1  and  O_2
REMARK    2  A    between atoms: O_2  and  C_3
REMARK    3  A    between atoms: C_3  and  C_4
REMARK    4  A    between atoms: C_4  and  C_5
REMARK    5  A    between atoms: C_4  and  N_15
REMARK    6  A    between atoms: C_5  and  C_7
REMARK    7  A    between atoms: C_10  and  O_11
REMARK    8  A    between atoms: O_11  and  C_12
REMARK                            x       y       z     vdW  Elec       q    Type
REMARK                         _______ _______ _______ _____ _____    ______ ____
ROOT
ATOM      1  C   UNL     1       3.602   5.809  18.673  0.00  0.00    +0.000 C 
ATOM      2  O   UNL     1       3.937   5.230  19.708  0.00  0.00    +0.000 OA
ENDROOT
BRANCH   1   3
ATOM      3  C   UNL     1       2.815   7.076  18.808  0.00  0.00    +0.000 A 
ATOM      4  C   UNL     1       2.631   7.974  17.752  0.00  0.00    +0.000 A 
ATOM      5  C   UNL     1       1.811   9.093  17.918  0.00  0.00    +0.000 A 
ATOM      6  C   UNL     1       1.156   9.324  19.128  0.00  0.00    +0.000 A 
ATOM      7  C   UNL     1       1.356   8.450  20.194  0.00  0.00    +0.000 A 
ATOM      8  C   UNL     1       2.178   7.327  20.033  0.00  0.00    +0.000 A 
BRANCH   6   9
ATOM      9  O   UNL     1       0.378  10.446  19.164  0.00  0.00    +0.000 OA
ATOM     10  C   UNL     1      -0.828  10.373  18.411  0.00  0.00    +0.000 C 
ENDBRANCH   6   9
ENDBRANCH   1   3
BRANCH   1  11
ATOM     11  C   UNL     1       3.929   5.207  17.307  0.00  0.00    +0.000 C 
BRANCH  11  12
ATOM     12  N   UNL     1       5.335   5.357  16.946  0.00  0.00    +0.000 N 
ATOM     13  C   UNL     1       6.242   4.364  16.721  0.00  0.00    +0.000 A 
ATOM     14  N   UNL     1       7.427   4.886  16.514  0.00  0.00    +0.000 NA
ATOM     15  N   UNL     1       7.292   6.251  16.553  0.00  0.00    +0.000 NA
ATOM     16  C   UNL     1       6.027   6.522  16.780  0.00  0.00    +0.000 A 
ENDBRANCH  11  12
BRANCH  11  17
ATOM     17  C   UNL     1       3.409   3.766  17.178  0.00  0.00    +0.000 C 
BRANCH  17  19
ATOM     18  C   UNL     1       1.610   2.775  18.325  0.00  0.00    +0.000 C 
ATOM     19  O   UNL     1       1.990   3.712  17.321  0.00  0.00    +0.000 OA
ENDBRANCH  17  19
ENDBRANCH  11  17
ENDBRANCH   1  11
TORSDOF 6
ENDMDL
MODEL 5
REMARK VINA RESULT:      -6.4      3.719      6.508
REMARK  Name = 
REMARK  8 active torsions:
REMARK  status: ('A' for Active; 'I' for Inactive)
REMARK    1  A    between atoms: C_1  and  O_2
REMARK    2  A    between atoms: O_2  and  C_3
REMARK    3  A    between atoms: C_3  and  C_4
REMARK    4  A    between atoms: C_4  and  C_5
REMARK    5  A    between atoms: C_4  and  N_15
REMARK    6  A    between atoms: C_5  and  C_7
REMARK    7  A    between atoms: C_10  and  O_11
REMARK    8  A    between atoms: O_11  and  C_12
REMARK                            x       y       z     vdW  Elec       q    Type
REMARK                         _______ _______ _______ _____ _____    ______ ____
ROOT
ATOM      1  C   UNL     1       5.046   5.293  16.356  0.00  0.00    +0.000 C 
ATOM      2  O   UNL     1       4.988   6.440  15.911  0.00  0.00    +0.000 OA
ENDROOT
BRANCH   1   3
ATOM      3  C   UNL     1       3.976   4.862  17.312  0.00  0.00    +0.000 A 
ATOM      4  C   UNL     1       3.381   5.733  18.230  0.00  0.00    +0.000 A 
ATOM      5  C   UNL     1       2.326   5.292  19.032  0.00  0.00    +0.000 A 
ATOM      6  C   UNL     1       1.843   3.988  18.921  0.00  0.00    +0.000 A 
ATOM      7  C   UNL     1       2.447   3.106  18.028  0.00  0.00    +0.000 A 
ATOM      8  C   UNL     1       3.507   3.543  17.223  0.00  0.00    +0.000 A 
BRANCH   6   9
ATOM      9  O   UNL     1       0.805   3.679  19.753  0.00  0.00    +0.000 OA
ATOM     10  C   UNL     1       1.168   2.992  20.947  0.00  0.00    +0.000 C 
ENDBRANCH   6   9
ENDBRANCH   1   3
BRANCH   1  11
ATOM     11  C   UNL     1       6.211   4.375  15.987  0.00  0.00    +0.000 C 
BRANCH  11  12
ATOM     12  N   UNL     1       6.474   4.346  14.552  0.00  0.00    +0.000 N 
ATOM     13  C   UNL     1       5.813   3.620  13.604  0.00  0.00    +0.000 A 
ATOM     14  N   UNL     1       6.395   3.781  12.440  0.00  0.00    +0.000 NA
ATOM     15  N   UNL     1       7.429   4.668  12.611  0.00  0.00    +0.000 NA
ATOM     16  C   UNL     1       7.445   5.025  13.874  0.00  0.00    +0.000 A 
ENDBRANCH  11  12
BRANCH  11  17
ATOM     17  C   UNL     1       7.458   4.665  16.837  0.00  0.00    +0.000 C 
BRANCH  17  19
ATOM     18  C   UNL     1       7.614   5.630  18.978  0.00  0.00    +0.000 C 
ATOM     19  O   UNL     1       7.190   4.494  18.229  0.00  0.00    +0.000 OA
ENDBRANCH  17  19
ENDBRANCH  11  17
ENDBRANCH   1  11
TORSDOF 6
ENDMDL
MODEL 6
REMARK VINA RESULT:      -6.4      3.180      5.846
REMARK  Name = 
REMARK  8 active torsions:
REMARK  status: ('A' for Active; 'I' for Inactive)
REMARK    1  A    between atoms: C_1  and  O_2
REMARK    2  A    between atoms: O_2  and  C_3
REMARK    3  A    between atoms: C_3  and  C_4
REMARK    4  A    between atoms: C_4  and  C_5
REMARK    5  A    between atoms: C_4  and  N_15
REMARK    6  A    between atoms: C_5  and  C_7
REMARK    7  A    between atoms: C_10  and  O_11
REMARK    8  A    between atoms: O_11  and  C_12
REMARK                            x       y       z     vdW  Elec       q    Type
REMARK                         _______ _______ _______ _____ _____    ______ ____
ROOT
ATOM      1  C   UNL     1       5.275   6.185  15.908  0.00  0.00    +0.000 C 
ATOM      2  O   UNL     1       4.924   7.057  15.112  0.00  0.00    +0.000 OA
ENDROOT
BRANCH   1   3
ATOM      3  C   UNL     1       4.263   5.704  16.903  0.00  0.00    +0.000 A 
ATOM      4  C   UNL     1       3.894   4.361  17.024  0.00  0.00    +0.000 A 
ATOM      5  C   UNL     1       3.011   3.965  18.032  0.00  0.00    +0.000 A 
ATOM      6  C   UNL     1       2.497   4.894  18.936  0.00  0.00    +0.000 A 
ATOM      7  C   UNL     1       2.838   6.239  18.806  0.00  0.00    +0.000 A 
ATOM      8  C   UNL     1       3.723   6.641  17.797  0.00  0.00    +0.000 A 
BRANCH   6   9
ATOM      9  O   UNL     1       1.651   4.383  19.879  0.00  0.00    +0.000 OA
ATOM     10  C   UNL     1       2.196   4.278  21.190  0.00  0.00    +0.000 C 
ENDBRANCH   6   9
ENDBRANCH   1   3
BRANCH   1  11
ATOM     11  C   UNL     1       6.713   5.669  15.912  0.00  0.00    +0.000 C 
BRANCH  11  12
ATOM     12  N   UNL     1       7.313   5.678  17.241  0.00  0.00    +0.000 N 
ATOM     13  C   UNL     1       7.676   4.599  17.993  0.00  0.00    +0.000 A 
ATOM     14  N   UNL     1       8.092   5.000  19.170  0.00  0.00    +0.000 NA
ATOM     15  N   UNL     1       8.051   6.372  19.180  0.00  0.00    +0.000 NA
ATOM     16  C   UNL     1       7.613   6.768  18.007  0.00  0.00    +0.000 A 
ENDBRANCH  11  12
BRANCH  11  17
ATOM     17  C   UNL     1       6.837   4.319  15.187  0.00  0.00    +0.000 C 
BRANCH  17  19
ATOM     18  C   UNL     1       5.989   3.662  13.093  0.00  0.00    +0.000 C 
ATOM     19  O   UNL     1       6.926   4.494  13.774  0.00  0.00    +0.000 OA
ENDBRANCH  17  19
ENDBRANCH  11  17
ENDBRANCH   1  11
TORSDOF 6
ENDMDL
MODEL 7
REMARK VINA RESULT:      -6.4      3.346      5.757
REMARK  Name = 
REMARK  8 active torsions:
REMARK  status: ('A' for Active; 'I' for Inactive)
REMARK    1  A    between atoms: C_1  and  O_2
REMARK    2  A    between atoms: O_2  and  C_3
REMARK    3  A    between atoms: C_3  and  C_4
REMARK    4  A    between atoms: C_4  and  C_5
REMARK    5  A    between atoms: C_4  and  N_15
REMARK    6  A    between atoms: C_5  and  C_7
REMARK    7  A    between atoms: C_10  and  O_11
REMARK    8  A    between atoms: O_11  and  C_12
REMARK                            x       y       z     vdW  Elec       q    Type
REMARK                         _______ _______ _______ _____ _____    ______ ____
ROOT
ATOM      1  C   UNL     1       3.701   5.884  18.691  0.00  0.00    +0.000 C 
ATOM      2  O   UNL     1       4.142   5.370  19.720  0.00  0.00    +0.000 OA
ENDROOT
BRANCH   1   3
ATOM      3  C   UNL     1       2.792   7.065  18.837  0.00  0.00    +0.000 A 
ATOM      4  C   UNL     1       2.105   7.355  20.021  0.00  0.00    +0.000 A 
ATOM      5  C   UNL     1       1.343   8.522  20.121  0.00  0.00    +0.000 A 
ATOM      6  C   UNL     1       1.266   9.417  19.055  0.00  0.00    +0.000 A 
ATOM      7  C   UNL     1       1.924   9.123  17.863  0.00  0.00    +0.000 A 
ATOM      8  C   UNL     1       2.689   7.954  17.757  0.00  0.00    +0.000 A 
BRANCH   6   9
ATOM      9  O   UNL     1       0.496  10.523  19.278  0.00  0.00    +0.000 OA
ATOM     10  C   UNL     1       0.658  11.127  20.558  0.00  0.00    +0.000 C 
ENDBRANCH   6   9
ENDBRANCH   1   3
BRANCH   1  11
ATOM     11  C   UNL     1       4.028   5.286  17.323  0.00  0.00    +0.000 C 
BRANCH  11  12
ATOM     12  N   UNL     1       5.437   5.418  16.971  0.00  0.00    +0.000 N 
ATOM     13  C   UNL     1       6.179   6.563  16.943  0.00  0.00    +0.000 A 
ATOM     14  N   UNL     1       7.381   6.300  16.488  0.00  0.00    +0.000 NA
ATOM     15  N   UNL     1       7.450   4.948  16.257  0.00  0.00    +0.000 NA
ATOM     16  C   UNL     1       6.290   4.426  16.582  0.00  0.00    +0.000 A 
ENDBRANCH  11  12
BRANCH  11  17
ATOM     17  C   UNL     1       3.488   3.853  17.183  0.00  0.00    +0.000 C 
BRANCH  17  19
ATOM     18  C   UNL     1       1.783   2.655  18.277  0.00  0.00    +0.000 C 
ATOM     19  O   UNL     1       2.093   3.792  17.475  0.00  0.00    +0.000 OA
ENDBRANCH  17  19
ENDBRANCH  11  17
ENDBRANCH   1  11
TORSDOF 6
ENDMDL
MODEL 8
REMARK VINA RESULT:      -6.4      3.658      6.430
REMARK  Name = 
REMARK  8 active torsions:
REMARK  status: ('A' for Active; 'I' for Inactive)
REMARK    1  A    between atoms: C_1  and  O_2
REMARK    2  A    between atoms: O_2  and  C_3
REMARK    3  A    between atoms: C_3  and  C_4
REMARK    4  A    between atoms: C_4  and  C_5
REMARK    5  A    between atoms: C_4  and  N_15
REMARK    6  A    between atoms: C_5  and  C_7
REMARK    7  A    between atoms: C_10  and  O_11
REMARK    8  A    between atoms: O_11  and  C_12
REMARK                            x       y       z     vdW  Elec       q    Type
REMARK                         _______ _______ _______ _____ _____    ______ ____
ROOT
ATOM      1  C   UNL     1       4.960   5.251  16.598  0.00  0.00    +0.000 C 
ATOM      2  O   UNL     1       4.938   6.421  16.211  0.00  0.00    +0.000 OA
ENDROOT
BRANCH   1   3
ATOM      3  C   UNL     1       3.816   4.776  17.441  0.00  0.00    +0.000 A 
ATOM      4  C   UNL     1       3.133   3.581  17.193  0.00  0.00    +0.000 A 
ATOM      5  C   UNL     1       2.134   3.150  18.070  0.00  0.00    +0.000 A 
ATOM      6  C   UNL     1       1.814   3.892  19.206  0.00  0.00    +0.000 A 
ATOM      7  C   UNL     1       2.471   5.097  19.447  0.00  0.00    +0.000 A 
ATOM      8  C   UNL     1       3.472   5.534  18.570  0.00  0.00    +0.000 A 
BRANCH   6   9
ATOM      9  O   UNL     1       0.826   3.363  19.987  0.00  0.00    +0.000 OA
ATOM     10  C   UNL     1       1.254   2.859  21.249  0.00  0.00    +0.000 C 
ENDBRANCH   6   9
ENDBRANCH   1   3
BRANCH   1  11
ATOM     11  C   UNL     1       6.150   4.349  16.276  0.00  0.00    +0.000 C 
BRANCH  11  12
ATOM     12  N   UNL     1       6.441   4.287  14.848  0.00  0.00    +0.000 N 
ATOM     13  C   UNL     1       7.406   4.972  14.169  0.00  0.00    +0.000 A 
ATOM     14  N   UNL     1       7.301   4.728  12.885  0.00  0.00    +0.000 NA
ATOM     15  N   UNL     1       6.279   3.828  12.716  0.00  0.00    +0.000 NA
ATOM     16  C   UNL     1       5.793   3.545  13.903  0.00  0.00    +0.000 A 
ENDBRANCH  11  12
BRANCH  11  17
ATOM     17  C   UNL     1       7.375   4.689  17.141  0.00  0.00    +0.000 C 
BRANCH  17  19
ATOM     18  C   UNL     1       7.430   5.694  19.269  0.00  0.00    +0.000 C 
ATOM     19  O   UNL     1       7.092   4.522  18.530  0.00  0.00    +0.000 OA
ENDBRANCH  17  19
ENDBRANCH  11  17
ENDBRANCH   1  11
TORSDOF 6
ENDMDL
MODEL 9
REMARK VINA RESULT:      -6.4      3.238      5.905
REMARK  Name = 
REMARK  8 active torsions:
REMARK  status: ('A' for Active; 'I' for Inactive)
REMARK    1  A    between atoms: C_1  and  O_2
REMARK    2  A    between atoms: O_2  and  C_3
REMARK    3  A    between atoms: C_3  and  C_4
REMARK    4  A    between atoms: C_4  and  C_5
REMARK    5  A    between atoms: C_4  and  N_15
REMARK    6  A    between atoms: C_5  and  C_7
REMARK    7  A    between atoms: C_10  and  O_11
REMARK    8  A    between atoms: O_11  and  C_12
REMARK                            x       y       z     vdW  Elec       q    Type
REMARK                         _______ _______ _______ _____ _____    ______ ____
ROOT
ATOM      1  C   UNL     1       4.078   6.420  17.429  0.00  0.00    +0.000 C 
ATOM      2  O   UNL     1       3.673   7.579  17.320  0.00  0.00    +0.000 OA
ENDROOT
BRANCH   1   3
ATOM      3  C   UNL     1       3.288   5.484  18.292  0.00  0.00    +0.000 A 
ATOM      4  C   UNL     1       3.495   5.362  19.669  0.00  0.00    +0.000 A 
ATOM      5  C   UNL     1       2.664   4.538  20.432  0.00  0.00    +0.000 A 
ATOM      6  C   UNL     1       1.613   3.839  19.839  0.00  0.00    +0.000 A 
ATOM      7  C   UNL     1       1.417   3.933  18.463  0.00  0.00    +0.000 A 
ATOM      8  C   UNL     1       2.248   4.758  17.693  0.00  0.00    +0.000 A 
BRANCH   6   9
ATOM      9  O   UNL     1       0.869   3.073  20.690  0.00  0.00    +0.000 OA
ATOM     10  C   UNL     1       1.580   2.533  21.800  0.00  0.00    +0.000 C 
ENDBRANCH   6   9
ENDBRANCH   1   3
BRANCH   1  11
ATOM     11  C   UNL     1       5.378   5.986  16.752  0.00  0.00    +0.000 C 
BRANCH  11  12
ATOM     12  N   UNL     1       6.527   6.043  17.649  0.00  0.00    +0.000 N 
ATOM     13  C   UNL     1       6.950   5.077  18.515  0.00  0.00    +0.000 A 
ATOM     14  N   UNL     1       7.960   5.527  19.220  0.00  0.00    +0.000 NA
ATOM     15  N   UNL     1       8.242   6.796  18.779  0.00  0.00    +0.000 NA
ATOM     16  C   UNL     1       7.398   7.081  17.814  0.00  0.00    +0.000 A 
ENDBRANCH  11  12
BRANCH  11  17
ATOM     17  C   UNL     1       5.224   4.637  16.031  0.00  0.00    +0.000 C 
BRANCH  17  19
ATOM     18  C   UNL     1       6.344   3.950  14.079  0.00  0.00    +0.000 C 
ATOM     19  O   UNL     1       5.324   4.789  14.616  0.00  0.00    +0.000 OA
ENDBRANCH  17  19
ENDBRANCH  11  17
ENDBRANCH   1  11
TORSDOF 6
ENDMDL
