MODEL 1
REMARK VINA RESULT:      -8.2      0.000      0.000
REMARK  Name = 
REMARK  6 active torsions:
REMARK  status: ('A' for Active; 'I' for Inactive)
REMARK    1  A    between atoms: S_2  and  N_4
REMARK    2  A    between atoms: S_2  and  C_9
REMARK    3  A    between atoms: N_4  and  C_5
REMARK    4  A    between atoms: C_5  and  C_6
REMARK    5  A    between atoms: C_13  and  S_14
REMARK    6  A    between atoms: S_14  and  N_17
REMARK                            x       y       z     vdW  Elec       q    Type
REMARK                         _______ _______ _______ _____ _____    ______ ____
ROOT
ATOM      1  C   UNL     1       5.559   5.682  16.940  0.00  0.00    +0.000 A 
ATOM      2  C   UNL     1       4.928   6.921  17.105  0.00  0.00    +0.000 A 
ATOM      3  C   UNL     1       3.613   6.969  17.586  0.00  0.00    +0.000 A 
ATOM      4  C   UNL     1       2.944   5.790  17.926  0.00  0.00    +0.000 A 
ATOM      5  C   UNL     1       3.590   4.560  17.758  0.00  0.00    +0.000 A 
ATOM      6  C   UNL     1       4.881   4.492  17.226  0.00  0.00    +0.000 A 
ENDROOT
BRANCH   1   8
ATOM      7  O   UNL     1       7.882   4.572  17.439  0.00  0.00    +0.000 OA
ATOM      8  S   UNL     1       7.307   5.622  16.629  0.00  0.00    +0.000 S 
ATOM      9  O   UNL     1       7.774   6.989  16.717  0.00  0.00    +0.000 OA
BRANCH   8  10
ATOM     10  N   UNL     1       7.452   5.194  15.007  0.00  0.00    +0.000 NA
ATOM     11  H   UNL     1       8.103   4.412  14.929  0.00  0.00    +0.000 HD
BRANCH  10  12
ATOM     12  C   UNL     1       6.204   5.038  14.258  0.00  0.00    +0.000 C 
BRANCH  12  13
ATOM     13  C   UNL     1       6.238   3.729  13.526  0.00  0.00    +0.000 C 
ATOM     14  C   UNL     1       5.331   3.455  12.348  0.00  0.00    +0.000 C 
ATOM     15  C   UNL     1       6.801   3.668  12.127  0.00  0.00    +0.000 C 
ENDBRANCH  12  13
ENDBRANCH  10  12
ENDBRANCH   8  10
ENDBRANCH   1   8
BRANCH   5  16
ATOM     16  S   UNL     1       2.805   3.078  18.349  0.00  0.00    +0.000 S 
ATOM     17  O   UNL     1       2.020   2.539  17.260  0.00  0.00    +0.000 OA
ATOM     18  O   UNL     1       3.806   2.279  19.022  0.00  0.00    +0.000 OA
BRANCH  16  19
ATOM     19  N   UNL     1       1.729   3.658  19.546  0.00  0.00    +0.000 NA
ATOM     20  C   UNL     1       2.306   4.485  20.637  0.00  0.00    +0.000 C 
ATOM     21  C   UNL     1       2.424   3.548  21.822  0.00  0.00    +0.000 C 
ATOM     22  C   UNL     1       1.209   2.655  21.690  0.00  0.00    +0.000 C 
ATOM     23  C   UNL     1       0.925   2.576  20.193  0.00  0.00    +0.000 C 
ENDBRANCH  16  19
ENDBRANCH   5  16
TORSDOF 6
ENDMDL
MODEL 2
REMARK VINA RESULT:      -8.2      0.807      1.226
REMARK  Name = 
REMARK  6 active torsions:
REMARK  status: ('A' for Active; 'I' for Inactive)
REMARK    1  A    between atoms: S_2  and  N_4
REMARK    2  A    between atoms: S_2  and  C_9
REMARK    3  A    between atoms: N_4  and  C_5
REMARK    4  A    between atoms: C_5  and  C_6
REMARK    5  A    between atoms: C_13  and  S_14
REMARK    6  A    between atoms: S_14  and  N_17
REMARK                            x       y       z     vdW  Elec       q    Type
REMARK                         _______ _______ _______ _____ _____    ______ ____
ROOT
ATOM      1  C   UNL     1       5.389   5.641  17.085  0.00  0.00    +0.000 A 
ATOM      2  C   UNL     1       4.895   6.926  17.342  0.00  0.00    +0.000 A 
ATOM      3  C   UNL     1       3.547   7.092  17.690  0.00  0.00    +0.000 A 
ATOM      4  C   UNL     1       2.709   5.979  17.808  0.00  0.00    +0.000 A 
ATOM      5  C   UNL     1       3.220   4.703  17.550  0.00  0.00    +0.000 A 
ATOM      6  C   UNL     1       4.547   4.526  17.148  0.00  0.00    +0.000 A 
ENDROOT
BRANCH   1   8
ATOM      7  O   UNL     1       7.592   4.651  18.106  0.00  0.00    +0.000 OA
ATOM      8  S   UNL     1       7.142   5.388  16.947  0.00  0.00    +0.000 S 
ATOM      9  O   UNL     1       7.704   6.676  16.603  0.00  0.00    +0.000 OA
BRANCH   8  10
ATOM     10  N   UNL     1       7.342   4.423  15.582  0.00  0.00    +0.000 NA
ATOM     11  H   UNL     1       7.177   3.449  15.840  0.00  0.00    +0.000 HD
BRANCH  10  12
ATOM     12  C   UNL     1       6.662   4.865  14.364  0.00  0.00    +0.000 C 
BRANCH  12  13
ATOM     13  C   UNL     1       6.178   3.660  13.613  0.00  0.00    +0.000 C 
ATOM     14  C   UNL     1       5.119   3.766  12.539  0.00  0.00    +0.000 C 
ATOM     15  C   UNL     1       6.546   3.486  12.159  0.00  0.00    +0.000 C 
ENDBRANCH  12  13
ENDBRANCH  10  12
ENDBRANCH   8  10
ENDBRANCH   1   8
BRANCH   5  16
ATOM     16  S   UNL     1       2.201   3.279  17.866  0.00  0.00    +0.000 S 
ATOM     17  O   UNL     1       0.832   3.737  17.958  0.00  0.00    +0.000 OA
ATOM     18  O   UNL     1       2.585   2.239  16.936  0.00  0.00    +0.000 OA
BRANCH  16  19
ATOM     19  N   UNL     1       2.703   2.779  19.424  0.00  0.00    +0.000 NA
ATOM     20  C   UNL     1       1.739   1.983  20.226  0.00  0.00    +0.000 C 
ATOM     21  C   UNL     1       1.141   2.965  21.213  0.00  0.00    +0.000 C 
ATOM     22  C   UNL     1       2.297   3.886  21.542  0.00  0.00    +0.000 C 
ATOM     23  C   UNL     1       3.164   3.910  20.287  0.00  0.00    +0.000 C 
ENDBRANCH  16  19
ENDBRANCH   5  16
TORSDOF 6
ENDMDL
MODEL 3
REMARK VINA RESULT:      -8.0      1.513      1.891
REMARK  Name = 
REMARK  6 active torsions:
REMARK  status: ('A' for Active; 'I' for Inactive)
REMARK    1  A    between atoms: S_2  and  N_4
REMARK    2  A    between atoms: S_2  and  C_9
REMARK    3  A    between atoms: N_4  and  C_5
REMARK    4  A    between atoms: C_5  and  C_6
REMARK    5  A    between atoms: C_13  and  S_14
REMARK    6  A    between atoms: S_14  and  N_17
REMARK                            x       y       z     vdW  Elec       q    Type
REMARK                         _______ _______ _______ _____ _____    ______ ____
ROOT
ATOM      1  C   UNL     1       5.596   5.492  17.216  0.00  0.00    +0.000 A 
ATOM      2  C   UNL     1       4.806   6.648  17.255  0.00  0.00    +0.000 A 
ATOM      3  C   UNL     1       3.686   6.692  18.098  0.00  0.00    +0.000 A 
ATOM      4  C   UNL     1       3.376   5.601  18.914  0.00  0.00    +0.000 A 
ATOM      5  C   UNL     1       4.177   4.455  18.864  0.00  0.00    +0.000 A 
ATOM      6  C   UNL     1       5.264   4.374  17.989  0.00  0.00    +0.000 A 
ENDROOT
BRANCH   1   8
ATOM      7  O   UNL     1       7.937   4.383  16.815  0.00  0.00    +0.000 OA
ATOM      8  S   UNL     1       7.171   5.535  16.396  0.00  0.00    +0.000 S 
ATOM      9  O   UNL     1       7.673   6.881  16.568  0.00  0.00    +0.000 OA
BRANCH   8  10
ATOM     10  N   UNL     1       6.819   5.383  14.757  0.00  0.00    +0.000 NA
ATOM     11  H   UNL     1       7.687   5.211  14.248  0.00  0.00    +0.000 HD
BRANCH  10  12
ATOM     12  C   UNL     1       5.709   4.497  14.406  0.00  0.00    +0.000 C 
BRANCH  12  13
ATOM     13  C   UNL     1       6.189   3.492  13.401  0.00  0.00    +0.000 C 
ATOM     14  C   UNL     1       5.471   3.277  12.087  0.00  0.00    +0.000 C 
ATOM     15  C   UNL     1       6.808   3.963  12.107  0.00  0.00    +0.000 C 
ENDBRANCH  12  13
ENDBRANCH  10  12
ENDBRANCH   8  10
ENDBRANCH   1   8
BRANCH   5  16
ATOM     16  S   UNL     1       3.884   3.138  20.024  0.00  0.00    +0.000 S 
ATOM     17  O   UNL     1       5.114   2.384  20.143  0.00  0.00    +0.000 OA
ATOM     18  O   UNL     1       3.232   3.702  21.185  0.00  0.00    +0.000 OA
BRANCH  16  19
ATOM     19  N   UNL     1       2.734   2.160  19.218  0.00  0.00    +0.000 NA
ATOM     20  C   UNL     1       2.516   2.418  17.772  0.00  0.00    +0.000 C 
ATOM     21  C   UNL     1       1.232   3.220  17.703  0.00  0.00    +0.000 C 
ATOM     22  C   UNL     1       0.392   2.642  18.822  0.00  0.00    +0.000 C 
ATOM     23  C   UNL     1       1.390   2.168  19.873  0.00  0.00    +0.000 C 
ENDBRANCH  16  19
ENDBRANCH   5  16
TORSDOF 6
ENDMDL
MODEL 4
REMARK VINA RESULT:      -8.0      1.729      2.275
REMARK  Name = 
REMARK  6 active torsions:
REMARK  status: ('A' for Active; 'I' for Inactive)
REMARK    1  A    between atoms: S_2  and  N_4
REMARK    2  A    between atoms: S_2  and  C_9
REMARK    3  A    between atoms: N_4  and  C_5
REMARK    4  A    between atoms: C_5  and  C_6
REMARK    5  A    between atoms: C_13  and  S_14
REMARK    6  A    between atoms: S_14  and  N_17
REMARK                            x       y       z     vdW  Elec       q    Type
REMARK                         _______ _______ _______ _____ _____    ______ ____
ROOT
ATOM      1  C   UNL     1       6.272   5.283  16.766  0.00  0.00    +0.000 A 
ATOM      2  C   UNL     1       7.177   5.964  17.588  0.00  0.00    +0.000 A 
ATOM      3  C   UNL     1       7.140   5.762  18.975  0.00  0.00    +0.000 A 
ATOM      4  C   UNL     1       6.223   4.865  19.530  0.00  0.00    +0.000 A 
ATOM      5  C   UNL     1       5.327   4.190  18.694  0.00  0.00    +0.000 A 
ATOM      6  C   UNL     1       5.315   4.423  17.315  0.00  0.00    +0.000 A 
ENDROOT
BRANCH   1   8
ATOM      7  O   UNL     1       7.879   5.658  14.728  0.00  0.00    +0.000 OA
ATOM      8  S   UNL     1       6.508   5.293  15.005  0.00  0.00    +0.000 S 
ATOM      9  O   UNL     1       5.399   6.046  14.459  0.00  0.00    +0.000 OA
BRANCH   8  10
ATOM     10  N   UNL     1       6.263   3.701  14.517  0.00  0.00    +0.000 NA
ATOM     11  H   UNL     1       6.384   3.087  15.324  0.00  0.00    +0.000 HD
BRANCH  10  12
ATOM     12  C   UNL     1       5.070   3.439  13.713  0.00  0.00    +0.000 C 
BRANCH  12  13
ATOM     13  C   UNL     1       5.459   3.400  12.265  0.00  0.00    +0.000 C 
ATOM     14  C   UNL     1       5.466   2.109  11.478  0.00  0.00    +0.000 C 
ATOM     15  C   UNL     1       4.407   3.141  11.213  0.00  0.00    +0.000 C 
ENDBRANCH  12  13
ENDBRANCH  10  12
ENDBRANCH   8  10
ENDBRANCH   1   8
BRANCH   5  16
ATOM     16  S   UNL     1       4.281   2.926  19.380  0.00  0.00    +0.000 S 
ATOM     17  O   UNL     1       3.484   2.389  18.298  0.00  0.00    +0.000 OA
ATOM     18  O   UNL     1       5.100   2.068  20.208  0.00  0.00    +0.000 OA
BRANCH  16  19
ATOM     19  N   UNL     1       3.245   3.802  20.422  0.00  0.00    +0.000 NA
ATOM     20  C   UNL     1       2.515   3.030  21.461  0.00  0.00    +0.000 C 
ATOM     21  C   UNL     1       1.109   2.868  20.918  0.00  0.00    +0.000 C 
ATOM     22  C   UNL     1       0.860   4.168  20.184  0.00  0.00    +0.000 C 
ATOM     23  C   UNL     1       2.231   4.625  19.694  0.00  0.00    +0.000 C 
ENDBRANCH  16  19
ENDBRANCH   5  16
TORSDOF 6
ENDMDL
MODEL 5
REMARK VINA RESULT:      -7.8      1.628      2.028
REMARK  Name = 
REMARK  6 active torsions:
REMARK  status: ('A' for Active; 'I' for Inactive)
REMARK    1  A    between atoms: S_2  and  N_4
REMARK    2  A    between atoms: S_2  and  C_9
REMARK    3  A    between atoms: N_4  and  C_5
REMARK    4  A    between atoms: C_5  and  C_6
REMARK    5  A    between atoms: C_13  and  S_14
REMARK    6  A    between atoms: S_14  and  N_17
REMARK                            x       y       z     vdW  Elec       q    Type
REMARK                         _______ _______ _______ _____ _____    ______ ____
ROOT
ATOM      1  C   UNL     1       5.799   5.364  16.833  0.00  0.00    +0.000 A 
ATOM      2  C   UNL     1       6.659   5.916  17.790  0.00  0.00    +0.000 A 
ATOM      3  C   UNL     1       6.594   5.471  19.117  0.00  0.00    +0.000 A 
ATOM      4  C   UNL     1       5.696   4.463  19.478  0.00  0.00    +0.000 A 
ATOM      5  C   UNL     1       4.845   3.920  18.509  0.00  0.00    +0.000 A 
ATOM      6  C   UNL     1       4.859   4.393  17.193  0.00  0.00    +0.000 A 
ENDROOT
BRANCH   1   8
ATOM      7  O   UNL     1       7.502   5.676  14.864  0.00  0.00    +0.000 OA
ATOM      8  S   UNL     1       6.078   5.693  15.110  0.00  0.00    +0.000 S 
ATOM      9  O   UNL     1       5.268   6.848  14.789  0.00  0.00    +0.000 OA
BRANCH   8  10
ATOM     10  N   UNL     1       5.374   4.400  14.294  0.00  0.00    +0.000 NA
ATOM     11  H   UNL     1       4.612   4.752  13.713  0.00  0.00    +0.000 HD
BRANCH  10  12
ATOM     12  C   UNL     1       6.287   3.474  13.624  0.00  0.00    +0.000 C 
BRANCH  12  13
ATOM     13  C   UNL     1       5.954   3.435  12.162  0.00  0.00    +0.000 C 
ATOM     14  C   UNL     1       5.535   2.154  11.477  0.00  0.00    +0.000 C 
ATOM     15  C   UNL     1       4.523   3.237  11.725  0.00  0.00    +0.000 C 
ENDBRANCH  12  13
ENDBRANCH  10  12
ENDBRANCH   8  10
ENDBRANCH   1   8
BRANCH   5  16
ATOM     16  S   UNL     1       3.827   2.524  18.930  0.00  0.00    +0.000 S 
ATOM     17  O   UNL     1       3.915   1.579  17.837  0.00  0.00    +0.000 OA
ATOM     18  O   UNL     1       4.140   2.134  20.287  0.00  0.00    +0.000 OA
BRANCH  16  19
ATOM     19  N   UNL     1       2.248   3.183  18.940  0.00  0.00    +0.000 NA
ATOM     20  C   UNL     1       2.128   4.659  19.060  0.00  0.00    +0.000 C 
ATOM     21  C   UNL     1       1.769   4.909  20.511  0.00  0.00    +0.000 C 
ATOM     22  C   UNL     1       0.881   3.735  20.865  0.00  0.00    +0.000 C 
ATOM     23  C   UNL     1       1.365   2.584  19.988  0.00  0.00    +0.000 C 
ENDBRANCH  16  19
ENDBRANCH   5  16
TORSDOF 6
ENDMDL
MODEL 6
REMARK VINA RESULT:      -7.7      2.011      3.113
REMARK  Name = 
REMARK  6 active torsions:
REMARK  status: ('A' for Active; 'I' for Inactive)
REMARK    1  A    between atoms: S_2  and  N_4
REMARK    2  A    between atoms: S_2  and  C_9
REMARK    3  A    between atoms: N_4  and  C_5
REMARK    4  A    between atoms: C_5  and  C_6
REMARK    5  A    between atoms: C_13  and  S_14
REMARK    6  A    between atoms: S_14  and  N_17
REMARK                            x       y       z     vdW  Elec       q    Type
REMARK                         _______ _______ _______ _____ _____    ______ ____
ROOT
ATOM      1  C   UNL     1       5.116   5.318  16.032  0.00  0.00    +0.000 A 
ATOM      2  C   UNL     1       5.022   6.656  16.435  0.00  0.00    +0.000 A 
ATOM      3  C   UNL     1       4.000   7.044  17.312  0.00  0.00    +0.000 A 
ATOM      4  C   UNL     1       3.097   6.098  17.803  0.00  0.00    +0.000 A 
ATOM      5  C   UNL     1       3.206   4.765  17.392  0.00  0.00    +0.000 A 
ATOM      6  C   UNL     1       4.185   4.372  16.475  0.00  0.00    +0.000 A 
ENDROOT
BRANCH   1   8
ATOM      7  O   UNL     1       6.830   5.659  14.077  0.00  0.00    +0.000 OA
ATOM      8  S   UNL     1       6.570   4.760  15.178  0.00  0.00    +0.000 S 
ATOM      9  O   UNL     1       6.388   3.340  14.969  0.00  0.00    +0.000 OA
BRANCH   8  10
ATOM     10  N   UNL     1       7.820   4.900  16.297  0.00  0.00    +0.000 NA
ATOM     11  H   UNL     1       8.148   5.867  16.305  0.00  0.00    +0.000 HD
BRANCH  10  12
ATOM     12  C   UNL     1       7.585   4.315  17.617  0.00  0.00    +0.000 C 
BRANCH  12  13
ATOM     13  C   UNL     1       7.218   5.409  18.575  0.00  0.00    +0.000 C 
ATOM     14  C   UNL     1       8.108   5.775  19.742  0.00  0.00    +0.000 C 
ATOM     15  C   UNL     1       7.994   6.704  18.566  0.00  0.00    +0.000 C 
ENDBRANCH  12  13
ENDBRANCH  10  12
ENDBRANCH   8  10
ENDBRANCH   1   8
BRANCH   5  16
ATOM     16  S   UNL     1       2.167   3.534  18.148  0.00  0.00    +0.000 S 
ATOM     17  O   UNL     1       0.842   3.682  17.586  0.00  0.00    +0.000 OA
ATOM     18  O   UNL     1       2.867   2.269  18.102  0.00  0.00    +0.000 OA
BRANCH  16  19
ATOM     19  N   UNL     1       2.111   4.025  19.786  0.00  0.00    +0.000 NA
ATOM     20  C   UNL     1       3.260   3.648  20.649  0.00  0.00    +0.000 C 
ATOM     21  C   UNL     1       2.780   2.453  21.447  0.00  0.00    +0.000 C 
ATOM     22  C   UNL     1       1.316   2.755  21.691  0.00  0.00    +0.000 C 
ATOM     23  C   UNL     1       0.869   3.585  20.492  0.00  0.00    +0.000 C 
ENDBRANCH  16  19
ENDBRANCH   5  16
TORSDOF 6
ENDMDL
MODEL 7
REMARK VINA RESULT:      -7.7      1.242      1.699
REMARK  Name = 
REMARK  6 active torsions:
REMARK  status: ('A' for Active; 'I' for Inactive)
REMARK    1  A    between atoms: S_2  and  N_4
REMARK    2  A    between atoms: S_2  and  C_9
REMARK    3  A    between atoms: N_4  and  C_5
REMARK    4  A    between atoms: C_5  and  C_6
REMARK    5  A    between atoms: C_13  and  S_14
REMARK    6  A    between atoms: S_14  and  N_17
REMARK                            x       y       z     vdW  Elec       q    Type
REMARK                         _______ _______ _______ _____ _____    ______ ____
ROOT
ATOM      1  C   UNL     1       5.617   5.380  16.252  0.00  0.00    +0.000 A 
ATOM      2  C   UNL     1       5.629   6.716  16.672  0.00  0.00    +0.000 A 
ATOM      3  C   UNL     1       4.568   7.208  17.445  0.00  0.00    +0.000 A 
ATOM      4  C   UNL     1       3.518   6.364  17.817  0.00  0.00    +0.000 A 
ATOM      5  C   UNL     1       3.523   5.031  17.391  0.00  0.00    +0.000 A 
ATOM      6  C   UNL     1       4.545   4.540  16.573  0.00  0.00    +0.000 A 
ENDROOT
BRANCH   1   8
ATOM      7  O   UNL     1       7.863   4.074  16.604  0.00  0.00    +0.000 OA
ATOM      8  S   UNL     1       7.083   4.671  15.543  0.00  0.00    +0.000 S 
ATOM      9  O   UNL     1       7.637   5.686  14.675  0.00  0.00    +0.000 OA
BRANCH   8  10
ATOM     10  N   UNL     1       6.533   3.448  14.525  0.00  0.00    +0.000 NA
ATOM     11  H   UNL     1       6.455   2.583  15.060  0.00  0.00    +0.000 HD
BRANCH  10  12
ATOM     12  C   UNL     1       5.376   3.766  13.688  0.00  0.00    +0.000 C 
BRANCH  12  13
ATOM     13  C   UNL     1       5.721   3.489  12.255  0.00  0.00    +0.000 C 
ATOM     14  C   UNL     1       5.533   2.119  11.643  0.00  0.00    +0.000 C 
ATOM     15  C   UNL     1       4.619   3.246  11.252  0.00  0.00    +0.000 C 
ENDBRANCH  12  13
ENDBRANCH  10  12
ENDBRANCH   8  10
ENDBRANCH   1   8
BRANCH   5  16
ATOM     16  S   UNL     1       2.279   3.917  18.006  0.00  0.00    +0.000 S 
ATOM     17  O   UNL     1       1.112   4.708  18.332  0.00  0.00    +0.000 OA
ATOM     18  O   UNL     1       2.197   2.794  17.098  0.00  0.00    +0.000 OA
BRANCH  16  19
ATOM     19  N   UNL     1       2.960   3.342  19.466  0.00  0.00    +0.000 NA
ATOM     20  C   UNL     1       2.406   2.082  20.025  0.00  0.00    +0.000 C 
ATOM     21  C   UNL     1       1.478   2.519  21.141  0.00  0.00    +0.000 C 
ATOM     22  C   UNL     1       2.174   3.730  21.726  0.00  0.00    +0.000 C 
ATOM     23  C   UNL     1       2.942   4.355  20.566  0.00  0.00    +0.000 C 
ENDBRANCH  16  19
ENDBRANCH   5  16
TORSDOF 6
ENDMDL
MODEL 8
REMARK VINA RESULT:      -7.6      1.778      2.188
REMARK  Name = 
REMARK  6 active torsions:
REMARK  status: ('A' for Active; 'I' for Inactive)
REMARK    1  A    between atoms: S_2  and  N_4
REMARK    2  A    between atoms: S_2  and  C_9
REMARK    3  A    between atoms: N_4  and  C_5
REMARK    4  A    between atoms: C_5  and  C_6
REMARK    5  A    between atoms: C_13  and  S_14
REMARK    6  A    between atoms: S_14  and  N_17
REMARK                            x       y       z     vdW  Elec       q    Type
REMARK                         _______ _______ _______ _____ _____    ______ ____
ROOT
ATOM      1  C   UNL     1       5.073   5.794  17.485  0.00  0.00    +0.000 A 
ATOM      2  C   UNL     1       4.726   7.042  16.953  0.00  0.00    +0.000 A 
ATOM      3  C   UNL     1       3.565   7.686  17.402  0.00  0.00    +0.000 A 
ATOM      4  C   UNL     1       2.774   7.100  18.394  0.00  0.00    +0.000 A 
ATOM      5  C   UNL     1       3.136   5.854  18.916  0.00  0.00    +0.000 A 
ATOM      6  C   UNL     1       4.260   5.173  18.439  0.00  0.00    +0.000 A 
ENDROOT
BRANCH   1   8
ATOM      7  O   UNL     1       7.122   4.388  18.323  0.00  0.00    +0.000 OA
ATOM      8  S   UNL     1       6.682   5.117  17.155  0.00  0.00    +0.000 S 
ATOM      9  O   UNL     1       7.464   6.201  16.599  0.00  0.00    +0.000 OA
BRANCH   8  10
ATOM     10  N   UNL     1       6.452   4.027  15.893  0.00  0.00    +0.000 NA
ATOM     11  H   UNL     1       5.749   3.341  16.174  0.00  0.00    +0.000 HD
BRANCH  10  12
ATOM     12  C   UNL     1       6.260   4.600  14.560  0.00  0.00    +0.000 C 
BRANCH  12  13
ATOM     13  C   UNL     1       6.202   3.487  13.556  0.00  0.00    +0.000 C 
ATOM     14  C   UNL     1       5.243   3.520  12.388  0.00  0.00    +0.000 C 
ATOM     15  C   UNL     1       6.715   3.715  12.155  0.00  0.00    +0.000 C 
ENDBRANCH  12  13
ENDBRANCH  10  12
ENDBRANCH   8  10
ENDBRANCH   1   8
BRANCH   5  16
ATOM     16  S   UNL     1       2.228   5.191  20.294  0.00  0.00    +0.000 S 
ATOM     17  O   UNL     1       3.175   4.510  21.150  0.00  0.00    +0.000 OA
ATOM     18  O   UNL     1       1.367   6.235  20.806  0.00  0.00    +0.000 OA
BRANCH  16  19
ATOM     19  N   UNL     1       1.222   4.014  19.566  0.00  0.00    +0.000 NA
ATOM     20  C   UNL     1       1.239   2.649  20.153  0.00  0.00    +0.000 C 
ATOM     21  C   UNL     1       2.120   1.832  19.228  0.00  0.00    +0.000 C 
ATOM     22  C   UNL     1       1.818   2.401  17.857  0.00  0.00    +0.000 C 
ATOM     23  C   UNL     1       1.456   3.863  18.097  0.00  0.00    +0.000 C 
ENDBRANCH  16  19
ENDBRANCH   5  16
TORSDOF 6
ENDMDL
MODEL 9
REMARK VINA RESULT:      -7.5      2.334      3.710
REMARK  Name = 
REMARK  6 active torsions:
REMARK  status: ('A' for Active; 'I' for Inactive)
REMARK    1  A    between atoms: S_2  and  N_4
REMARK    2  A    between atoms: S_2  and  C_9
REMARK    3  A    between atoms: N_4  and  C_5
REMARK    4  A    between atoms: C_5  and  C_6
REMARK    5  A    between atoms: C_13  and  S_14
REMARK    6  A    between atoms: S_14  and  N_17
REMARK                            x       y       z     vdW  Elec       q    Type
REMARK                         _______ _______ _______ _____ _____    ______ ____
ROOT
ATOM      1  C   UNL     1       5.515   5.340  17.562  0.00  0.00    +0.000 A 
ATOM      2  C   UNL     1       4.700   6.477  17.510  0.00  0.00    +0.000 A 
ATOM      3  C   UNL     1       3.308   6.335  17.590  0.00  0.00    +0.000 A 
ATOM      4  C   UNL     1       2.738   5.068  17.747  0.00  0.00    +0.000 A 
ATOM      5  C   UNL     1       3.566   3.943  17.800  0.00  0.00    +0.000 A 
ATOM      6  C   UNL     1       4.953   4.063  17.666  0.00  0.00    +0.000 A 
ENDROOT
BRANCH   1   8
ATOM      7  O   UNL     1       7.932   4.452  17.068  0.00  0.00    +0.000 OA
ATOM      8  S   UNL     1       7.269   5.527  17.771  0.00  0.00    +0.000 S 
ATOM      9  O   UNL     1       7.480   5.751  19.184  0.00  0.00    +0.000 OA
BRANCH   8  10
ATOM     10  N   UNL     1       7.650   6.982  17.015  0.00  0.00    +0.000 NA
ATOM     11  H   UNL     1       7.284   6.965  16.062  0.00  0.00    +0.000 HD
BRANCH  10  12
ATOM     12  C   UNL     1       7.363   8.204  17.767  0.00  0.00    +0.000 C 
BRANCH  12  13
ATOM     13  C   UNL     1       8.604   9.045  17.819  0.00  0.00    +0.000 C 
ATOM     14  C   UNL     1       8.539  10.547  17.985  0.00  0.00    +0.000 C 
ATOM     15  C   UNL     1       9.019   9.688  19.120  0.00  0.00    +0.000 C 
ENDBRANCH  12  13
ENDBRANCH  10  12
ENDBRANCH   8  10
ENDBRANCH   1   8
BRANCH   5  16
ATOM     16  S   UNL     1       2.855   2.355  18.172  0.00  0.00    +0.000 S 
ATOM     17  O   UNL     1       1.606   2.260  17.447  0.00  0.00    +0.000 OA
ATOM     18  O   UNL     1       3.889   1.355  18.022  0.00  0.00    +0.000 OA
BRANCH  16  19
ATOM     19  N   UNL     1       2.496   2.471  19.841  0.00  0.00    +0.000 NA
ATOM     20  C   UNL     1       1.078   2.704  20.217  0.00  0.00    +0.000 C 
ATOM     21  C   UNL     1       0.993   4.181  20.544  0.00  0.00    +0.000 C 
ATOM     22  C   UNL     1       2.331   4.478  21.189  0.00  0.00    +0.000 C 
ATOM     23  C   UNL     1       3.314   3.502  20.550  0.00  0.00    +0.000 C 
ENDBRANCH  16  19
ENDBRANCH   5  16
TORSDOF 6
ENDMDL
