MODEL 1
REMARK VINA RESULT:      -8.0      0.000      0.000
REMARK  Name = 
REMARK  6 active torsions:
REMARK  status: ('A' for Active; 'I' for Inactive)
REMARK    1  A    between atoms: C_4  and  O_5
REMARK    2  A    between atoms: C_4  and  C_6
REMARK    3  A    between atoms: C_11  and  C_12
REMARK    4  A    between atoms: N_15  and  C_16
REMARK    5  A    between atoms: C_19  and  O_20
REMARK    6  A    between atoms: O_20  and  C_21
REMARK                            x       y       z     vdW  Elec       q    Type
REMARK                         _______ _______ _______ _____ _____    ______ ____
ROOT
ATOM      1  O   UNL     1       5.186   0.990  20.182  0.00  0.00    +0.000 OA
ATOM      2  C   UNL     1       4.606   1.995  19.774  0.00  0.00    +0.000 C 
ATOM      3  C   UNL     1       3.117   1.951  19.445  0.00  0.00    +0.000 C 
ATOM      4  C   UNL     1       2.357   3.294  19.295  0.00  0.00    +0.000 C 
ATOM      5  C   UNL     1       3.316   4.426  19.085  0.00  0.00    +0.000 A 
ATOM      6  C   UNL     1       3.118   5.818  18.850  0.00  0.00    +0.000 A 
ATOM      7  N   UNL     1       4.289   6.469  18.754  0.00  0.00    +0.000 NA
ATOM      8  N   UNL     1       5.217   5.510  18.965  0.00  0.00    +0.000 N 
ATOM      9  C   UNL     1       4.669   4.286  19.193  0.00  0.00    +0.000 A 
ATOM     10  N   UNL     1       5.322   3.138  19.532  0.00  0.00    +0.000 N 
ATOM     11  H   UNL     1       6.196   5.779  18.977  0.00  0.00    +0.000 HD
ATOM     12  H   UNL     1       6.320   3.102  19.698  0.00  0.00    +0.000 HD
ENDROOT
BRANCH   6  13
ATOM     13  C   UNL     1       1.798   6.547  18.902  0.00  0.00    +0.000 C 
ATOM     14  C   UNL     1       1.597   7.656  17.855  0.00  0.00    +0.000 C 
ATOM     15  C   UNL     1       1.775   9.094  18.347  0.00  0.00    +0.000 C 
ATOM     16  N   UNL     1       1.223   9.221  19.691  0.00  0.00    +0.000 N 
ATOM     17  C   UNL     1       1.855   8.356  20.677  0.00  0.00    +0.000 C 
ATOM     18  C   UNL     1       1.451   6.933  20.352  0.00  0.00    +0.000 C 
BRANCH  16  19
ATOM     19  C   UNL     1       0.320  10.189  20.074  0.00  0.00    +0.000 A 
ATOM     20  C   UNL     1       0.411  10.817  21.326  0.00  0.00    +0.000 A 
ATOM     21  C   UNL     1      -0.479  11.824  21.717  0.00  0.00    +0.000 A 
ATOM     22  C   UNL     1      -1.488  12.247  20.855  0.00  0.00    +0.000 A 
ATOM     23  C   UNL     1      -1.638  11.600  19.635  0.00  0.00    +0.000 A 
ATOM     24  C   UNL     1      -0.737  10.594  19.251  0.00  0.00    +0.000 A 
BRANCH  22  25
ATOM     25  O   UNL     1      -2.281  13.239  21.340  0.00  0.00    +0.000 OA
BRANCH  25  26
ATOM     26  C   UNL     1      -3.409  12.901  22.133  0.00  0.00    +0.000 C 
ATOM     27  F   UNL     1      -3.163  12.007  23.113  0.00  0.00    +0.000 F 
ATOM     28  F   UNL     1      -3.911  14.026  22.690  0.00  0.00    +0.000 F 
ATOM     29  F   UNL     1      -4.359  12.375  21.326  0.00  0.00    +0.000 F 
ENDBRANCH  25  26
ENDBRANCH  22  25
ENDBRANCH  16  19
ENDBRANCH   6  13
BRANCH   4  30
ATOM     30  C   UNL     1       1.402   3.540  20.520  0.00  0.00    +0.000 C 
ATOM     31  F   UNL     1       1.956   4.298  21.490  0.00  0.00    +0.000 F 
ATOM     32  F   UNL     1       0.232   4.126  20.190  0.00  0.00    +0.000 F 
ATOM     33  F   UNL     1       1.094   2.347  21.103  0.00  0.00    +0.000 F 
ENDBRANCH   4  30
BRANCH   4  34
ATOM     34  O   UNL     1       1.591   3.162  18.060  0.00  0.00    +0.000 OA
ATOM     35  H   UNL     1       1.626   4.016  17.591  0.00  0.00    +0.000 HD
ENDBRANCH   4  34
TORSDOF 6
ENDMDL
MODEL 2
REMARK VINA RESULT:      -7.9      0.686      1.068
REMARK  Name = 
REMARK  6 active torsions:
REMARK  status: ('A' for Active; 'I' for Inactive)
REMARK    1  A    between atoms: C_4  and  O_5
REMARK    2  A    between atoms: C_4  and  C_6
REMARK    3  A    between atoms: C_11  and  C_12
REMARK    4  A    between atoms: N_15  and  C_16
REMARK    5  A    between atoms: C_19  and  O_20
REMARK    6  A    between atoms: O_20  and  C_21
REMARK                            x       y       z     vdW  Elec       q    Type
REMARK                         _______ _______ _______ _____ _____    ______ ____
ROOT
ATOM      1  O   UNL     1       5.206   1.028  20.344  0.00  0.00    +0.000 OA
ATOM      2  C   UNL     1       4.629   2.018  19.896  0.00  0.00    +0.000 C 
ATOM      3  C   UNL     1       3.139   1.965  19.569  0.00  0.00    +0.000 C 
ATOM      4  C   UNL     1       2.383   3.303  19.364  0.00  0.00    +0.000 C 
ATOM      5  C   UNL     1       3.345   4.423  19.110  0.00  0.00    +0.000 A 
ATOM      6  C   UNL     1       3.151   5.805  18.819  0.00  0.00    +0.000 A 
ATOM      7  N   UNL     1       4.324   6.448  18.697  0.00  0.00    +0.000 NA
ATOM      8  N   UNL     1       5.250   5.496  18.946  0.00  0.00    +0.000 N 
ATOM      9  C   UNL     1       4.698   4.283  19.223  0.00  0.00    +0.000 A 
ATOM     10  N   UNL     1       5.348   3.148  19.608  0.00  0.00    +0.000 N 
ATOM     11  H   UNL     1       6.229   5.762  18.948  0.00  0.00    +0.000 HD
ATOM     12  H   UNL     1       6.346   3.117  19.776  0.00  0.00    +0.000 HD
ENDROOT
BRANCH   6  13
ATOM     13  C   UNL     1       1.833   6.540  18.841  0.00  0.00    +0.000 C 
ATOM     14  C   UNL     1       1.594   7.533  17.691  0.00  0.00    +0.000 C 
ATOM     15  C   UNL     1       1.789   9.014  18.022  0.00  0.00    +0.000 C 
ATOM     16  N   UNL     1       1.285   9.283  19.364  0.00  0.00    +0.000 N 
ATOM     17  C   UNL     1       1.953   8.525  20.413  0.00  0.00    +0.000 C 
ATOM     18  C   UNL     1       1.539   7.077  20.254  0.00  0.00    +0.000 C 
BRANCH  16  19
ATOM     19  C   UNL     1       0.396  10.289  19.676  0.00  0.00    +0.000 A 
ATOM     20  C   UNL     1      -0.024  11.217  18.710  0.00  0.00    +0.000 A 
ATOM     21  C   UNL     1      -0.949  12.225  19.002  0.00  0.00    +0.000 A 
ATOM     22  C   UNL     1      -1.500  12.328  20.277  0.00  0.00    +0.000 A 
ATOM     23  C   UNL     1      -1.056  11.461  21.268  0.00  0.00    +0.000 A 
ATOM     24  C   UNL     1      -0.130  10.451  20.962  0.00  0.00    +0.000 A 
BRANCH  22  25
ATOM     25  O   UNL     1      -2.397  13.337  20.437  0.00  0.00    +0.000 OA
BRANCH  25  26
ATOM     26  C   UNL     1      -3.769  13.022  20.627  0.00  0.00    +0.000 C 
ATOM     27  F   UNL     1      -4.066  12.500  21.836  0.00  0.00    +0.000 F 
ATOM     28  F   UNL     1      -4.508  14.139  20.446  0.00  0.00    +0.000 F 
ATOM     29  F   UNL     1      -4.137  12.121  19.688  0.00  0.00    +0.000 F 
ENDBRANCH  25  26
ENDBRANCH  22  25
ENDBRANCH  16  19
ENDBRANCH   6  13
BRANCH   4  30
ATOM     30  C   UNL     1       1.429   3.600  20.578  0.00  0.00    +0.000 C 
ATOM     31  F   UNL     1       1.991   4.382  21.525  0.00  0.00    +0.000 F 
ATOM     32  F   UNL     1       0.268   4.193  20.227  0.00  0.00    +0.000 F 
ATOM     33  F   UNL     1       1.102   2.431  21.197  0.00  0.00    +0.000 F 
ENDBRANCH   4  30
BRANCH   4  34
ATOM     34  O   UNL     1       1.617   3.124  18.136  0.00  0.00    +0.000 OA
ATOM     35  H   UNL     1       1.319   2.197  18.099  0.00  0.00    +0.000 HD
ENDBRANCH   4  34
TORSDOF 6
ENDMDL
MODEL 3
REMARK VINA RESULT:      -7.9      0.341      1.286
REMARK  Name = 
REMARK  6 active torsions:
REMARK  status: ('A' for Active; 'I' for Inactive)
REMARK    1  A    between atoms: C_4  and  O_5
REMARK    2  A    between atoms: C_4  and  C_6
REMARK    3  A    between atoms: C_11  and  C_12
REMARK    4  A    between atoms: N_15  and  C_16
REMARK    5  A    between atoms: C_19  and  O_20
REMARK    6  A    between atoms: O_20  and  C_21
REMARK                            x       y       z     vdW  Elec       q    Type
REMARK                         _______ _______ _______ _____ _____    ______ ____
ROOT
ATOM      1  O   UNL     1       5.199   1.054  20.371  0.00  0.00    +0.000 OA
ATOM      2  C   UNL     1       4.623   2.042  19.917  0.00  0.00    +0.000 C 
ATOM      3  C   UNL     1       3.128   1.996  19.611  0.00  0.00    +0.000 C 
ATOM      4  C   UNL     1       2.379   3.336  19.398  0.00  0.00    +0.000 C 
ATOM      5  C   UNL     1       3.346   4.446  19.115  0.00  0.00    +0.000 A 
ATOM      6  C   UNL     1       3.158   5.824  18.808  0.00  0.00    +0.000 A 
ATOM      7  N   UNL     1       4.333   6.457  18.661  0.00  0.00    +0.000 NA
ATOM      8  N   UNL     1       5.255   5.502  18.910  0.00  0.00    +0.000 N 
ATOM      9  C   UNL     1       4.699   4.297  19.212  0.00  0.00    +0.000 A 
ATOM     10  N   UNL     1       5.346   3.163  19.604  0.00  0.00    +0.000 N 
ATOM     11  H   UNL     1       6.237   5.761  18.895  0.00  0.00    +0.000 HD
ATOM     12  H   UNL     1       6.346   3.126  19.758  0.00  0.00    +0.000 HD
ENDROOT
BRANCH   6  13
ATOM     13  C   UNL     1       1.845   6.569  18.838  0.00  0.00    +0.000 C 
ATOM     14  C   UNL     1       1.621   7.588  17.708  0.00  0.00    +0.000 C 
ATOM     15  C   UNL     1       1.825   9.061  18.073  0.00  0.00    +0.000 C 
ATOM     16  N   UNL     1       1.315   9.305  19.418  0.00  0.00    +0.000 N 
ATOM     17  C   UNL     1       1.971   8.518  20.453  0.00  0.00    +0.000 C 
ATOM     18  C   UNL     1       1.546   7.078  20.261  0.00  0.00    +0.000 C 
BRANCH  16  19
ATOM     19  C   UNL     1       0.432  10.310  19.745  0.00  0.00    +0.000 A 
ATOM     20  C   UNL     1      -0.811  10.428  19.103  0.00  0.00    +0.000 A 
ATOM     21  C   UNL     1      -1.731  11.425  19.446  0.00  0.00    +0.000 A 
ATOM     22  C   UNL     1      -1.441  12.334  20.460  0.00  0.00    +0.000 A 
ATOM     23  C   UNL     1      -0.194  12.278  21.070  0.00  0.00    +0.000 A 
ATOM     24  C   UNL     1       0.721  11.271  20.720  0.00  0.00    +0.000 A 
BRANCH  22  25
ATOM     25  O   UNL     1      -2.417  13.246  20.713  0.00  0.00    +0.000 OA
BRANCH  25  26
ATOM     26  C   UNL     1      -3.434  12.933  21.652  0.00  0.00    +0.000 C 
ATOM     27  F   UNL     1      -3.899  13.988  22.354  0.00  0.00    +0.000 F 
ATOM     28  F   UNL     1      -4.470  12.353  21.007  0.00  0.00    +0.000 F 
ATOM     29  F   UNL     1      -2.940  12.037  22.538  0.00  0.00    +0.000 F 
ENDBRANCH  25  26
ENDBRANCH  22  25
ENDBRANCH  16  19
ENDBRANCH   6  13
BRANCH   4  30
ATOM     30  C   UNL     1       1.444   3.657  20.621  0.00  0.00    +0.000 C 
ATOM     31  F   UNL     1       1.047   2.558  21.297  0.00  0.00    +0.000 F 
ATOM     32  F   UNL     1       1.998   4.490  21.527  0.00  0.00    +0.000 F 
ATOM     33  F   UNL     1       0.306   4.260  20.178  0.00  0.00    +0.000 F 
ENDBRANCH   4  30
BRANCH   4  34
ATOM     34  O   UNL     1       1.595   3.146  18.183  0.00  0.00    +0.000 OA
ATOM     35  H   UNL     1       1.180   2.265  18.227  0.00  0.00    +0.000 HD
ENDBRANCH   4  34
TORSDOF 6
ENDMDL
MODEL 4
REMARK VINA RESULT:      -7.7      0.371      1.031
REMARK  Name = 
REMARK  6 active torsions:
REMARK  status: ('A' for Active; 'I' for Inactive)
REMARK    1  A    between atoms: C_4  and  O_5
REMARK    2  A    between atoms: C_4  and  C_6
REMARK    3  A    between atoms: C_11  and  C_12
REMARK    4  A    between atoms: N_15  and  C_16
REMARK    5  A    between atoms: C_19  and  O_20
REMARK    6  A    between atoms: O_20  and  C_21
REMARK                            x       y       z     vdW  Elec       q    Type
REMARK                         _______ _______ _______ _____ _____    ______ ____
ROOT
ATOM      1  O   UNL     1       5.233   1.127  20.302  0.00  0.00    +0.000 OA
ATOM      2  C   UNL     1       4.643   2.119  19.876  0.00  0.00    +0.000 C 
ATOM      3  C   UNL     1       3.156   2.052  19.541  0.00  0.00    +0.000 C 
ATOM      4  C   UNL     1       2.381   3.384  19.366  0.00  0.00    +0.000 C 
ATOM      5  C   UNL     1       3.328   4.524  19.144  0.00  0.00    +0.000 A 
ATOM      6  C   UNL     1       3.114   5.909  18.887  0.00  0.00    +0.000 A 
ATOM      7  N   UNL     1       4.278   6.573  18.787  0.00  0.00    +0.000 NA
ATOM      8  N   UNL     1       5.217   5.628  19.017  0.00  0.00    +0.000 N 
ATOM      9  C   UNL     1       4.682   4.401  19.261  0.00  0.00    +0.000 A 
ATOM     10  N   UNL     1       5.347   3.267  19.621  0.00  0.00    +0.000 N 
ATOM     11  H   UNL     1       6.192   5.909  19.030  0.00  0.00    +0.000 HD
ATOM     12  H   UNL     1       6.345   3.246  19.792  0.00  0.00    +0.000 HD
ENDROOT
BRANCH   6  13
ATOM     13  C   UNL     1       1.786   6.624  18.921  0.00  0.00    +0.000 C 
ATOM     14  C   UNL     1       1.547   7.660  17.810  0.00  0.00    +0.000 C 
ATOM     15  C   UNL     1       1.715   9.129  18.205  0.00  0.00    +0.000 C 
ATOM     16  N   UNL     1       1.190   9.335  19.550  0.00  0.00    +0.000 N 
ATOM     17  C   UNL     1       1.855   8.543  20.575  0.00  0.00    +0.000 C 
ATOM     18  C   UNL     1       1.464   7.098  20.351  0.00  0.00    +0.000 C 
BRANCH  16  19
ATOM     19  C   UNL     1       0.282  10.314  19.890  0.00  0.00    +0.000 A 
ATOM     20  C   UNL     1       0.227  10.839  21.191  0.00  0.00    +0.000 A 
ATOM     21  C   UNL     1      -0.668  11.855  21.544  0.00  0.00    +0.000 A 
ATOM     22  C   UNL     1      -1.534  12.393  20.595  0.00  0.00    +0.000 A 
ATOM     23  C   UNL     1      -1.544  11.849  19.316  0.00  0.00    +0.000 A 
ATOM     24  C   UNL     1      -0.639  10.832  18.972  0.00  0.00    +0.000 A 
BRANCH  22  25
ATOM     25  O   UNL     1      -2.346  13.382  21.052  0.00  0.00    +0.000 OA
BRANCH  25  26
ATOM     26  C   UNL     1      -3.676  13.067  21.437  0.00  0.00    +0.000 C 
ATOM     27  F   UNL     1      -4.461  14.137  21.685  0.00  0.00    +0.000 F 
ATOM     28  F   UNL     1      -4.253  12.322  20.469  0.00  0.00    +0.000 F 
ATOM     29  F   UNL     1      -3.630  12.321  22.566  0.00  0.00    +0.000 F 
ENDBRANCH  25  26
ENDBRANCH  22  25
ENDBRANCH  16  19
ENDBRANCH   6  13
BRANCH   4  30
ATOM     30  C   UNL     1       1.417   3.636  20.582  0.00  0.00    +0.000 C 
ATOM     31  F   UNL     1       0.282   4.284  20.244  0.00  0.00    +0.000 F 
ATOM     32  F   UNL     1       1.043   2.510  21.224  0.00  0.00    +0.000 F 
ATOM     33  F   UNL     1       2.042   4.424  21.502  0.00  0.00    +0.000 F 
ENDBRANCH   4  30
BRANCH   4  34
ATOM     34  O   UNL     1       1.624   3.224  18.130  0.00  0.00    +0.000 OA
ATOM     35  H   UNL     1       0.697   3.468  18.310  0.00  0.00    +0.000 HD
ENDBRANCH   4  34
TORSDOF 6
ENDMDL
MODEL 5
REMARK VINA RESULT:      -7.6      1.044      1.501
REMARK  Name = 
REMARK  6 active torsions:
REMARK  status: ('A' for Active; 'I' for Inactive)
REMARK    1  A    between atoms: C_4  and  O_5
REMARK    2  A    between atoms: C_4  and  C_6
REMARK    3  A    between atoms: C_11  and  C_12
REMARK    4  A    between atoms: N_15  and  C_16
REMARK    5  A    between atoms: C_19  and  O_20
REMARK    6  A    between atoms: O_20  and  C_21
REMARK                            x       y       z     vdW  Elec       q    Type
REMARK                         _______ _______ _______ _____ _____    ______ ____
ROOT
ATOM      1  O   UNL     1       5.220   1.078  20.398  0.00  0.00    +0.000 OA
ATOM      2  C   UNL     1       4.635   2.060  19.942  0.00  0.00    +0.000 C 
ATOM      3  C   UNL     1       3.139   2.004  19.645  0.00  0.00    +0.000 C 
ATOM      4  C   UNL     1       2.381   3.339  19.430  0.00  0.00    +0.000 C 
ATOM      5  C   UNL     1       3.340   4.452  19.134  0.00  0.00    +0.000 A 
ATOM      6  C   UNL     1       3.142   5.828  18.821  0.00  0.00    +0.000 A 
ATOM      7  N   UNL     1       4.314   6.466  18.663  0.00  0.00    +0.000 NA
ATOM      8  N   UNL     1       5.243   5.517  18.912  0.00  0.00    +0.000 N 
ATOM      9  C   UNL     1       4.695   4.312  19.224  0.00  0.00    +0.000 A 
ATOM     10  N   UNL     1       5.350   3.183  19.618  0.00  0.00    +0.000 N 
ATOM     11  H   UNL     1       6.223   5.782  18.889  0.00  0.00    +0.000 HD
ATOM     12  H   UNL     1       6.351   3.153  19.767  0.00  0.00    +0.000 HD
ENDROOT
BRANCH   6  13
ATOM     13  C   UNL     1       1.826   6.565  18.854  0.00  0.00    +0.000 C 
ATOM     14  C   UNL     1       1.615   7.622  17.756  0.00  0.00    +0.000 C 
ATOM     15  C   UNL     1       1.807   9.082  18.174  0.00  0.00    +0.000 C 
ATOM     16  N   UNL     1       1.273   9.278  19.518  0.00  0.00    +0.000 N 
ATOM     17  C   UNL     1       1.916   8.459  20.537  0.00  0.00    +0.000 C 
ATOM     18  C   UNL     1       1.501   7.024  20.288  0.00  0.00    +0.000 C 
BRANCH  16  19
ATOM     19  C   UNL     1       0.380  10.268  19.865  0.00  0.00    +0.000 A 
ATOM     20  C   UNL     1      -0.587  10.729  18.957  0.00  0.00    +0.000 A 
ATOM     21  C   UNL     1      -1.521  11.712  19.305  0.00  0.00    +0.000 A 
ATOM     22  C   UNL     1      -1.526  12.258  20.586  0.00  0.00    +0.000 A 
ATOM     23  C   UNL     1      -0.541  11.864  21.483  0.00  0.00    +0.000 A 
ATOM     24  C   UNL     1       0.389  10.875  21.125  0.00  0.00    +0.000 A 
BRANCH  22  25
ATOM     25  O   UNL     1      -2.487  13.193  20.809  0.00  0.00    +0.000 OA
BRANCH  25  26
ATOM     26  C   UNL     1      -2.120  14.563  20.884  0.00  0.00    +0.000 C 
ATOM     27  F   UNL     1      -1.084  14.914  20.093  0.00  0.00    +0.000 F 
ATOM     28  F   UNL     1      -3.188  15.326  20.563  0.00  0.00    +0.000 F 
ATOM     29  F   UNL     1      -1.775  14.845  22.162  0.00  0.00    +0.000 F 
ENDBRANCH  25  26
ENDBRANCH  22  25
ENDBRANCH  16  19
ENDBRANCH   6  13
BRANCH   4  30
ATOM     30  C   UNL     1       1.452   3.661  20.656  0.00  0.00    +0.000 C 
ATOM     31  F   UNL     1       2.040   4.444  21.586  0.00  0.00    +0.000 F 
ATOM     32  F   UNL     1       0.293   4.266  20.318  0.00  0.00    +0.000 F 
ATOM     33  F   UNL     1       1.120   2.503  21.292  0.00  0.00    +0.000 F 
ENDBRANCH   4  30
BRANCH   4  34
ATOM     34  O   UNL     1       1.592   3.137  18.220  0.00  0.00    +0.000 OA
ATOM     35  H   UNL     1       1.997   3.661  17.505  0.00  0.00    +0.000 HD
ENDBRANCH   4  34
TORSDOF 6
ENDMDL
MODEL 6
REMARK VINA RESULT:      -7.6      4.329     10.107
REMARK  Name = 
REMARK  6 active torsions:
REMARK  status: ('A' for Active; 'I' for Inactive)
REMARK    1  A    between atoms: C_4  and  O_5
REMARK    2  A    between atoms: C_4  and  C_6
REMARK    3  A    between atoms: C_11  and  C_12
REMARK    4  A    between atoms: N_15  and  C_16
REMARK    5  A    between atoms: C_19  and  O_20
REMARK    6  A    between atoms: O_20  and  C_21
REMARK                            x       y       z     vdW  Elec       q    Type
REMARK                         _______ _______ _______ _____ _____    ______ ____
ROOT
ATOM      1  O   UNL     1       0.811  18.600  18.398  0.00  0.00    +0.000 OA
ATOM      2  C   UNL     1       0.905  17.374  18.429  0.00  0.00    +0.000 C 
ATOM      3  C   UNL     1       2.250  16.693  18.190  0.00  0.00    +0.000 C 
ATOM      4  C   UNL     1       2.403  15.204  18.597  0.00  0.00    +0.000 C 
ATOM      5  C   UNL     1       1.061  14.562  18.775  0.00  0.00    +0.000 A 
ATOM      6  C   UNL     1       0.673  13.228  19.091  0.00  0.00    +0.000 A 
ATOM      7  N   UNL     1      -0.663  13.116  19.182  0.00  0.00    +0.000 NA
ATOM      8  N   UNL     1      -1.114  14.371  18.966  0.00  0.00    +0.000 N 
ATOM      9  C   UNL     1      -0.110  15.262  18.748  0.00  0.00    +0.000 A 
ATOM     10  N   UNL     1      -0.222  16.613  18.595  0.00  0.00    +0.000 N 
ATOM     11  H   UNL     1      -2.113  14.543  19.024  0.00  0.00    +0.000 HD
ATOM     12  H   UNL     1      -1.103  17.104  18.680  0.00  0.00    +0.000 HD
ENDROOT
BRANCH   6  13
ATOM     13  C   UNL     1       1.599  12.103  19.485  0.00  0.00    +0.000 C 
ATOM     14  C   UNL     1       2.367  11.427  18.337  0.00  0.00    +0.000 C 
ATOM     15  C   UNL     1       1.830  10.072  17.867  0.00  0.00    +0.000 C 
ATOM     16  N   UNL     1       1.370   9.305  19.018  0.00  0.00    +0.000 N 
ATOM     17  C   UNL     1       0.300   9.945  19.770  0.00  0.00    +0.000 C 
ATOM     18  C   UNL     1       0.899  11.147  20.469  0.00  0.00    +0.000 C 
BRANCH  16  19
ATOM     19  C   UNL     1       1.751   8.009  19.293  0.00  0.00    +0.000 A 
ATOM     20  C   UNL     1       1.500   7.425  20.545  0.00  0.00    +0.000 A 
ATOM     21  C   UNL     1       1.853   6.101  20.829  0.00  0.00    +0.000 A 
ATOM     22  C   UNL     1       2.459   5.308  19.858  0.00  0.00    +0.000 A 
ATOM     23  C   UNL     1       2.774   5.881  18.631  0.00  0.00    +0.000 A 
ATOM     24  C   UNL     1       2.412   7.209  18.355  0.00  0.00    +0.000 A 
BRANCH  22  25
ATOM     25  O   UNL     1       2.743   4.037  20.245  0.00  0.00    +0.000 OA
BRANCH  25  26
ATOM     26  C   UNL     1       1.696   3.079  20.303  0.00  0.00    +0.000 C 
ATOM     27  F   UNL     1       1.152   2.910  21.526  0.00  0.00    +0.000 F 
ATOM     28  F   UNL     1       0.719   3.438  19.441  0.00  0.00    +0.000 F 
ATOM     29  F   UNL     1       2.187   1.883  19.902  0.00  0.00    +0.000 F 
ENDBRANCH  25  26
ENDBRANCH  22  25
ENDBRANCH  16  19
ENDBRANCH   6  13
BRANCH   4  30
ATOM     30  C   UNL     1       3.308  15.061  19.874  0.00  0.00    +0.000 C 
ATOM     31  F   UNL     1       2.605  14.879  21.013  0.00  0.00    +0.000 F 
ATOM     32  F   UNL     1       4.197  14.049  19.802  0.00  0.00    +0.000 F 
ATOM     33  F   UNL     1       4.027  16.205  20.053  0.00  0.00    +0.000 F 
ENDBRANCH   4  30
BRANCH   4  34
ATOM     34  O   UNL     1       3.025  14.558  17.447  0.00  0.00    +0.000 OA
ATOM     35  H   UNL     1       3.992  14.639  17.542  0.00  0.00    +0.000 HD
ENDBRANCH   4  34
TORSDOF 6
ENDMDL
MODEL 7
REMARK VINA RESULT:      -7.6      1.196      1.490
REMARK  Name = 
REMARK  6 active torsions:
REMARK  status: ('A' for Active; 'I' for Inactive)
REMARK    1  A    between atoms: C_4  and  O_5
REMARK    2  A    between atoms: C_4  and  C_6
REMARK    3  A    between atoms: C_11  and  C_12
REMARK    4  A    between atoms: N_15  and  C_16
REMARK    5  A    between atoms: C_19  and  O_20
REMARK    6  A    between atoms: O_20  and  C_21
REMARK                            x       y       z     vdW  Elec       q    Type
REMARK                         _______ _______ _______ _____ _____    ______ ____
ROOT
ATOM      1  O   UNL     1       5.237   1.063  20.439  0.00  0.00    +0.000 OA
ATOM      2  C   UNL     1       4.643   2.037  19.980  0.00  0.00    +0.000 C 
ATOM      3  C   UNL     1       3.144   1.970  19.699  0.00  0.00    +0.000 C 
ATOM      4  C   UNL     1       2.377   3.299  19.478  0.00  0.00    +0.000 C 
ATOM      5  C   UNL     1       3.326   4.414  19.162  0.00  0.00    +0.000 A 
ATOM      6  C   UNL     1       3.118   5.786  18.837  0.00  0.00    +0.000 A 
ATOM      7  N   UNL     1       4.284   6.429  18.661  0.00  0.00    +0.000 NA
ATOM      8  N   UNL     1       5.220   5.488  18.910  0.00  0.00    +0.000 N 
ATOM      9  C   UNL     1       4.682   4.282  19.239  0.00  0.00    +0.000 A 
ATOM     10  N   UNL     1       5.348   3.161  19.638  0.00  0.00    +0.000 N 
ATOM     11  H   UNL     1       6.199   5.757  18.875  0.00  0.00    +0.000 HD
ATOM     12  H   UNL     1       6.351   3.138  19.776  0.00  0.00    +0.000 HD
ENDROOT
BRANCH   6  13
ATOM     13  C   UNL     1       1.798   6.516  18.876  0.00  0.00    +0.000 C 
ATOM     14  C   UNL     1       1.558   7.540  17.754  0.00  0.00    +0.000 C 
ATOM     15  C   UNL     1       1.748   9.013  18.126  0.00  0.00    +0.000 C 
ATOM     16  N   UNL     1       1.242   9.243  19.474  0.00  0.00    +0.000 N 
ATOM     17  C   UNL     1       1.910   8.458  20.503  0.00  0.00    +0.000 C 
ATOM     18  C   UNL     1       1.500   7.014  20.303  0.00  0.00    +0.000 C 
BRANCH  16  19
ATOM     19  C   UNL     1       0.349  10.238  19.811  0.00  0.00    +0.000 A 
ATOM     20  C   UNL     1       0.504  10.989  20.987  0.00  0.00    +0.000 A 
ATOM     21  C   UNL     1      -0.376  12.023  21.328  0.00  0.00    +0.000 A 
ATOM     22  C   UNL     1      -1.439  12.350  20.489  0.00  0.00    +0.000 A 
ATOM     23  C   UNL     1      -1.651  11.582  19.351  0.00  0.00    +0.000 A 
ATOM     24  C   UNL     1      -0.759  10.549  19.017  0.00  0.00    +0.000 A 
BRANCH  22  25
ATOM     25  O   UNL     1      -2.215  13.379  20.918  0.00  0.00    +0.000 OA
BRANCH  25  26
ATOM     26  C   UNL     1      -1.767  14.713  20.731  0.00  0.00    +0.000 C 
ATOM     27  F   UNL     1      -1.051  15.217  21.758  0.00  0.00    +0.000 F 
ATOM     28  F   UNL     1      -1.016  14.774  19.609  0.00  0.00    +0.000 F 
ATOM     29  F   UNL     1      -2.848  15.508  20.554  0.00  0.00    +0.000 F 
ENDBRANCH  25  26
ENDBRANCH  22  25
ENDBRANCH  16  19
ENDBRANCH   6  13
BRANCH   4  30
ATOM     30  C   UNL     1       1.458   3.628  20.710  0.00  0.00    +0.000 C 
ATOM     31  F   UNL     1       1.083   2.535  21.409  0.00  0.00    +0.000 F 
ATOM     32  F   UNL     1       2.018   4.480  21.595  0.00  0.00    +0.000 F 
ATOM     33  F   UNL     1       0.306   4.213  20.277  0.00  0.00    +0.000 F 
ENDBRANCH   4  30
BRANCH   4  34
ATOM     34  O   UNL     1       1.576   3.081  18.279  0.00  0.00    +0.000 OA
ATOM     35  H   UNL     1       2.131   2.618  17.625  0.00  0.00    +0.000 HD
ENDBRANCH   4  34
TORSDOF 6
ENDMDL
MODEL 8
REMARK VINA RESULT:      -7.5      0.989      1.191
REMARK  Name = 
REMARK  6 active torsions:
REMARK  status: ('A' for Active; 'I' for Inactive)
REMARK    1  A    between atoms: C_4  and  O_5
REMARK    2  A    between atoms: C_4  and  C_6
REMARK    3  A    between atoms: C_11  and  C_12
REMARK    4  A    between atoms: N_15  and  C_16
REMARK    5  A    between atoms: C_19  and  O_20
REMARK    6  A    between atoms: O_20  and  C_21
REMARK                            x       y       z     vdW  Elec       q    Type
REMARK                         _______ _______ _______ _____ _____    ______ ____
ROOT
ATOM      1  O   UNL     1       5.233   1.084  20.166  0.00  0.00    +0.000 OA
ATOM      2  C   UNL     1       4.637   2.088  19.777  0.00  0.00    +0.000 C 
ATOM      3  C   UNL     1       3.139   2.036  19.487  0.00  0.00    +0.000 C 
ATOM      4  C   UNL     1       2.368   3.375  19.362  0.00  0.00    +0.000 C 
ATOM      5  C   UNL     1       3.314   4.514  19.132  0.00  0.00    +0.000 A 
ATOM      6  C   UNL     1       3.102   5.905  18.908  0.00  0.00    +0.000 A 
ATOM      7  N   UNL     1       4.266   6.563  18.784  0.00  0.00    +0.000 NA
ATOM      8  N   UNL     1       5.205   5.609  18.966  0.00  0.00    +0.000 N 
ATOM      9  C   UNL     1       4.670   4.381  19.204  0.00  0.00    +0.000 A 
ATOM     10  N   UNL     1       5.339   3.236  19.521  0.00  0.00    +0.000 N 
ATOM     11  H   UNL     1       6.183   5.884  18.953  0.00  0.00    +0.000 HD
ATOM     12  H   UNL     1       6.342   3.206  19.660  0.00  0.00    +0.000 HD
ENDROOT
BRANCH   6  13
ATOM     13  C   UNL     1       1.779   6.626  18.997  0.00  0.00    +0.000 C 
ATOM     14  C   UNL     1       1.562   7.766  17.988  0.00  0.00    +0.000 C 
ATOM     15  C   UNL     1       1.740   9.190  18.523  0.00  0.00    +0.000 C 
ATOM     16  N   UNL     1       1.202   9.272  19.877  0.00  0.00    +0.000 N 
ATOM     17  C   UNL     1       1.849   8.379  20.828  0.00  0.00    +0.000 C 
ATOM     18  C   UNL     1       1.448   6.965  20.463  0.00  0.00    +0.000 C 
BRANCH  16  19
ATOM     19  C   UNL     1       0.300  10.223  20.300  0.00  0.00    +0.000 A 
ATOM     20  C   UNL     1       0.085  10.469  21.665  0.00  0.00    +0.000 A 
ATOM     21  C   UNL     1      -0.805  11.453  22.111  0.00  0.00    +0.000 A 
ATOM     22  C   UNL     1      -1.503  12.238  21.197  0.00  0.00    +0.000 A 
ATOM     23  C   UNL     1      -1.356  11.973  19.840  0.00  0.00    +0.000 A 
ATOM     24  C   UNL     1      -0.458  10.986  19.405  0.00  0.00    +0.000 A 
BRANCH  22  25
ATOM     25  O   UNL     1      -2.327  13.168  21.747  0.00  0.00    +0.000 OA
BRANCH  25  26
ATOM     26  C   UNL     1      -1.764  14.325  22.349  0.00  0.00    +0.000 C 
ATOM     27  F   UNL     1      -2.596  15.385  22.420  0.00  0.00    +0.000 F 
ATOM     28  F   UNL     1      -1.348  14.017  23.598  0.00  0.00    +0.000 F 
ATOM     29  F   UNL     1      -0.681  14.699  21.629  0.00  0.00    +0.000 F 
ENDBRANCH  25  26
ENDBRANCH  22  25
ENDBRANCH  16  19
ENDBRANCH   6  13
BRANCH   4  30
ATOM     30  C   UNL     1       1.444   3.610  20.613  0.00  0.00    +0.000 C 
ATOM     31  F   UNL     1       2.029   4.346  21.582  0.00  0.00    +0.000 F 
ATOM     32  F   UNL     1       0.273   4.215  20.321  0.00  0.00    +0.000 F 
ATOM     33  F   UNL     1       1.136   2.411  21.183  0.00  0.00    +0.000 F 
ENDBRANCH   4  30
BRANCH   4  34
ATOM     34  O   UNL     1       1.571   3.244  18.148  0.00  0.00    +0.000 OA
ATOM     35  H   UNL     1       2.104   2.763  17.488  0.00  0.00    +0.000 HD
ENDBRANCH   4  34
TORSDOF 6
ENDMDL
MODEL 9
REMARK VINA RESULT:      -7.5      1.019      1.343
REMARK  Name = 
REMARK  6 active torsions:
REMARK  status: ('A' for Active; 'I' for Inactive)
REMARK    1  A    between atoms: C_4  and  O_5
REMARK    2  A    between atoms: C_4  and  C_6
REMARK    3  A    between atoms: C_11  and  C_12
REMARK    4  A    between atoms: N_15  and  C_16
REMARK    5  A    between atoms: C_19  and  O_20
REMARK    6  A    between atoms: O_20  and  C_21
REMARK                            x       y       z     vdW  Elec       q    Type
REMARK                         _______ _______ _______ _____ _____    ______ ____
ROOT
ATOM      1  O   UNL     1       5.201   1.119  20.133  0.00  0.00    +0.000 OA
ATOM      2  C   UNL     1       4.597   2.123  19.758  0.00  0.00    +0.000 C 
ATOM      3  C   UNL     1       3.091   2.076  19.514  0.00  0.00    +0.000 C 
ATOM      4  C   UNL     1       2.321   3.417  19.407  0.00  0.00    +0.000 C 
ATOM      5  C   UNL     1       3.264   4.551  19.144  0.00  0.00    +0.000 A 
ATOM      6  C   UNL     1       3.049   5.942  18.921  0.00  0.00    +0.000 A 
ATOM      7  N   UNL     1       4.212   6.596  18.759  0.00  0.00    +0.000 NA
ATOM      8  N   UNL     1       5.153   5.639  18.916  0.00  0.00    +0.000 N 
ATOM      9  C   UNL     1       4.621   4.414  19.175  0.00  0.00    +0.000 A 
ATOM     10  N   UNL     1       5.295   3.268  19.477  0.00  0.00    +0.000 N 
ATOM     11  H   UNL     1       6.130   5.911  18.873  0.00  0.00    +0.000 HD
ATOM     12  H   UNL     1       6.301   3.235  19.586  0.00  0.00    +0.000 HD
ENDROOT
BRANCH   6  13
ATOM     13  C   UNL     1       1.733   6.669  19.047  0.00  0.00    +0.000 C 
ATOM     14  C   UNL     1       1.500   7.823  18.058  0.00  0.00    +0.000 C 
ATOM     15  C   UNL     1       1.696   9.238  18.608  0.00  0.00    +0.000 C 
ATOM     16  N   UNL     1       1.187   9.305  19.973  0.00  0.00    +0.000 N 
ATOM     17  C   UNL     1       1.849   8.396  20.898  0.00  0.00    +0.000 C 
ATOM     18  C   UNL     1       1.433   6.990  20.523  0.00  0.00    +0.000 C 
BRANCH  16  19
ATOM     19  C   UNL     1       0.298  10.255  20.427  0.00  0.00    +0.000 A 
ATOM     20  C   UNL     1      -0.082  10.311  21.777  0.00  0.00    +0.000 A 
ATOM     21  C   UNL     1      -0.960  11.289  22.260  0.00  0.00    +0.000 A 
ATOM     22  C   UNL     1      -1.477  12.257  21.403  0.00  0.00    +0.000 A 
ATOM     23  C   UNL     1      -1.166  12.187  20.051  0.00  0.00    +0.000 A 
ATOM     24  C   UNL     1      -0.281  11.204  19.578  0.00  0.00    +0.000 A 
BRANCH  22  25
ATOM     25  O   UNL     1      -2.306  13.161  21.989  0.00  0.00    +0.000 OA
BRANCH  25  26
ATOM     26  C   UNL     1      -1.750  14.227  22.744  0.00  0.00    +0.000 C 
ATOM     27  F   UNL     1      -0.459  14.503  22.464  0.00  0.00    +0.000 F 
ATOM     28  F   UNL     1      -2.485  15.343  22.543  0.00  0.00    +0.000 F 
ATOM     29  F   UNL     1      -1.826  13.908  24.057  0.00  0.00    +0.000 F 
ENDBRANCH  25  26
ENDBRANCH  22  25
ENDBRANCH  16  19
ENDBRANCH   6  13
BRANCH   4  30
ATOM     30  C   UNL     1       1.436   3.660  20.684  0.00  0.00    +0.000 C 
ATOM     31  F   UNL     1       1.066   2.520  21.307  0.00  0.00    +0.000 F 
ATOM     32  F   UNL     1       2.027   4.437  21.616  0.00  0.00    +0.000 F 
ATOM     33  F   UNL     1       0.280   4.286  20.325  0.00  0.00    +0.000 F 
ENDBRANCH   4  30
BRANCH   4  34
ATOM     34  O   UNL     1       1.487   3.283  18.217  0.00  0.00    +0.000 OA
ATOM     35  H   UNL     1       0.774   2.651  18.419  0.00  0.00    +0.000 HD
ENDBRANCH   4  34
TORSDOF 6
ENDMDL
