MODEL 1
REMARK VINA RESULT:      -6.9      0.000      0.000
REMARK  Name = 
REMARK  13 active torsions:
REMARK  status: ('A' for Active; 'I' for Inactive)
REMARK    1  A    between atoms: C_1  and  C_2
REMARK    2  A    between atoms: C_2  and  C_3
REMARK    3  A    between atoms: C_2  and  C_4
REMARK    4  A    between atoms: C_4  and  O_5
REMARK    5  A    between atoms: O_5  and  C_6
REMARK    6  A    between atoms: C_6  and  C_7
REMARK    7  A    between atoms: C_6  and  C_8
REMARK    8  A    between atoms: C_11  and  C_12
REMARK    9  A    between atoms: C_12  and  N_13
REMARK   10  A    between atoms: C_16  and  N_17
REMARK   11  A    between atoms: N_17  and  C_18
REMARK   12  A    between atoms: C_18  and  C_19
REMARK   13  A    between atoms: C_18  and  C_20
REMARK                            x       y       z     vdW  Elec       q    Type
REMARK                         _______ _______ _______ _____ _____    ______ ____
ROOT
ATOM      1  C   UNL     1       5.471   4.551  16.723  0.00  0.00    +0.000 A 
ATOM      2  N   UNL     1       6.158   4.469  17.874  0.00  0.00    +0.000 NA
ATOM      3  O   UNL     1       5.487   3.456  18.572  0.00  0.00    +0.000 OA
ATOM      4  C   UNL     1       4.463   3.043  17.770  0.00  0.00    +0.000 A 
ATOM      5  N   UNL     1       4.399   3.696  16.631  0.00  0.00    +0.000 NA
ENDROOT
BRANCH   1   6
ATOM      6  C   UNL     1       5.811   5.511  15.619  0.00  0.00    +0.000 C 
ATOM      7  C   UNL     1       4.987   6.792  15.791  0.00  0.00    +0.000 C 
BRANCH   6   8
ATOM      8  O   UNL     1       5.554   4.897  14.340  0.00  0.00    +0.000 OA
BRANCH   8   9
ATOM      9  C   UNL     1       6.342   3.744  14.066  0.00  0.00    +0.000 C 
BRANCH   9  11
ATOM     10  C   UNL     1       5.038   3.417  11.950  0.00  0.00    +0.000 C 
ATOM     11  C   UNL     1       6.437   3.540  12.547  0.00  0.00    +0.000 C 
ATOM     12  C   UNL     1       7.215   4.668  11.870  0.00  0.00    +0.000 C 
ENDBRANCH   9  11
ENDBRANCH   8   9
ENDBRANCH   6   8
ENDBRANCH   1   6
BRANCH   4  13
ATOM     13  C   UNL     1       3.627   1.900  18.235  0.00  0.00    +0.000 C 
BRANCH  13  14
ATOM     14  N   UNL     1       2.643   2.211  19.304  0.00  0.00    +0.000 NA
ATOM     15  C   UNL     1       3.313   2.552  20.573  0.00  0.00    +0.000 C 
ATOM     16  C   UNL     1       2.309   2.963  21.654  0.00  0.00    +0.000 C 
ATOM     17  C   UNL     1       1.425   4.142  21.218  0.00  0.00    +0.000 C 
ATOM     18  C   UNL     1       0.761   3.747  19.894  0.00  0.00    +0.000 C 
ATOM     19  C   UNL     1       1.779   3.313  18.841  0.00  0.00    +0.000 C 
BRANCH  17  20
ATOM     20  N   UNL     1       2.235   5.373  21.166  0.00  0.00    +0.000 NA
ATOM     21  H   UNL     1       3.202   5.147  20.942  0.00  0.00    +0.000 HD
BRANCH  20  22
ATOM     22  C   UNL     1       1.765   6.426  20.259  0.00  0.00    +0.000 C 
ATOM     23  C   UNL     1       1.431   7.728  20.990  0.00  0.00    +0.000 C 
ATOM     24  C   UNL     1       2.861   6.684  19.220  0.00  0.00    +0.000 C 
ENDBRANCH  20  22
ENDBRANCH  17  20
ENDBRANCH  13  14
ENDBRANCH   4  13
TORSDOF 8
ENDMDL
MODEL 2
REMARK VINA RESULT:      -6.7      3.042      4.661
REMARK  Name = 
REMARK  13 active torsions:
REMARK  status: ('A' for Active; 'I' for Inactive)
REMARK    1  A    between atoms: C_1  and  C_2
REMARK    2  A    between atoms: C_2  and  C_3
REMARK    3  A    between atoms: C_2  and  C_4
REMARK    4  A    between atoms: C_4  and  O_5
REMARK    5  A    between atoms: O_5  and  C_6
REMARK    6  A    between atoms: C_6  and  C_7
REMARK    7  A    between atoms: C_6  and  C_8
REMARK    8  A    between atoms: C_11  and  C_12
REMARK    9  A    between atoms: C_12  and  N_13
REMARK   10  A    between atoms: C_16  and  N_17
REMARK   11  A    between atoms: N_17  and  C_18
REMARK   12  A    between atoms: C_18  and  C_19
REMARK   13  A    between atoms: C_18  and  C_20
REMARK                            x       y       z     vdW  Elec       q    Type
REMARK                         _______ _______ _______ _____ _____    ______ ____
ROOT
ATOM      1  C   UNL     1       5.914   5.403  18.447  0.00  0.00    +0.000 A 
ATOM      2  N   UNL     1       5.537   4.457  19.322  0.00  0.00    +0.000 NA
ATOM      3  O   UNL     1       4.195   4.774  19.573  0.00  0.00    +0.000 OA
ATOM      4  C   UNL     1       3.911   5.881  18.828  0.00  0.00    +0.000 A 
ATOM      5  N   UNL     1       4.937   6.318  18.133  0.00  0.00    +0.000 NA
ENDROOT
BRANCH   1   6
ATOM      6  C   UNL     1       7.295   5.493  17.864  0.00  0.00    +0.000 C 
ATOM      7  C   UNL     1       7.542   6.920  17.363  0.00  0.00    +0.000 C 
BRANCH   6   8
ATOM      8  O   UNL     1       7.437   4.536  16.794  0.00  0.00    +0.000 OA
BRANCH   8   9
ATOM      9  C   UNL     1       7.271   5.076  15.489  0.00  0.00    +0.000 C 
BRANCH   9  11
ATOM     10  C   UNL     1       6.301   3.925  13.484  0.00  0.00    +0.000 C 
ATOM     11  C   UNL     1       5.991   4.506  14.860  0.00  0.00    +0.000 C 
ATOM     12  C   UNL     1       5.338   3.454  15.756  0.00  0.00    +0.000 C 
ENDBRANCH   9  11
ENDBRANCH   8   9
ENDBRANCH   6   8
ENDBRANCH   1   6
BRANCH   4  13
ATOM     13  C   UNL     1       2.510   6.391  18.839  0.00  0.00    +0.000 C 
BRANCH  13  14
ATOM     14  N   UNL     1       2.350   7.834  19.154  0.00  0.00    +0.000 NA
ATOM     15  C   UNL     1       1.834   8.588  17.996  0.00  0.00    +0.000 C 
ATOM     16  C   UNL     1       1.579  10.059  18.341  0.00  0.00    +0.000 C 
ATOM     17  C   UNL     1       0.611  10.225  19.522  0.00  0.00    +0.000 C 
ATOM     18  C   UNL     1       1.181   9.419  20.695  0.00  0.00    +0.000 C 
ATOM     19  C   UNL     1       1.454   7.964  20.320  0.00  0.00    +0.000 C 
BRANCH  17  20
ATOM     20  N   UNL     1      -0.749   9.840  19.104  0.00  0.00    +0.000 NA
ATOM     21  H   UNL     1      -1.365   9.792  19.913  0.00  0.00    +0.000 HD
BRANCH  20  22
ATOM     22  C   UNL     1      -1.376  10.674  18.072  0.00  0.00    +0.000 C 
ATOM     23  C   UNL     1      -2.130   9.852  17.026  0.00  0.00    +0.000 C 
ATOM     24  C   UNL     1      -2.342  11.642  18.763  0.00  0.00    +0.000 C 
ENDBRANCH  20  22
ENDBRANCH  17  20
ENDBRANCH  13  14
ENDBRANCH   4  13
TORSDOF 8
ENDMDL
MODEL 3
REMARK VINA RESULT:      -6.6      6.682      9.150
REMARK  Name = 
REMARK  13 active torsions:
REMARK  status: ('A' for Active; 'I' for Inactive)
REMARK    1  A    between atoms: C_1  and  C_2
REMARK    2  A    between atoms: C_2  and  C_3
REMARK    3  A    between atoms: C_2  and  C_4
REMARK    4  A    between atoms: C_4  and  O_5
REMARK    5  A    between atoms: O_5  and  C_6
REMARK    6  A    between atoms: C_6  and  C_7
REMARK    7  A    between atoms: C_6  and  C_8
REMARK    8  A    between atoms: C_11  and  C_12
REMARK    9  A    between atoms: C_12  and  N_13
REMARK   10  A    between atoms: C_16  and  N_17
REMARK   11  A    between atoms: N_17  and  C_18
REMARK   12  A    between atoms: C_18  and  C_19
REMARK   13  A    between atoms: C_18  and  C_20
REMARK                            x       y       z     vdW  Elec       q    Type
REMARK                         _______ _______ _______ _____ _____    ______ ____
ROOT
ATOM      1  C   UNL     1       7.266   6.730  17.648  0.00  0.00    +0.000 A 
ATOM      2  N   UNL     1       8.081   6.573  18.704  0.00  0.00    +0.000 NA
ATOM      3  O   UNL     1       8.620   7.855  18.881  0.00  0.00    +0.000 OA
ATOM      4  C   UNL     1       8.076   8.643  17.909  0.00  0.00    +0.000 A 
ATOM      5  N   UNL     1       7.253   7.996  17.115  0.00  0.00    +0.000 NA
ENDROOT
BRANCH   1   6
ATOM      6  C   UNL     1       6.444   5.618  17.062  0.00  0.00    +0.000 C 
ATOM      7  C   UNL     1       6.989   5.262  15.675  0.00  0.00    +0.000 C 
BRANCH   6   8
ATOM      8  O   UNL     1       5.061   6.020  16.988  0.00  0.00    +0.000 OA
BRANCH   8   9
ATOM      9  C   UNL     1       4.265   5.617  18.097  0.00  0.00    +0.000 C 
BRANCH   9  11
ATOM     10  C   UNL     1       3.616   3.297  17.407  0.00  0.00    +0.000 C 
ATOM     11  C   UNL     1       3.117   4.725  17.604  0.00  0.00    +0.000 C 
ATOM     12  C   UNL     1       1.925   4.754  18.559  0.00  0.00    +0.000 C 
ENDBRANCH   9  11
ENDBRANCH   8   9
ENDBRANCH   6   8
ENDBRANCH   1   6
BRANCH   4  13
ATOM     13  C   UNL     1       8.414  10.095  17.916  0.00  0.00    +0.000 C 
BRANCH  13  14
ATOM     14  N   UNL     1       9.636  10.471  18.671  0.00  0.00    +0.000 NA
ATOM     15  C   UNL     1      10.560  11.270  17.843  0.00  0.00    +0.000 C 
ATOM     16  C   UNL     1      11.780  11.740  18.642  0.00  0.00    +0.000 C 
ATOM     17  C   UNL     1      11.390  12.551  19.888  0.00  0.00    +0.000 C 
ATOM     18  C   UNL     1      10.425  11.687  20.709  0.00  0.00    +0.000 C 
ATOM     19  C   UNL     1       9.232  11.207  19.884  0.00  0.00    +0.000 C 
BRANCH  17  20
ATOM     20  N   UNL     1      10.857  13.862  19.475  0.00  0.00    +0.000 NA
ATOM     21  H   UNL     1      10.526  14.378  20.289  0.00  0.00    +0.000 HD
BRANCH  20  22
ATOM     22  C   UNL     1      11.759  14.718  18.697  0.00  0.00    +0.000 C 
ATOM     23  C   UNL     1      11.078  15.335  17.475  0.00  0.00    +0.000 C 
ATOM     24  C   UNL     1      12.273  15.830  19.618  0.00  0.00    +0.000 C 
ENDBRANCH  20  22
ENDBRANCH  17  20
ENDBRANCH  13  14
ENDBRANCH   4  13
TORSDOF 8
ENDMDL
MODEL 4
REMARK VINA RESULT:      -6.6      1.984      7.089
REMARK  Name = 
REMARK  13 active torsions:
REMARK  status: ('A' for Active; 'I' for Inactive)
REMARK    1  A    between atoms: C_1  and  C_2
REMARK    2  A    between atoms: C_2  and  C_3
REMARK    3  A    between atoms: C_2  and  C_4
REMARK    4  A    between atoms: C_4  and  O_5
REMARK    5  A    between atoms: O_5  and  C_6
REMARK    6  A    between atoms: C_6  and  C_7
REMARK    7  A    between atoms: C_6  and  C_8
REMARK    8  A    between atoms: C_11  and  C_12
REMARK    9  A    between atoms: C_12  and  N_13
REMARK   10  A    between atoms: C_16  and  N_17
REMARK   11  A    between atoms: N_17  and  C_18
REMARK   12  A    between atoms: C_18  and  C_19
REMARK   13  A    between atoms: C_18  and  C_20
REMARK                            x       y       z     vdW  Elec       q    Type
REMARK                         _______ _______ _______ _____ _____    ______ ____
ROOT
ATOM      1  C   UNL     1       3.903   2.681  18.895  0.00  0.00    +0.000 A 
ATOM      2  N   UNL     1       4.788   2.456  19.880  0.00  0.00    +0.000 NA
ATOM      3  O   UNL     1       5.610   3.591  19.833  0.00  0.00    +0.000 OA
ATOM      4  C   UNL     1       5.136   4.372  18.820  0.00  0.00    +0.000 A 
ATOM      5  N   UNL     1       4.100   3.851  18.201  0.00  0.00    +0.000 NA
ENDROOT
BRANCH   1   6
ATOM      6  C   UNL     1       2.794   1.732  18.543  0.00  0.00    +0.000 C 
ATOM      7  C   UNL     1       2.211   2.118  17.179  0.00  0.00    +0.000 C 
BRANCH   6   8
ATOM      8  O   UNL     1       1.779   1.764  19.568  0.00  0.00    +0.000 OA
BRANCH   8   9
ATOM      9  C   UNL     1       0.891   2.873  19.489  0.00  0.00    +0.000 C 
BRANCH   9  11
ATOM     10  C   UNL     1       1.748   2.907  21.845  0.00  0.00    +0.000 C 
ATOM     11  C   UNL     1       0.985   3.694  20.783  0.00  0.00    +0.000 C 
ATOM     12  C   UNL     1       1.640   5.055  20.546  0.00  0.00    +0.000 C 
ENDBRANCH   9  11
ENDBRANCH   8   9
ENDBRANCH   6   8
ENDBRANCH   1   6
BRANCH   4  13
ATOM     13  C   UNL     1       5.779   5.699  18.601  0.00  0.00    +0.000 C 
BRANCH  13  14
ATOM     14  N   UNL     1       6.309   5.943  17.234  0.00  0.00    +0.000 NA
ATOM     15  C   UNL     1       7.105   4.799  16.751  0.00  0.00    +0.000 C 
ATOM     16  C   UNL     1       7.578   5.004  15.308  0.00  0.00    +0.000 C 
ATOM     17  C   UNL     1       6.413   5.254  14.337  0.00  0.00    +0.000 C 
ATOM     18  C   UNL     1       5.611   6.440  14.885  0.00  0.00    +0.000 C 
ATOM     19  C   UNL     1       5.175   6.226  16.333  0.00  0.00    +0.000 C 
BRANCH  17  20
ATOM     20  N   UNL     1       5.643   4.009  14.160  0.00  0.00    +0.000 NA
ATOM     21  H   UNL     1       4.653   4.183  14.317  0.00  0.00    +0.000 HD
BRANCH  20  22
ATOM     22  C   UNL     1       5.813   3.313  12.880  0.00  0.00    +0.000 C 
ATOM     23  C   UNL     1       4.556   3.365  12.009  0.00  0.00    +0.000 C 
ATOM     24  C   UNL     1       6.983   3.963  12.135  0.00  0.00    +0.000 C 
ENDBRANCH  20  22
ENDBRANCH  17  20
ENDBRANCH  13  14
ENDBRANCH   4  13
TORSDOF 8
ENDMDL
MODEL 5
REMARK VINA RESULT:      -6.4      5.034      6.714
REMARK  Name = 
REMARK  13 active torsions:
REMARK  status: ('A' for Active; 'I' for Inactive)
REMARK    1  A    between atoms: C_1  and  C_2
REMARK    2  A    between atoms: C_2  and  C_3
REMARK    3  A    between atoms: C_2  and  C_4
REMARK    4  A    between atoms: C_4  and  O_5
REMARK    5  A    between atoms: O_5  and  C_6
REMARK    6  A    between atoms: C_6  and  C_7
REMARK    7  A    between atoms: C_6  and  C_8
REMARK    8  A    between atoms: C_11  and  C_12
REMARK    9  A    between atoms: C_12  and  N_13
REMARK   10  A    between atoms: C_16  and  N_17
REMARK   11  A    between atoms: N_17  and  C_18
REMARK   12  A    between atoms: C_18  and  C_19
REMARK   13  A    between atoms: C_18  and  C_20
REMARK                            x       y       z     vdW  Elec       q    Type
REMARK                         _______ _______ _______ _____ _____    ______ ____
ROOT
ATOM      1  C   UNL     1       8.562   8.892  18.355  0.00  0.00    +0.000 A 
ATOM      2  N   UNL     1       7.684   9.139  17.370  0.00  0.00    +0.000 NA
ATOM      3  O   UNL     1       7.038   7.907  17.204  0.00  0.00    +0.000 OA
ATOM      4  C   UNL     1       7.601   7.049  18.103  0.00  0.00    +0.000 A 
ATOM      5  N   UNL     1       8.554   7.599  18.821  0.00  0.00    +0.000 NA
ENDROOT
BRANCH   1   6
ATOM      6  C   UNL     1       9.506   9.922  18.904  0.00  0.00    +0.000 C 
ATOM      7  C   UNL     1       8.950  10.468  20.224  0.00  0.00    +0.000 C 
BRANCH   6   8
ATOM      8  O   UNL     1       9.689  10.981  17.941  0.00  0.00    +0.000 OA
BRANCH   8   9
ATOM      9  C   UNL     1      10.074  12.232  18.500  0.00  0.00    +0.000 C 
BRANCH   9  11
ATOM     10  C   UNL     1       9.758  14.669  18.010  0.00  0.00    +0.000 C 
ATOM     11  C   UNL     1      10.067  13.304  17.402  0.00  0.00    +0.000 C 
ATOM     12  C   UNL     1      11.389  13.342  16.636  0.00  0.00    +0.000 C 
ENDBRANCH   9  11
ENDBRANCH   8   9
ENDBRANCH   6   8
ENDBRANCH   1   6
BRANCH   4  13
ATOM     13  C   UNL     1       7.038   5.672  18.204  0.00  0.00    +0.000 C 
BRANCH  13  14
ATOM     14  N   UNL     1       5.576   5.553  17.966  0.00  0.00    +0.000 NA
ATOM     15  C   UNL     1       5.240   4.288  17.285  0.00  0.00    +0.000 C 
ATOM     16  C   UNL     1       3.727   4.115  17.119  0.00  0.00    +0.000 C 
ATOM     17  C   UNL     1       2.977   4.182  18.458  0.00  0.00    +0.000 C 
ATOM     18  C   UNL     1       3.364   5.504  19.131  0.00  0.00    +0.000 C 
ATOM     19  C   UNL     1       4.878   5.667  19.260  0.00  0.00    +0.000 C 
BRANCH  17  20
ATOM     20  N   UNL     1       3.269   2.971  19.248  0.00  0.00    +0.000 NA
ATOM     21  H   UNL     1       4.033   3.150  19.896  0.00  0.00    +0.000 HD
BRANCH  20  22
ATOM     22  C   UNL     1       2.143   2.384  19.983  0.00  0.00    +0.000 C 
ATOM     23  C   UNL     1       2.024   2.924  21.409  0.00  0.00    +0.000 C 
ATOM     24  C   UNL     1       0.857   2.688  19.207  0.00  0.00    +0.000 C 
ENDBRANCH  20  22
ENDBRANCH  17  20
ENDBRANCH  13  14
ENDBRANCH   4  13
TORSDOF 8
ENDMDL
MODEL 6
REMARK VINA RESULT:      -6.4      3.169      6.312
REMARK  Name = 
REMARK  13 active torsions:
REMARK  status: ('A' for Active; 'I' for Inactive)
REMARK    1  A    between atoms: C_1  and  C_2
REMARK    2  A    between atoms: C_2  and  C_3
REMARK    3  A    between atoms: C_2  and  C_4
REMARK    4  A    between atoms: C_4  and  O_5
REMARK    5  A    between atoms: O_5  and  C_6
REMARK    6  A    between atoms: C_6  and  C_7
REMARK    7  A    between atoms: C_6  and  C_8
REMARK    8  A    between atoms: C_11  and  C_12
REMARK    9  A    between atoms: C_12  and  N_13
REMARK   10  A    between atoms: C_16  and  N_17
REMARK   11  A    between atoms: N_17  and  C_18
REMARK   12  A    between atoms: C_18  and  C_19
REMARK   13  A    between atoms: C_18  and  C_20
REMARK                            x       y       z     vdW  Elec       q    Type
REMARK                         _______ _______ _______ _____ _____    ______ ____
ROOT
ATOM      1  C   UNL     1       3.891   5.183  17.977  0.00  0.00    +0.000 A 
ATOM      2  N   UNL     1       5.049   5.839  17.803  0.00  0.00    +0.000 NA
ATOM      3  O   UNL     1       4.646   7.179  17.724  0.00  0.00    +0.000 OA
ATOM      4  C   UNL     1       3.287   7.184  17.851  0.00  0.00    +0.000 A 
ATOM      5  N   UNL     1       2.773   5.983  17.991  0.00  0.00    +0.000 NA
ENDROOT
BRANCH   1   6
ATOM      6  C   UNL     1       3.795   3.691  18.120  0.00  0.00    +0.000 C 
ATOM      7  C   UNL     1       2.871   3.136  17.031  0.00  0.00    +0.000 C 
BRANCH   6   8
ATOM      8  O   UNL     1       3.306   3.356  19.435  0.00  0.00    +0.000 OA
BRANCH   8   9
ATOM      9  C   UNL     1       2.121   2.568  19.445  0.00  0.00    +0.000 C 
BRANCH   9  11
ATOM     10  C   UNL     1       1.728   2.551  21.920  0.00  0.00    +0.000 C 
ATOM     11  C   UNL     1       1.200   3.046  20.577  0.00  0.00    +0.000 C 
ATOM     12  C   UNL     1       1.050   4.567  20.583  0.00  0.00    +0.000 C 
ENDBRANCH   9  11
ENDBRANCH   8   9
ENDBRANCH   6   8
ENDBRANCH   1   6
BRANCH   4  13
ATOM     13  C   UNL     1       2.593   8.502  17.889  0.00  0.00    +0.000 C 
BRANCH  13  14
ATOM     14  N   UNL     1       1.422   8.591  18.800  0.00  0.00    +0.000 NA
ATOM     15  C   UNL     1       1.823   8.447  20.212  0.00  0.00    +0.000 C 
ATOM     16  C   UNL     1       0.635   8.629  21.162  0.00  0.00    +0.000 C 
ATOM     17  C   UNL     1      -0.068   9.982  20.972  0.00  0.00    +0.000 C 
ATOM     18  C   UNL     1      -0.455  10.091  19.493  0.00  0.00    +0.000 C 
ATOM     19  C   UNL     1       0.739   9.877  18.564  0.00  0.00    +0.000 C 
BRANCH  17  20
ATOM     20  N   UNL     1       0.802  11.064  21.470  0.00  0.00    +0.000 NA
ATOM     21  H   UNL     1       1.777  10.851  21.267  0.00  0.00    +0.000 HD
BRANCH  20  22
ATOM     22  C   UNL     1       0.496  12.418  20.997  0.00  0.00    +0.000 C 
ATOM     23  C   UNL     1      -0.282  13.241  22.025  0.00  0.00    +0.000 C 
ATOM     24  C   UNL     1       1.819  13.119  20.670  0.00  0.00    +0.000 C 
ENDBRANCH  20  22
ENDBRANCH  17  20
ENDBRANCH  13  14
ENDBRANCH   4  13
TORSDOF 8
ENDMDL
MODEL 7
REMARK VINA RESULT:      -6.4      1.859      3.820
REMARK  Name = 
REMARK  13 active torsions:
REMARK  status: ('A' for Active; 'I' for Inactive)
REMARK    1  A    between atoms: C_1  and  C_2
REMARK    2  A    between atoms: C_2  and  C_3
REMARK    3  A    between atoms: C_2  and  C_4
REMARK    4  A    between atoms: C_4  and  O_5
REMARK    5  A    between atoms: O_5  and  C_6
REMARK    6  A    between atoms: C_6  and  C_7
REMARK    7  A    between atoms: C_6  and  C_8
REMARK    8  A    between atoms: C_11  and  C_12
REMARK    9  A    between atoms: C_12  and  N_13
REMARK   10  A    between atoms: C_16  and  N_17
REMARK   11  A    between atoms: N_17  and  C_18
REMARK   12  A    between atoms: C_18  and  C_19
REMARK   13  A    between atoms: C_18  and  C_20
REMARK                            x       y       z     vdW  Elec       q    Type
REMARK                         _______ _______ _______ _____ _____    ______ ____
ROOT
ATOM      1  C   UNL     1       6.647   4.410  14.004  0.00  0.00    +0.000 A 
ATOM      2  N   UNL     1       7.668   5.252  14.231  0.00  0.00    +0.000 NA
ATOM      3  O   UNL     1       7.411   5.720  15.527  0.00  0.00    +0.000 OA
ATOM      4  C   UNL     1       6.259   5.115  15.937  0.00  0.00    +0.000 A 
ATOM      5  N   UNL     1       5.740   4.315  15.033  0.00  0.00    +0.000 NA
ENDROOT
BRANCH   1   6
ATOM      6  C   UNL     1       6.473   3.641  12.726  0.00  0.00    +0.000 C 
ATOM      7  C   UNL     1       7.237   4.348  11.602  0.00  0.00    +0.000 C 
BRANCH   6   8
ATOM      8  O   UNL     1       5.070   3.531  12.409  0.00  0.00    +0.000 OA
BRANCH   8   9
ATOM      9  C   UNL     1       4.787   3.326  11.029  0.00  0.00    +0.000 C 
BRANCH   9  11
ATOM     10  C   UNL     1       3.063   4.327   9.511  0.00  0.00    +0.000 C 
ATOM     11  C   UNL     1       3.284   3.514  10.783  0.00  0.00    +0.000 C 
ATOM     12  C   UNL     1       2.550   2.176  10.703  0.00  0.00    +0.000 C 
ENDBRANCH   9  11
ENDBRANCH   8   9
ENDBRANCH   6   8
ENDBRANCH   1   6
BRANCH   4  13
ATOM     13  C   UNL     1       5.792   5.369  17.330  0.00  0.00    +0.000 C 
BRANCH  13  14
ATOM     14  N   UNL     1       4.332   5.589  17.493  0.00  0.00    +0.000 NA
ATOM     15  C   UNL     1       3.588   4.315  17.478  0.00  0.00    +0.000 C 
ATOM     16  C   UNL     1       2.093   4.525  17.738  0.00  0.00    +0.000 C 
ATOM     17  C   UNL     1       1.823   5.251  19.065  0.00  0.00    +0.000 C 
ATOM     18  C   UNL     1       2.623   6.559  19.039  0.00  0.00    +0.000 C 
ATOM     19  C   UNL     1       4.104   6.327  18.750  0.00  0.00    +0.000 C 
BRANCH  17  20
ATOM     20  N   UNL     1       2.135   4.351  20.191  0.00  0.00    +0.000 NA
ATOM     21  H   UNL     1       2.410   4.894  21.008  0.00  0.00    +0.000 HD
BRANCH  20  22
ATOM     22  C   UNL     1       1.088   3.399  20.576  0.00  0.00    +0.000 C 
ATOM     23  C   UNL     1       0.659   2.494  19.421  0.00  0.00    +0.000 C 
ATOM     24  C   UNL     1       1.621   2.545  21.730  0.00  0.00    +0.000 C 
ENDBRANCH  20  22
ENDBRANCH  17  20
ENDBRANCH  13  14
ENDBRANCH   4  13
TORSDOF 8
ENDMDL
MODEL 8
REMARK VINA RESULT:      -6.3      6.416      8.760
REMARK  Name = 
REMARK  13 active torsions:
REMARK  status: ('A' for Active; 'I' for Inactive)
REMARK    1  A    between atoms: C_1  and  C_2
REMARK    2  A    between atoms: C_2  and  C_3
REMARK    3  A    between atoms: C_2  and  C_4
REMARK    4  A    between atoms: C_4  and  O_5
REMARK    5  A    between atoms: O_5  and  C_6
REMARK    6  A    between atoms: C_6  and  C_7
REMARK    7  A    between atoms: C_6  and  C_8
REMARK    8  A    between atoms: C_11  and  C_12
REMARK    9  A    between atoms: C_12  and  N_13
REMARK   10  A    between atoms: C_16  and  N_17
REMARK   11  A    between atoms: N_17  and  C_18
REMARK   12  A    between atoms: C_18  and  C_19
REMARK   13  A    between atoms: C_18  and  C_20
REMARK                            x       y       z     vdW  Elec       q    Type
REMARK                         _______ _______ _______ _____ _____    ______ ____
ROOT
ATOM      1  C   UNL     1       7.177   6.527  17.646  0.00  0.00    +0.000 A 
ATOM      2  N   UNL     1       7.995   6.401  18.703  0.00  0.00    +0.000 NA
ATOM      3  O   UNL     1       8.511   7.694  18.861  0.00  0.00    +0.000 OA
ATOM      4  C   UNL     1       7.953   8.457  17.877  0.00  0.00    +0.000 A 
ATOM      5  N   UNL     1       7.141   7.784  17.094  0.00  0.00    +0.000 NA
ENDROOT
BRANCH   1   6
ATOM      6  C   UNL     1       6.375   5.392  17.077  0.00  0.00    +0.000 C 
ATOM      7  C   UNL     1       5.952   5.738  15.646  0.00  0.00    +0.000 C 
BRANCH   6   8
ATOM      8  O   UNL     1       5.225   5.140  17.911  0.00  0.00    +0.000 OA
BRANCH   8   9
ATOM      9  C   UNL     1       4.023   4.872  17.199  0.00  0.00    +0.000 C 
BRANCH   9  11
ATOM     10  C   UNL     1       3.393   4.320  19.561  0.00  0.00    +0.000 C 
ATOM     11  C   UNL     1       3.069   4.066  18.092  0.00  0.00    +0.000 C 
ATOM     12  C   UNL     1       1.605   4.390  17.798  0.00  0.00    +0.000 C 
ENDBRANCH   9  11
ENDBRANCH   8   9
ENDBRANCH   6   8
ENDBRANCH   1   6
BRANCH   4  13
ATOM     13  C   UNL     1       8.265   9.915  17.861  0.00  0.00    +0.000 C 
BRANCH  13  14
ATOM     14  N   UNL     1       9.478  10.326  18.615  0.00  0.00    +0.000 NA
ATOM     15  C   UNL     1      10.353  11.192  17.803  0.00  0.00    +0.000 C 
ATOM     16  C   UNL     1      11.559  11.694  18.603  0.00  0.00    +0.000 C 
ATOM     17  C   UNL     1      11.146  12.447  19.878  0.00  0.00    +0.000 C 
ATOM     18  C   UNL     1      10.232  11.514  20.682  0.00  0.00    +0.000 C 
ATOM     19  C   UNL     1       9.054  11.003  19.855  0.00  0.00    +0.000 C 
BRANCH  17  20
ATOM     20  N   UNL     1      10.547  13.744  19.512  0.00  0.00    +0.000 NA
ATOM     21  H   UNL     1       9.955  13.638  18.691  0.00  0.00    +0.000 HD
BRANCH  20  22
ATOM     22  C   UNL     1       9.791  14.433  20.564  0.00  0.00    +0.000 C 
ATOM     23  C   UNL     1      10.655  15.402  21.373  0.00  0.00    +0.000 C 
ATOM     24  C   UNL     1       8.641  15.199  19.900  0.00  0.00    +0.000 C 
ENDBRANCH  20  22
ENDBRANCH  17  20
ENDBRANCH  13  14
ENDBRANCH   4  13
TORSDOF 8
ENDMDL
MODEL 9
REMARK VINA RESULT:      -6.3      1.745      3.257
REMARK  Name = 
REMARK  13 active torsions:
REMARK  status: ('A' for Active; 'I' for Inactive)
REMARK    1  A    between atoms: C_1  and  C_2
REMARK    2  A    between atoms: C_2  and  C_3
REMARK    3  A    between atoms: C_2  and  C_4
REMARK    4  A    between atoms: C_4  and  O_5
REMARK    5  A    between atoms: O_5  and  C_6
REMARK    6  A    between atoms: C_6  and  C_7
REMARK    7  A    between atoms: C_6  and  C_8
REMARK    8  A    between atoms: C_11  and  C_12
REMARK    9  A    between atoms: C_12  and  N_13
REMARK   10  A    between atoms: C_16  and  N_17
REMARK   11  A    between atoms: N_17  and  C_18
REMARK   12  A    between atoms: C_18  and  C_19
REMARK   13  A    between atoms: C_18  and  C_20
REMARK                            x       y       z     vdW  Elec       q    Type
REMARK                         _______ _______ _______ _____ _____    ______ ____
ROOT
ATOM      1  C   UNL     1       7.013   4.771  15.664  0.00  0.00    +0.000 A 
ATOM      2  N   UNL     1       7.730   4.393  16.734  0.00  0.00    +0.000 NA
ATOM      3  O   UNL     1       7.072   5.026  17.797  0.00  0.00    +0.000 OA
ATOM      4  C   UNL     1       6.033   5.722  17.251  0.00  0.00    +0.000 A 
ATOM      5  N   UNL     1       5.963   5.614  15.943  0.00  0.00    +0.000 NA
ENDROOT
BRANCH   1   6
ATOM      6  C   UNL     1       7.327   4.343  14.259  0.00  0.00    +0.000 C 
ATOM      7  C   UNL     1       7.794   5.558  13.451  0.00  0.00    +0.000 C 
BRANCH   6   8
ATOM      8  O   UNL     1       6.163   3.738  13.660  0.00  0.00    +0.000 OA
BRANCH   8   9
ATOM      9  C   UNL     1       6.255   3.537  12.254  0.00  0.00    +0.000 C 
BRANCH   9  11
ATOM     10  C   UNL     1       4.130   3.078  11.007  0.00  0.00    +0.000 C 
ATOM     11  C   UNL     1       5.255   2.454  11.827  0.00  0.00    +0.000 C 
ATOM     12  C   UNL     1       5.935   1.331  11.044  0.00  0.00    +0.000 C 
ENDBRANCH   9  11
ENDBRANCH   8   9
ENDBRANCH   6   8
ENDBRANCH   1   6
BRANCH   4  13
ATOM     13  C   UNL     1       5.102   6.429  18.176  0.00  0.00    +0.000 C 
BRANCH  13  14
ATOM     14  N   UNL     1       3.692   5.961  18.157  0.00  0.00    +0.000 NA
ATOM     15  C   UNL     1       3.538   4.739  17.346  0.00  0.00    +0.000 C 
ATOM     16  C   UNL     1       2.106   4.198  17.397  0.00  0.00    +0.000 C 
ATOM     17  C   UNL     1       1.636   3.913  18.832  0.00  0.00    +0.000 C 
ATOM     18  C   UNL     1       1.824   5.205  19.637  0.00  0.00    +0.000 C 
ATOM     19  C   UNL     1       3.251   5.741  19.548  0.00  0.00    +0.000 C 
BRANCH  17  20
ATOM     20  N   UNL     1       2.352   2.738  19.362  0.00  0.00    +0.000 NA
ATOM     21  H   UNL     1       3.025   2.399  18.677  0.00  0.00    +0.000 HD
BRANCH  20  22
ATOM     22  C   UNL     1       3.026   2.912  20.653  0.00  0.00    +0.000 C 
ATOM     23  C   UNL     1       2.173   2.443  21.832  0.00  0.00    +0.000 C 
ATOM     24  C   UNL     1       4.337   2.120  20.617  0.00  0.00    +0.000 C 
ENDBRANCH  20  22
ENDBRANCH  17  20
ENDBRANCH  13  14
ENDBRANCH   4  13
TORSDOF 8
ENDMDL
