MODEL 1
REMARK VINA RESULT:      -8.1      0.000      0.000
REMARK  Name = 
REMARK  8 active torsions:
REMARK  status: ('A' for Active; 'I' for Inactive)
REMARK    1  A    between atoms: C_2  and  C_3
REMARK    2  A    between atoms: C_5  and  C_6
REMARK    3  A    between atoms: N_8  and  C_9
REMARK    4  A    between atoms: N_13  and  C_14
REMARK    5  A    between atoms: N_17  and  C_18
REMARK    6  A    between atoms: N_21  and  C_22
REMARK    7  A    between atoms: C_22  and  C_23
REMARK    8  A    between atoms: C_23  and  O_24
REMARK                            x       y       z     vdW  Elec       q    Type
REMARK                         _______ _______ _______ _____ _____    ______ ____
ROOT
ATOM      1  C   UNL     1       5.467   4.973  17.704  0.00  0.00    +0.000 A 
ATOM      2  N   UNL     1       5.731   4.856  16.382  0.00  0.00    +0.000 NA
ATOM      3  C   UNL     1       6.800   5.479  15.850  0.00  0.00    +0.000 A 
ATOM      4  N   UNL     1       7.137   5.318  14.501  0.00  0.00    +0.000 N 
ATOM      5  N   UNL     1       7.640   6.243  16.564  0.00  0.00    +0.000 NA
ATOM      6  C   UNL     1       7.385   6.336  17.883  0.00  0.00    +0.000 A 
ATOM      7  C   UNL     1       6.321   5.723  18.500  0.00  0.00    +0.000 A 
ATOM      8  F   UNL     1       6.158   5.844  19.825  0.00  0.00    +0.000 F 
ATOM      9  H   UNL     1       8.011   5.807  14.347  0.00  0.00    +0.000 HD
ENDROOT
BRANCH   1  14
ATOM     10  C   UNL     1       2.497   5.050  19.489  0.00  0.00    +0.000 C 
ATOM     11  C   UNL     1       1.370   4.074  19.178  0.00  0.00    +0.000 C 
ATOM     12  C   UNL     1       2.099   4.771  18.075  0.00  0.00    +0.000 C 
ATOM     13  C   UNL     1       3.217   4.052  17.380  0.00  0.00    +0.000 C 
ATOM     14  N   UNL     1       4.381   4.279  18.239  0.00  0.00    +0.000 N 
ATOM     15  C   UNL     1       3.950   4.584  19.618  0.00  0.00    +0.000 C 
BRANCH  10  18
ATOM     16  C   UNL     1       2.182   7.471  19.631  0.00  0.00    +0.000 C 
ATOM     17  O   UNL     1       2.514   7.654  18.466  0.00  0.00    +0.000 OA
ATOM     18  N   UNL     1       2.123   6.229  20.229  0.00  0.00    +0.000 N 
ATOM     19  H   UNL     1       1.773   6.124  21.173  0.00  0.00    +0.000 HD
BRANCH  16  22
ATOM     20  C   UNL     1       0.437   8.582  21.179  0.00  0.00    +0.000 C 
ATOM     21  C   UNL     1       0.670   9.538  20.040  0.00  0.00    +0.000 C 
ATOM     22  C   UNL     1       1.788   8.621  20.487  0.00  0.00    +0.000 C 
BRANCH  20  24
ATOM     23  N   UNL     1       0.260   9.521  23.590  0.00  0.00    +0.000 NA
ATOM     24  C   UNL     1       0.330   9.095  22.515  0.00  0.00    +0.000 C 
ENDBRANCH  20  24
ENDBRANCH  16  22
ENDBRANCH  10  18
ENDBRANCH   1  14
BRANCH   4  25
ATOM     25  C   UNL     1       6.671   4.428  13.604  0.00  0.00    +0.000 A 
ATOM     26  C   UNL     1       5.386   3.872  13.459  0.00  0.00    +0.000 A 
ATOM     27  N   UNL     1       5.326   2.965  12.480  0.00  0.00    +0.000 NA
ATOM     28  N   UNL     1       6.585   2.936  12.005  0.00  0.00    +0.000 N 
ATOM     29  C   UNL     1       7.415   3.840  12.609  0.00  0.00    +0.000 A 
BRANCH  28  30
ATOM     30  C   UNL     1       6.934   1.984  10.968  0.00  0.00    +0.000 C 
BRANCH  30  31
ATOM     31  C   UNL     1       5.918   0.856  10.843  0.00  0.00    +0.000 C 
BRANCH  31  32
ATOM     32  O   UNL     1       6.282  -0.258  11.657  0.00  0.00    +0.000 OA
ATOM     33  H   UNL     1       7.123  -0.017  12.091  0.00  0.00    +0.000 HD
ENDBRANCH  31  32
ENDBRANCH  30  31
ENDBRANCH  28  30
ENDBRANCH   4  25
TORSDOF 8
ENDMDL
MODEL 2
REMARK VINA RESULT:      -8.1      2.029      2.333
REMARK  Name = 
REMARK  8 active torsions:
REMARK  status: ('A' for Active; 'I' for Inactive)
REMARK    1  A    between atoms: C_2  and  C_3
REMARK    2  A    between atoms: C_5  and  C_6
REMARK    3  A    between atoms: N_8  and  C_9
REMARK    4  A    between atoms: N_13  and  C_14
REMARK    5  A    between atoms: N_17  and  C_18
REMARK    6  A    between atoms: N_21  and  C_22
REMARK    7  A    between atoms: C_22  and  C_23
REMARK    8  A    between atoms: C_23  and  O_24
REMARK                            x       y       z     vdW  Elec       q    Type
REMARK                         _______ _______ _______ _____ _____    ______ ____
ROOT
ATOM      1  C   UNL     1       5.393   4.243  17.361  0.00  0.00    +0.000 A 
ATOM      2  N   UNL     1       5.557   4.182  16.019  0.00  0.00    +0.000 NA
ATOM      3  C   UNL     1       6.703   4.614  15.459  0.00  0.00    +0.000 A 
ATOM      4  N   UNL     1       6.928   4.499  14.082  0.00  0.00    +0.000 N 
ATOM      5  N   UNL     1       7.721   5.130  16.164  0.00  0.00    +0.000 NA
ATOM      6  C   UNL     1       7.561   5.166  17.501  0.00  0.00    +0.000 A 
ATOM      7  C   UNL     1       6.426   4.735  18.146  0.00  0.00    +0.000 A 
ATOM      8  F   UNL     1       6.363   4.779  19.484  0.00  0.00    +0.000 F 
ATOM      9  H   UNL     1       7.875   4.809  13.903  0.00  0.00    +0.000 HD
ENDROOT
BRANCH   1  14
ATOM     10  C   UNL     1       2.225   4.862  18.622  0.00  0.00    +0.000 C 
ATOM     11  C   UNL     1       1.103   3.846  18.456  0.00  0.00    +0.000 C 
ATOM     12  C   UNL     1       2.000   4.183  17.309  0.00  0.00    +0.000 C 
ATOM     13  C   UNL     1       3.163   3.284  17.012  0.00  0.00    +0.000 C 
ATOM     14  N   UNL     1       4.216   3.744  17.920  0.00  0.00    +0.000 N 
ATOM     15  C   UNL     1       3.626   4.444  19.079  0.00  0.00    +0.000 C 
BRANCH  10  18
ATOM     16  C   UNL     1       2.484   7.282  18.377  0.00  0.00    +0.000 C 
ATOM     17  O   UNL     1       3.419   7.173  17.592  0.00  0.00    +0.000 OA
ATOM     18  N   UNL     1       1.815   6.209  18.931  0.00  0.00    +0.000 N 
ATOM     19  H   UNL     1       1.003   6.352  19.518  0.00  0.00    +0.000 HD
BRANCH  16  22
ATOM     20  C   UNL     1       0.934   9.295  17.908  0.00  0.00    +0.000 C 
ATOM     21  C   UNL     1       2.340   9.831  17.924  0.00  0.00    +0.000 C 
ATOM     22  C   UNL     1       1.989   8.627  18.771  0.00  0.00    +0.000 C 
BRANCH  20  24
ATOM     23  N   UNL     1      -0.938  10.655  19.077  0.00  0.00    +0.000 NA
ATOM     24  C   UNL     1      -0.110  10.043  18.548  0.00  0.00    +0.000 C 
ENDBRANCH  20  24
ENDBRANCH  16  22
ENDBRANCH  10  18
ENDBRANCH   1  14
BRANCH   4  25
ATOM     25  C   UNL     1       6.239   3.798  13.160  0.00  0.00    +0.000 A 
ATOM     26  C   UNL     1       6.675   2.811  12.257  0.00  0.00    +0.000 A 
ATOM     27  N   UNL     1       5.701   2.388  11.447  0.00  0.00    +0.000 NA
ATOM     28  N   UNL     1       4.638   3.118  11.832  0.00  0.00    +0.000 N 
ATOM     29  C   UNL     1       4.898   3.937  12.897  0.00  0.00    +0.000 A 
BRANCH  28  30
ATOM     30  C   UNL     1       3.388   2.996  11.106  0.00  0.00    +0.000 C 
BRANCH  30  31
ATOM     31  C   UNL     1       3.148   4.157  10.152  0.00  0.00    +0.000 C 
BRANCH  31  32
ATOM     32  O   UNL     1       3.054   3.705   8.802  0.00  0.00    +0.000 OA
ATOM     33  H   UNL     1       2.130   3.415   8.673  0.00  0.00    +0.000 HD
ENDBRANCH  31  32
ENDBRANCH  30  31
ENDBRANCH  28  30
ENDBRANCH   4  25
TORSDOF 8
ENDMDL
MODEL 3
REMARK VINA RESULT:      -8.0      1.970      2.136
REMARK  Name = 
REMARK  8 active torsions:
REMARK  status: ('A' for Active; 'I' for Inactive)
REMARK    1  A    between atoms: C_2  and  C_3
REMARK    2  A    between atoms: C_5  and  C_6
REMARK    3  A    between atoms: N_8  and  C_9
REMARK    4  A    between atoms: N_13  and  C_14
REMARK    5  A    between atoms: N_17  and  C_18
REMARK    6  A    between atoms: N_21  and  C_22
REMARK    7  A    between atoms: C_22  and  C_23
REMARK    8  A    between atoms: C_23  and  O_24
REMARK                            x       y       z     vdW  Elec       q    Type
REMARK                         _______ _______ _______ _____ _____    ______ ____
ROOT
ATOM      1  C   UNL     1       5.364   4.156  17.013  0.00  0.00    +0.000 A 
ATOM      2  N   UNL     1       5.456   4.047  15.667  0.00  0.00    +0.000 NA
ATOM      3  C   UNL     1       6.587   4.421  15.038  0.00  0.00    +0.000 A 
ATOM      4  N   UNL     1       6.737   4.255  13.655  0.00  0.00    +0.000 N 
ATOM      5  N   UNL     1       7.657   4.920  15.674  0.00  0.00    +0.000 NA
ATOM      6  C   UNL     1       7.566   5.003  17.015  0.00  0.00    +0.000 A 
ATOM      7  C   UNL     1       6.451   4.634  17.729  0.00  0.00    +0.000 A 
ATOM      8  F   UNL     1       6.458   4.720  19.067  0.00  0.00    +0.000 F 
ATOM      9  H   UNL     1       7.684   4.525  13.419  0.00  0.00    +0.000 HD
ENDROOT
BRANCH   1  14
ATOM     10  C   UNL     1       2.451   4.940  18.719  0.00  0.00    +0.000 C 
ATOM     11  C   UNL     1       1.199   4.085  18.567  0.00  0.00    +0.000 C 
ATOM     12  C   UNL     1       2.003   4.475  17.369  0.00  0.00    +0.000 C 
ATOM     13  C   UNL     1       3.007   3.504  16.824  0.00  0.00    +0.000 C 
ATOM     14  N   UNL     1       4.200   3.717  17.646  0.00  0.00    +0.000 N 
ATOM     15  C   UNL     1       3.829   4.312  18.946  0.00  0.00    +0.000 C 
BRANCH  10  18
ATOM     16  C   UNL     1       1.836   6.447  20.544  0.00  0.00    +0.000 C 
ATOM     17  O   UNL     1       1.648   5.528  21.333  0.00  0.00    +0.000 OA
ATOM     18  N   UNL     1       2.247   6.268  19.239  0.00  0.00    +0.000 N 
ATOM     19  H   UNL     1       2.458   7.063  18.648  0.00  0.00    +0.000 HD
BRANCH  16  22
ATOM     20  C   UNL     1       0.263   8.293  21.435  0.00  0.00    +0.000 C 
ATOM     21  C   UNL     1       0.811   8.792  20.124  0.00  0.00    +0.000 C 
ATOM     22  C   UNL     1       1.643   7.857  20.975  0.00  0.00    +0.000 C 
BRANCH  20  24
ATOM     23  N   UNL     1       0.085   9.917  23.448  0.00  0.00    +0.000 NA
ATOM     24  C   UNL     1       0.159   9.199  22.543  0.00  0.00    +0.000 C 
ENDBRANCH  20  24
ENDBRANCH  16  22
ENDBRANCH  10  18
ENDBRANCH   1  14
BRANCH   4  25
ATOM     25  C   UNL     1       5.979   3.552  12.792  0.00  0.00    +0.000 A 
ATOM     26  C   UNL     1       6.218   2.309  12.176  0.00  0.00    +0.000 A 
ATOM     27  N   UNL     1       5.250   1.962  11.323  0.00  0.00    +0.000 NA
ATOM     28  N   UNL     1       4.392   2.998  11.390  0.00  0.00    +0.000 N 
ATOM     29  C   UNL     1       4.758   3.949  12.302  0.00  0.00    +0.000 A 
BRANCH  28  30
ATOM     30  C   UNL     1       3.234   3.021  10.517  0.00  0.00    +0.000 C 
BRANCH  30  31
ATOM     31  C   UNL     1       2.994   4.391   9.898  0.00  0.00    +0.000 C 
BRANCH  31  32
ATOM     32  O   UNL     1       3.044   4.330   8.474  0.00  0.00    +0.000 OA
ATOM     33  H   UNL     1       3.953   4.057   8.243  0.00  0.00    +0.000 HD
ENDBRANCH  31  32
ENDBRANCH  30  31
ENDBRANCH  28  30
ENDBRANCH   4  25
TORSDOF 8
ENDMDL
MODEL 4
REMARK VINA RESULT:      -7.9      1.527      1.627
REMARK  Name = 
REMARK  8 active torsions:
REMARK  status: ('A' for Active; 'I' for Inactive)
REMARK    1  A    between atoms: C_2  and  C_3
REMARK    2  A    between atoms: C_5  and  C_6
REMARK    3  A    between atoms: N_8  and  C_9
REMARK    4  A    between atoms: N_13  and  C_14
REMARK    5  A    between atoms: N_17  and  C_18
REMARK    6  A    between atoms: N_21  and  C_22
REMARK    7  A    between atoms: C_22  and  C_23
REMARK    8  A    between atoms: C_23  and  O_24
REMARK                            x       y       z     vdW  Elec       q    Type
REMARK                         _______ _______ _______ _____ _____    ______ ____
ROOT
ATOM      1  C   UNL     1       5.504   4.677  17.298  0.00  0.00    +0.000 A 
ATOM      2  N   UNL     1       5.627   4.539  15.957  0.00  0.00    +0.000 NA
ATOM      3  C   UNL     1       6.692   5.063  15.321  0.00  0.00    +0.000 A 
ATOM      4  N   UNL     1       6.881   4.876  13.946  0.00  0.00    +0.000 N 
ATOM      5  N   UNL     1       7.664   5.744  15.945  0.00  0.00    +0.000 NA
ATOM      6  C   UNL     1       7.548   5.856  17.282  0.00  0.00    +0.000 A 
ATOM      7  C   UNL     1       6.496   5.342  18.003  0.00  0.00    +0.000 A 
ATOM      8  F   UNL     1       6.475   5.473  19.337  0.00  0.00    +0.000 F 
ATOM      9  H   UNL     1       7.777   5.282  13.706  0.00  0.00    +0.000 HD
ENDROOT
BRANCH   1  14
ATOM     10  C   UNL     1       2.378   5.028  18.752  0.00  0.00    +0.000 C 
ATOM     11  C   UNL     1       1.346   3.911  18.674  0.00  0.00    +0.000 C 
ATOM     12  C   UNL     1       2.134   4.304  17.466  0.00  0.00    +0.000 C 
ATOM     13  C   UNL     1       3.355   3.510  17.108  0.00  0.00    +0.000 C 
ATOM     14  N   UNL     1       4.415   4.083  17.939  0.00  0.00    +0.000 N 
ATOM     15  C   UNL     1       3.837   4.750  19.124  0.00  0.00    +0.000 C 
BRANCH  10  18
ATOM     16  C   UNL     1       2.388   7.455  18.447  0.00  0.00    +0.000 C 
ATOM     17  O   UNL     1       3.271   7.416  17.599  0.00  0.00    +0.000 OA
ATOM     18  N   UNL     1       1.865   6.338  19.067  0.00  0.00    +0.000 N 
ATOM     19  H   UNL     1       1.086   6.418  19.709  0.00  0.00    +0.000 HD
BRANCH  16  22
ATOM     20  C   UNL     1       0.743   9.387  17.961  0.00  0.00    +0.000 C 
ATOM     21  C   UNL     1       2.113  10.004  18.056  0.00  0.00    +0.000 C 
ATOM     22  C   UNL     1       1.797   8.757  18.854  0.00  0.00    +0.000 C 
BRANCH  20  24
ATOM     23  N   UNL     1      -1.257  10.602  19.077  0.00  0.00    +0.000 NA
ATOM     24  C   UNL     1      -0.371  10.054  18.571  0.00  0.00    +0.000 C 
ENDBRANCH  20  24
ENDBRANCH  16  22
ENDBRANCH  10  18
ENDBRANCH   1  14
BRANCH   4  25
ATOM     25  C   UNL     1       6.250   4.035  13.104  0.00  0.00    +0.000 A 
ATOM     26  C   UNL     1       4.877   3.872  12.842  0.00  0.00    +0.000 A 
ATOM     27  N   UNL     1       4.632   2.881  11.980  0.00  0.00    +0.000 NA
ATOM     28  N   UNL     1       5.859   2.405  11.698  0.00  0.00    +0.000 N 
ATOM     29  C   UNL     1       6.867   3.104  12.303  0.00  0.00    +0.000 A 
BRANCH  28  30
ATOM     30  C   UNL     1       5.992   1.241  10.842  0.00  0.00    +0.000 C 
BRANCH  30  31
ATOM     31  C   UNL     1       6.348  -0.020  11.619  0.00  0.00    +0.000 C 
BRANCH  31  32
ATOM     32  O   UNL     1       5.912  -1.191  10.930  0.00  0.00    +0.000 OA
ATOM     33  H   UNL     1       5.648  -0.899  10.035  0.00  0.00    +0.000 HD
ENDBRANCH  31  32
ENDBRANCH  30  31
ENDBRANCH  28  30
ENDBRANCH   4  25
TORSDOF 8
ENDMDL
MODEL 5
REMARK VINA RESULT:      -7.7      1.198      1.493
REMARK  Name = 
REMARK  8 active torsions:
REMARK  status: ('A' for Active; 'I' for Inactive)
REMARK    1  A    between atoms: C_2  and  C_3
REMARK    2  A    between atoms: C_5  and  C_6
REMARK    3  A    between atoms: N_8  and  C_9
REMARK    4  A    between atoms: N_13  and  C_14
REMARK    5  A    between atoms: N_17  and  C_18
REMARK    6  A    between atoms: N_21  and  C_22
REMARK    7  A    between atoms: C_22  and  C_23
REMARK    8  A    between atoms: C_23  and  O_24
REMARK                            x       y       z     vdW  Elec       q    Type
REMARK                         _______ _______ _______ _____ _____    ______ ____
ROOT
ATOM      1  C   UNL     1       5.496   4.454  17.840  0.00  0.00    +0.000 A 
ATOM      2  N   UNL     1       5.892   4.636  16.559  0.00  0.00    +0.000 NA
ATOM      3  C   UNL     1       6.919   5.463  16.282  0.00  0.00    +0.000 A 
ATOM      4  N   UNL     1       7.395   5.617  14.974  0.00  0.00    +0.000 N 
ATOM      5  N   UNL     1       7.588   6.150  17.220  0.00  0.00    +0.000 NA
ATOM      6  C   UNL     1       7.204   5.945  18.494  0.00  0.00    +0.000 A 
ATOM      7  C   UNL     1       6.173   5.111  18.856  0.00  0.00    +0.000 A 
ATOM      8  F   UNL     1       5.877   4.942  20.153  0.00  0.00    +0.000 F 
ATOM      9  H   UNL     1       8.212   6.215  15.018  0.00  0.00    +0.000 HD
ENDROOT
BRANCH   1  14
ATOM     10  C   UNL     1       2.296   3.902  19.049  0.00  0.00    +0.000 C 
ATOM     11  C   UNL     1       1.408   2.817  18.453  0.00  0.00    +0.000 C 
ATOM     12  C   UNL     1       2.191   3.731  17.567  0.00  0.00    +0.000 C 
ATOM     13  C   UNL     1       3.510   3.264  17.029  0.00  0.00    +0.000 C 
ATOM     14  N   UNL     1       4.462   3.555  18.103  0.00  0.00    +0.000 N 
ATOM     15  C   UNL     1       3.762   3.636  19.402  0.00  0.00    +0.000 C 
BRANCH  10  18
ATOM     16  C   UNL     1       2.029   6.238  19.722  0.00  0.00    +0.000 C 
ATOM     17  O   UNL     1       2.943   6.623  19.004  0.00  0.00    +0.000 OA
ATOM     18  N   UNL     1       1.618   4.923  19.808  0.00  0.00    +0.000 N 
ATOM     19  H   UNL     1       0.811   4.667  20.362  0.00  0.00    +0.000 HD
BRANCH  16  22
ATOM     20  C   UNL     1       1.437   8.691  20.276  0.00  0.00    +0.000 C 
ATOM     21  C   UNL     1       2.014   8.095  21.532  0.00  0.00    +0.000 C 
ATOM     22  C   UNL     1       1.271   7.208  20.556  0.00  0.00    +0.000 C 
BRANCH  20  24
ATOM     23  N   UNL     1      -0.644  10.231  20.421  0.00  0.00    +0.000 NA
ATOM     24  C   UNL     1       0.287   9.544  20.368  0.00  0.00    +0.000 C 
ENDBRANCH  20  24
ENDBRANCH  16  22
ENDBRANCH  10  18
ENDBRANCH   1  14
BRANCH   4  25
ATOM     25  C   UNL     1       7.129   4.884  13.876  0.00  0.00    +0.000 A 
ATOM     26  C   UNL     1       7.681   4.951  12.583  0.00  0.00    +0.000 A 
ATOM     27  N   UNL     1       7.109   4.091  11.735  0.00  0.00    +0.000 NA
ATOM     28  N   UNL     1       6.179   3.480  12.492  0.00  0.00    +0.000 N 
ATOM     29  C   UNL     1       6.194   3.880  13.800  0.00  0.00    +0.000 A 
BRANCH  28  30
ATOM     30  C   UNL     1       5.280   2.520  11.880  0.00  0.00    +0.000 C 
BRANCH  30  31
ATOM     31  C   UNL     1       6.011   1.500  11.017  0.00  0.00    +0.000 C 
BRANCH  31  32
ATOM     32  O   UNL     1       7.364   1.340  11.442  0.00  0.00    +0.000 OA
ATOM     33  H   UNL     1       7.811   0.826  10.742  0.00  0.00    +0.000 HD
ENDBRANCH  31  32
ENDBRANCH  30  31
ENDBRANCH  28  30
ENDBRANCH   4  25
TORSDOF 8
ENDMDL
MODEL 6
REMARK VINA RESULT:      -7.6      1.414      1.598
REMARK  Name = 
REMARK  8 active torsions:
REMARK  status: ('A' for Active; 'I' for Inactive)
REMARK    1  A    between atoms: C_2  and  C_3
REMARK    2  A    between atoms: C_5  and  C_6
REMARK    3  A    between atoms: N_8  and  C_9
REMARK    4  A    between atoms: N_13  and  C_14
REMARK    5  A    between atoms: N_17  and  C_18
REMARK    6  A    between atoms: N_21  and  C_22
REMARK    7  A    between atoms: C_22  and  C_23
REMARK    8  A    between atoms: C_23  and  O_24
REMARK                            x       y       z     vdW  Elec       q    Type
REMARK                         _______ _______ _______ _____ _____    ______ ____
ROOT
ATOM      1  C   UNL     1       5.484   4.832  17.540  0.00  0.00    +0.000 A 
ATOM      2  N   UNL     1       5.671   4.757  16.202  0.00  0.00    +0.000 NA
ATOM      3  C   UNL     1       6.730   5.366  15.634  0.00  0.00    +0.000 A 
ATOM      4  N   UNL     1       6.987   5.248  14.263  0.00  0.00    +0.000 N 
ATOM      5  N   UNL     1       7.633   6.075  16.327  0.00  0.00    +0.000 NA
ATOM      6  C   UNL     1       7.453   6.126  17.661  0.00  0.00    +0.000 A 
ATOM      7  C   UNL     1       6.405   5.523  18.314  0.00  0.00    +0.000 A 
ATOM      8  F   UNL     1       6.319   5.598  19.649  0.00  0.00    +0.000 F 
ATOM      9  H   UNL     1       7.867   5.713  14.079  0.00  0.00    +0.000 HD
ENDROOT
BRANCH   1  14
ATOM     10  C   UNL     1       2.502   4.963  19.301  0.00  0.00    +0.000 C 
ATOM     11  C   UNL     1       1.393   3.951  19.042  0.00  0.00    +0.000 C 
ATOM     12  C   UNL     1       2.117   4.594  17.903  0.00  0.00    +0.000 C 
ATOM     13  C   UNL     1       3.252   3.855  17.258  0.00  0.00    +0.000 C 
ATOM     14  N   UNL     1       4.406   4.151  18.109  0.00  0.00    +0.000 N 
ATOM     15  C   UNL     1       3.962   4.530  19.466  0.00  0.00    +0.000 C 
BRANCH  10  18
ATOM     16  C   UNL     1       2.279   7.398  19.350  0.00  0.00    +0.000 C 
ATOM     17  O   UNL     1       2.741   7.534  18.223  0.00  0.00    +0.000 OA
ATOM     18  N   UNL     1       2.104   6.177  19.968  0.00  0.00    +0.000 N 
ATOM     19  H   UNL     1       1.651   6.113  20.872  0.00  0.00    +0.000 HD
BRANCH  16  22
ATOM     20  C   UNL     1       0.682   8.441  21.093  0.00  0.00    +0.000 C 
ATOM     21  C   UNL     1       0.515   9.239  19.827  0.00  0.00    +0.000 C 
ATOM     22  C   UNL     1       1.847   8.587  20.131  0.00  0.00    +0.000 C 
BRANCH  20  24
ATOM     23  N   UNL     1       0.759   9.673  23.372  0.00  0.00    +0.000 NA
ATOM     24  C   UNL     1       0.735   9.126  22.352  0.00  0.00    +0.000 C 
ENDBRANCH  20  24
ENDBRANCH  16  22
ENDBRANCH  10  18
ENDBRANCH   1  14
BRANCH   4  25
ATOM     25  C   UNL     1       6.443   4.407  13.362  0.00  0.00    +0.000 A 
ATOM     26  C   UNL     1       7.055   3.625  12.364  0.00  0.00    +0.000 A 
ATOM     27  N   UNL     1       6.169   2.961  11.616  0.00  0.00    +0.000 NA
ATOM     28  N   UNL     1       4.984   3.331  12.135  0.00  0.00    +0.000 N 
ATOM     29  C   UNL     1       5.100   4.152  13.223  0.00  0.00    +0.000 A 
BRANCH  28  30
ATOM     30  C   UNL     1       3.758   2.870  11.513  0.00  0.00    +0.000 C 
BRANCH  30  31
ATOM     31  C   UNL     1       3.625   3.329  10.068  0.00  0.00    +0.000 C 
BRANCH  31  32
ATOM     32  O   UNL     1       3.015   4.617   9.989  0.00  0.00    +0.000 OA
ATOM     33  H   UNL     1       3.586   5.223  10.500  0.00  0.00    +0.000 HD
ENDBRANCH  31  32
ENDBRANCH  30  31
ENDBRANCH  28  30
ENDBRANCH   4  25
TORSDOF 8
ENDMDL
MODEL 7
REMARK VINA RESULT:      -7.4      4.524      7.653
REMARK  Name = 
REMARK  8 active torsions:
REMARK  status: ('A' for Active; 'I' for Inactive)
REMARK    1  A    between atoms: C_2  and  C_3
REMARK    2  A    between atoms: C_5  and  C_6
REMARK    3  A    between atoms: N_8  and  C_9
REMARK    4  A    between atoms: N_13  and  C_14
REMARK    5  A    between atoms: N_17  and  C_18
REMARK    6  A    between atoms: N_21  and  C_22
REMARK    7  A    between atoms: C_22  and  C_23
REMARK    8  A    between atoms: C_23  and  O_24
REMARK                            x       y       z     vdW  Elec       q    Type
REMARK                         _______ _______ _______ _____ _____    ______ ____
ROOT
ATOM      1  C   UNL     1       0.678   9.648  19.919  0.00  0.00    +0.000 A 
ATOM      2  N   UNL     1       1.454   8.562  19.697  0.00  0.00    +0.000 NA
ATOM      3  C   UNL     1       1.663   7.669  20.684  0.00  0.00    +0.000 A 
ATOM      4  N   UNL     1       2.403   6.502  20.463  0.00  0.00    +0.000 N 
ATOM      5  N   UNL     1       1.148   7.796  21.916  0.00  0.00    +0.000 NA
ATOM      6  C   UNL     1       0.358   8.867  22.123  0.00  0.00    +0.000 A 
ATOM      7  C   UNL     1       0.090   9.815  21.164  0.00  0.00    +0.000 A 
ATOM      8  F   UNL     1      -0.734  10.834  21.446  0.00  0.00    +0.000 F 
ATOM      9  H   UNL     1       2.360   5.950  21.312  0.00  0.00    +0.000 HD
ENDROOT
BRANCH   1  14
ATOM     10  C   UNL     1      -1.407  11.987  18.440  0.00  0.00    +0.000 C 
ATOM     11  C   UNL     1      -0.837  13.149  17.635  0.00  0.00    +0.000 C 
ATOM     12  C   UNL     1      -0.239  12.769  18.952  0.00  0.00    +0.000 C 
ATOM     13  C   UNL     1       0.975  11.890  18.969  0.00  0.00    +0.000 C 
ATOM     14  N   UNL     1       0.438  10.531  18.866  0.00  0.00    +0.000 N 
ATOM     15  C   UNL     1      -0.903  10.554  18.248  0.00  0.00    +0.000 C 
BRANCH  10  18
ATOM     16  C   UNL     1      -3.817  11.779  18.083  0.00  0.00    +0.000 C 
ATOM     17  O   UNL     1      -3.681  11.288  16.968  0.00  0.00    +0.000 OA
ATOM     18  N   UNL     1      -2.765  12.144  18.897  0.00  0.00    +0.000 N 
ATOM     19  H   UNL     1      -2.929  12.479  19.838  0.00  0.00    +0.000 HD
BRANCH  16  22
ATOM     20  C   UNL     1      -6.083  10.792  18.837  0.00  0.00    +0.000 C 
ATOM     21  C   UNL     1      -6.391  11.801  17.763  0.00  0.00    +0.000 C 
ATOM     22  C   UNL     1      -5.177  11.995  18.646  0.00  0.00    +0.000 C 
BRANCH  20  24
ATOM     23  N   UNL     1      -7.590  10.665  20.943  0.00  0.00    +0.000 NA
ATOM     24  C   UNL     1      -6.915  10.733  20.005  0.00  0.00    +0.000 C 
ENDBRANCH  20  24
ENDBRANCH  16  22
ENDBRANCH  10  18
ENDBRANCH   1  14
BRANCH   4  25
ATOM     25  C   UNL     1       2.814   5.958  19.301  0.00  0.00    +0.000 A 
ATOM     26  C   UNL     1       2.246   4.925  18.530  0.00  0.00    +0.000 A 
ATOM     27  N   UNL     1       2.985   4.616  17.461  0.00  0.00    +0.000 NA
ATOM     28  N   UNL     1       4.036   5.452  17.557  0.00  0.00    +0.000 N 
ATOM     29  C   UNL     1       3.947   6.317  18.613  0.00  0.00    +0.000 A 
BRANCH  28  30
ATOM     30  C   UNL     1       5.118   5.349  16.597  0.00  0.00    +0.000 C 
BRANCH  30  31
ATOM     31  C   UNL     1       6.336   4.631  17.163  0.00  0.00    +0.000 C 
BRANCH  31  32
ATOM     32  O   UNL     1       5.968   3.745  18.220  0.00  0.00    +0.000 OA
ATOM     33  H   UNL     1       6.463   4.039  19.009  0.00  0.00    +0.000 HD
ENDBRANCH  31  32
ENDBRANCH  30  31
ENDBRANCH  28  30
ENDBRANCH   4  25
TORSDOF 8
ENDMDL
MODEL 8
REMARK VINA RESULT:      -7.3      8.220     12.607
REMARK  Name = 
REMARK  8 active torsions:
REMARK  status: ('A' for Active; 'I' for Inactive)
REMARK    1  A    between atoms: C_2  and  C_3
REMARK    2  A    between atoms: C_5  and  C_6
REMARK    3  A    between atoms: N_8  and  C_9
REMARK    4  A    between atoms: N_13  and  C_14
REMARK    5  A    between atoms: N_17  and  C_18
REMARK    6  A    between atoms: N_21  and  C_22
REMARK    7  A    between atoms: C_22  and  C_23
REMARK    8  A    between atoms: C_23  and  O_24
REMARK                            x       y       z     vdW  Elec       q    Type
REMARK                         _______ _______ _______ _____ _____    ______ ____
ROOT
ATOM      1  C   UNL     1      -5.619  12.756  22.524  0.00  0.00    +0.000 A 
ATOM      2  N   UNL     1      -5.650  12.216  21.284  0.00  0.00    +0.000 NA
ATOM      3  C   UNL     1      -6.782  11.649  20.823  0.00  0.00    +0.000 A 
ATOM      4  N   UNL     1      -6.863  11.145  19.519  0.00  0.00    +0.000 N 
ATOM      5  N   UNL     1      -7.913  11.571  21.539  0.00  0.00    +0.000 NA
ATOM      6  C   UNL     1      -7.883  12.132  22.763  0.00  0.00    +0.000 A 
ATOM      7  C   UNL     1      -6.770  12.736  23.299  0.00  0.00    +0.000 A 
ATOM      8  F   UNL     1      -6.836  13.296  24.514  0.00  0.00    +0.000 F 
ATOM      9  H   UNL     1      -7.819  10.847  19.369  0.00  0.00    +0.000 HD
ENDROOT
BRANCH   1  14
ATOM     10  C   UNL     1      -2.182  13.104  22.260  0.00  0.00    +0.000 C 
ATOM     11  C   UNL     1      -1.507  14.446  22.512  0.00  0.00    +0.000 C 
ATOM     12  C   UNL     1      -2.750  14.363  21.685  0.00  0.00    +0.000 C 
ATOM     13  C   UNL     1      -4.071  14.649  22.333  0.00  0.00    +0.000 C 
ATOM     14  N   UNL     1      -4.449  13.380  22.959  0.00  0.00    +0.000 N 
ATOM     15  C   UNL     1      -3.251  12.552  23.207  0.00  0.00    +0.000 C 
BRANCH  10  18
ATOM     16  C   UNL     1      -0.547  11.286  22.180  0.00  0.00    +0.000 C 
ATOM     17  O   UNL     1      -0.404  11.267  23.397  0.00  0.00    +0.000 OA
ATOM     18  N   UNL     1      -1.408  12.139  21.519  0.00  0.00    +0.000 N 
ATOM     19  H   UNL     1      -1.543  12.067  20.519  0.00  0.00    +0.000 HD
BRANCH  16  22
ATOM     20  C   UNL     1      -0.292  10.069  19.915  0.00  0.00    +0.000 C 
ATOM     21  C   UNL     1      -0.392   8.998  20.969  0.00  0.00    +0.000 C 
ATOM     22  C   UNL     1       0.213  10.340  21.321  0.00  0.00    +0.000 C 
BRANCH  20  24
ATOM     23  N   UNL     1       1.424   9.789  17.992  0.00  0.00    +0.000 NA
ATOM     24  C   UNL     1       0.663   9.923  18.854  0.00  0.00    +0.000 C 
ENDBRANCH  20  24
ENDBRANCH  16  22
ENDBRANCH  10  18
ENDBRANCH   1  14
BRANCH   4  25
ATOM     25  C   UNL     1      -6.016  11.311  18.485  0.00  0.00    +0.000 A 
ATOM     26  C   UNL     1      -5.959  12.326  17.511  0.00  0.00    +0.000 A 
ATOM     27  N   UNL     1      -5.007  12.110  16.599  0.00  0.00    +0.000 NA
ATOM     28  N   UNL     1      -4.460  10.944  16.991  0.00  0.00    +0.000 N 
ATOM     29  C   UNL     1      -4.993  10.457  18.152  0.00  0.00    +0.000 A 
BRANCH  28  30
ATOM     30  C   UNL     1      -3.426  10.333  16.177  0.00  0.00    +0.000 C 
BRANCH  30  31
ATOM     31  C   UNL     1      -2.023  10.703  16.638  0.00  0.00    +0.000 C 
BRANCH  31  32
ATOM     32  O   UNL     1      -1.944  12.081  16.998  0.00  0.00    +0.000 OA
ATOM     33  H   UNL     1      -1.907  12.582  16.160  0.00  0.00    +0.000 HD
ENDBRANCH  31  32
ENDBRANCH  30  31
ENDBRANCH  28  30
ENDBRANCH   4  25
TORSDOF 8
ENDMDL
MODEL 9
REMARK VINA RESULT:      -7.2      6.390     13.067
REMARK  Name = 
REMARK  8 active torsions:
REMARK  status: ('A' for Active; 'I' for Inactive)
REMARK    1  A    between atoms: C_2  and  C_3
REMARK    2  A    between atoms: C_5  and  C_6
REMARK    3  A    between atoms: N_8  and  C_9
REMARK    4  A    between atoms: N_13  and  C_14
REMARK    5  A    between atoms: N_17  and  C_18
REMARK    6  A    between atoms: N_21  and  C_22
REMARK    7  A    between atoms: C_22  and  C_23
REMARK    8  A    between atoms: C_23  and  O_24
REMARK                            x       y       z     vdW  Elec       q    Type
REMARK                         _______ _______ _______ _____ _____    ______ ____
ROOT
ATOM      1  C   UNL     1      -2.963  11.764  18.374  0.00  0.00    +0.000 A 
ATOM      2  N   UNL     1      -4.166  12.050  18.925  0.00  0.00    +0.000 NA
ATOM      3  C   UNL     1      -5.294  11.868  18.211  0.00  0.00    +0.000 A 
ATOM      4  N   UNL     1      -6.555  12.089  18.778  0.00  0.00    +0.000 N 
ATOM      5  N   UNL     1      -5.304  11.419  16.947  0.00  0.00    +0.000 NA
ATOM      6  C   UNL     1      -4.105  11.114  16.414  0.00  0.00    +0.000 A 
ATOM      7  C   UNL     1      -2.913  11.264  17.081  0.00  0.00    +0.000 A 
ATOM      8  F   UNL     1      -1.767  10.907  16.485  0.00  0.00    +0.000 F 
ATOM      9  H   UNL     1      -7.247  11.812  18.092  0.00  0.00    +0.000 HD
ENDROOT
BRANCH   1  14
ATOM     10  C   UNL     1       0.393  11.048  18.860  0.00  0.00    +0.000 C 
ATOM     11  C   UNL     1       1.322  12.056  19.522  0.00  0.00    +0.000 C 
ATOM     12  C   UNL     1       0.351  12.492  18.473  0.00  0.00    +0.000 C 
ATOM     13  C   UNL     1      -0.961  13.080  18.900  0.00  0.00    +0.000 C 
ATOM     14  N   UNL     1      -1.813  11.916  19.151  0.00  0.00    +0.000 N 
ATOM     15  C   UNL     1      -0.987  10.726  19.439  0.00  0.00    +0.000 C 
BRANCH  10  18
ATOM     16  C   UNL     1       1.469   8.857  18.711  0.00  0.00    +0.000 C 
ATOM     17  O   UNL     1       1.324   8.626  19.906  0.00  0.00    +0.000 OA
ATOM     18  N   UNL     1       1.034  10.011  18.091  0.00  0.00    +0.000 N 
ATOM     19  H   UNL     1       1.114  10.122  17.088  0.00  0.00    +0.000 HD
BRANCH  16  22
ATOM     20  C   UNL     1       3.056   6.834  18.459  0.00  0.00    +0.000 C 
ATOM     21  C   UNL     1       3.623   7.933  17.601  0.00  0.00    +0.000 C 
ATOM     22  C   UNL     1       2.129   7.858  17.830  0.00  0.00    +0.000 C 
BRANCH  20  24
ATOM     23  N   UNL     1       3.052   4.403  17.558  0.00  0.00    +0.000 NA
ATOM     24  C   UNL     1       3.043   5.489  17.959  0.00  0.00    +0.000 C 
ENDBRANCH  20  24
ENDBRANCH  16  22
ENDBRANCH  10  18
ENDBRANCH   1  14
BRANCH   4  25
ATOM     25  C   UNL     1      -6.891  12.274  20.069  0.00  0.00    +0.000 A 
ATOM     26  C   UNL     1      -7.168  11.334  21.080  0.00  0.00    +0.000 A 
ATOM     27  N   UNL     1      -7.529  11.908  22.231  0.00  0.00    +0.000 NA
ATOM     28  N   UNL     1      -7.491  13.224  21.947  0.00  0.00    +0.000 N 
ATOM     29  C   UNL     1      -7.056  13.494  20.679  0.00  0.00    +0.000 A 
BRANCH  28  30
ATOM     30  C   UNL     1      -7.915  14.181  22.951  0.00  0.00    +0.000 C 
BRANCH  30  31
ATOM     31  C   UNL     1      -7.667  13.690  24.371  0.00  0.00    +0.000 C 
BRANCH  31  32
ATOM     32  O   UNL     1      -6.293  13.366  24.572  0.00  0.00    +0.000 OA
ATOM     33  H   UNL     1      -5.786  14.173  24.358  0.00  0.00    +0.000 HD
ENDBRANCH  31  32
ENDBRANCH  30  31
ENDBRANCH  28  30
ENDBRANCH   4  25
TORSDOF 8
ENDMDL
