MODEL 1
REMARK VINA RESULT:      -6.6      0.000      0.000
REMARK  Name = 
REMARK  8 active torsions:
REMARK  status: ('A' for Active; 'I' for Inactive)
REMARK    1  A    between atoms: C_1  and  O_2
REMARK    2  A    between atoms: O_2  and  C_3
REMARK    3  A    between atoms: C_3  and  C_5
REMARK    4  A    between atoms: C_5  and  N_6
REMARK    5  A    between atoms: C_5  and  C_15
REMARK    6  A    between atoms: C_7  and  C_9
REMARK    7  A    between atoms: C_15  and  C_16
REMARK    8  A    between atoms: C_15  and  O_17
REMARK                            x       y       z     vdW  Elec       q    Type
REMARK                         _______ _______ _______ _____ _____    ______ ____
ROOT
ATOM      1  N   UNL     1       5.126   4.411  17.228  0.00  0.00    +0.000 N 
ATOM      2  C   UNL     1       4.844   3.985  18.504  0.00  0.00    +0.000 C 
ATOM      3  O   UNL     1       5.702   3.856  19.367  0.00  0.00    +0.000 OA
ATOM      4  H   UNL     1       4.399   4.456  16.527  0.00  0.00    +0.000 HD
ENDROOT
BRANCH   2   5
ATOM      5  C   UNL     1       3.423   3.628  18.781  0.00  0.00    +0.000 A 
ATOM      6  C   UNL     1       2.698   4.429  19.672  0.00  0.00    +0.000 A 
ATOM      7  C   UNL     1       1.379   4.104  19.995  0.00  0.00    +0.000 A 
ATOM      8  C   UNL     1       0.776   2.985  19.421  0.00  0.00    +0.000 A 
ATOM      9  C   UNL     1       1.483   2.201  18.510  0.00  0.00    +0.000 A 
ATOM     10  C   UNL     1       2.803   2.522  18.183  0.00  0.00    +0.000 A 
ENDBRANCH   2   5
BRANCH   1  11
ATOM     11  C   UNL     1       6.486   4.781  16.814  0.00  0.00    +0.000 C 
BRANCH  11  12
ATOM     12  C   UNL     1       6.660   6.297  16.926  0.00  0.00    +0.000 C 
ATOM     13  O   UNL     1       5.861   7.128  16.507  0.00  0.00    +0.000 OA
BRANCH  12  15
ATOM     14  C   UNL     1       7.964   6.367  18.886  0.00  0.00    +0.000 C 
ATOM     15  O   UNL     1       7.874   6.587  17.477  0.00  0.00    +0.000 OA
ENDBRANCH  12  15
ENDBRANCH  11  12
BRANCH  11  16
ATOM     16  C   UNL     1       6.733   4.347  15.354  0.00  0.00    +0.000 C 
ATOM     17  C   UNL     1       5.462   4.217  14.524  0.00  0.00    +0.000 C 
BRANCH  16  18
ATOM     18  O   UNL     1       7.590   5.292  14.695  0.00  0.00    +0.000 OA
ATOM     19  H   UNL     1       8.241   5.613  15.346  0.00  0.00    +0.000 HD
ENDBRANCH  16  18
ENDBRANCH  11  16
ENDBRANCH   1  11
TORSDOF 6
ENDMDL
MODEL 2
REMARK VINA RESULT:      -6.6      1.369      2.841
REMARK  Name = 
REMARK  8 active torsions:
REMARK  status: ('A' for Active; 'I' for Inactive)
REMARK    1  A    between atoms: C_1  and  O_2
REMARK    2  A    between atoms: O_2  and  C_3
REMARK    3  A    between atoms: C_3  and  C_5
REMARK    4  A    between atoms: C_5  and  N_6
REMARK    5  A    between atoms: C_5  and  C_15
REMARK    6  A    between atoms: C_7  and  C_9
REMARK    7  A    between atoms: C_15  and  C_16
REMARK    8  A    between atoms: C_15  and  O_17
REMARK                            x       y       z     vdW  Elec       q    Type
REMARK                         _______ _______ _______ _____ _____    ______ ____
ROOT
ATOM      1  N   UNL     1       4.986   5.271  17.985  0.00  0.00    +0.000 N 
ATOM      2  C   UNL     1       3.757   5.795  18.308  0.00  0.00    +0.000 C 
ATOM      3  O   UNL     1       3.509   6.993  18.253  0.00  0.00    +0.000 OA
ATOM      4  H   UNL     1       5.169   4.283  18.092  0.00  0.00    +0.000 HD
ENDROOT
BRANCH   2   5
ATOM      5  C   UNL     1       2.733   4.825  18.789  0.00  0.00    +0.000 A 
ATOM      6  C   UNL     1       2.413   3.734  17.970  0.00  0.00    +0.000 A 
ATOM      7  C   UNL     1       1.427   2.827  18.361  0.00  0.00    +0.000 A 
ATOM      8  C   UNL     1       0.765   2.998  19.576  0.00  0.00    +0.000 A 
ATOM      9  C   UNL     1       1.099   4.065  20.410  0.00  0.00    +0.000 A 
ATOM     10  C   UNL     1       2.086   4.975  20.023  0.00  0.00    +0.000 A 
ENDBRANCH   2   5
BRANCH   1  11
ATOM     11  C   UNL     1       6.092   6.114  17.511  0.00  0.00    +0.000 C 
BRANCH  11  12
ATOM     12  C   UNL     1       6.063   6.185  15.983  0.00  0.00    +0.000 C 
ATOM     13  O   UNL     1       5.160   6.686  15.321  0.00  0.00    +0.000 OA
BRANCH  12  15
ATOM     14  C   UNL     1       6.845   4.648  14.380  0.00  0.00    +0.000 C 
ATOM     15  O   UNL     1       7.141   5.527  15.466  0.00  0.00    +0.000 OA
ENDBRANCH  12  15
ENDBRANCH  11  12
BRANCH  11  16
ATOM     16  C   UNL     1       7.442   5.526  17.969  0.00  0.00    +0.000 C 
ATOM     17  C   UNL     1       7.837   5.913  19.389  0.00  0.00    +0.000 C 
BRANCH  16  18
ATOM     18  O   UNL     1       7.405   4.091  17.902  0.00  0.00    +0.000 OA
ATOM     19  H   UNL     1       6.674   3.782  18.469  0.00  0.00    +0.000 HD
ENDBRANCH  16  18
ENDBRANCH  11  16
ENDBRANCH   1  11
TORSDOF 6
ENDMDL
MODEL 3
REMARK VINA RESULT:      -6.5      0.595      1.311
REMARK  Name = 
REMARK  8 active torsions:
REMARK  status: ('A' for Active; 'I' for Inactive)
REMARK    1  A    between atoms: C_1  and  O_2
REMARK    2  A    between atoms: O_2  and  C_3
REMARK    3  A    between atoms: C_3  and  C_5
REMARK    4  A    between atoms: C_5  and  N_6
REMARK    5  A    between atoms: C_5  and  C_15
REMARK    6  A    between atoms: C_7  and  C_9
REMARK    7  A    between atoms: C_15  and  C_16
REMARK    8  A    between atoms: C_15  and  O_17
REMARK                            x       y       z     vdW  Elec       q    Type
REMARK                         _______ _______ _______ _____ _____    ______ ____
ROOT
ATOM      1  N   UNL     1       5.161   4.529  17.433  0.00  0.00    +0.000 N 
ATOM      2  C   UNL     1       4.899   4.068  18.701  0.00  0.00    +0.000 C 
ATOM      3  O   UNL     1       5.766   3.950  19.558  0.00  0.00    +0.000 OA
ATOM      4  H   UNL     1       4.430   4.564  16.736  0.00  0.00    +0.000 HD
ENDROOT
BRANCH   2   5
ATOM      5  C   UNL     1       3.493   3.658  18.976  0.00  0.00    +0.000 A 
ATOM      6  C   UNL     1       2.957   2.588  18.246  0.00  0.00    +0.000 A 
ATOM      7  C   UNL     1       1.630   2.201  18.439  0.00  0.00    +0.000 A 
ATOM      8  C   UNL     1       0.836   2.872  19.368  0.00  0.00    +0.000 A 
ATOM      9  C   UNL     1       1.371   3.918  20.119  0.00  0.00    +0.000 A 
ATOM     10  C   UNL     1       2.699   4.309  19.930  0.00  0.00    +0.000 A 
ENDBRANCH   2   5
BRANCH   1  11
ATOM     11  C   UNL     1       6.506   4.953  17.021  0.00  0.00    +0.000 C 
BRANCH  11  12
ATOM     12  C   UNL     1       6.586   6.481  17.031  0.00  0.00    +0.000 C 
ATOM     13  O   UNL     1       5.804   7.228  16.453  0.00  0.00    +0.000 OA
BRANCH  12  15
ATOM     14  C   UNL     1       7.923   8.296  17.711  0.00  0.00    +0.000 C 
ATOM     15  O   UNL     1       7.706   6.884  17.699  0.00  0.00    +0.000 OA
ENDBRANCH  12  15
ENDBRANCH  11  12
BRANCH  11  16
ATOM     16  C   UNL     1       6.814   4.436  15.601  0.00  0.00    +0.000 C 
ATOM     17  C   UNL     1       5.574   4.176  14.754  0.00  0.00    +0.000 C 
BRANCH  16  18
ATOM     18  O   UNL     1       7.633   5.383  14.896  0.00  0.00    +0.000 OA
ATOM     19  H   UNL     1       7.966   6.032  15.542  0.00  0.00    +0.000 HD
ENDBRANCH  16  18
ENDBRANCH  11  16
ENDBRANCH   1  11
TORSDOF 6
ENDMDL
MODEL 4
REMARK VINA RESULT:      -6.5      1.379      3.023
REMARK  Name = 
REMARK  8 active torsions:
REMARK  status: ('A' for Active; 'I' for Inactive)
REMARK    1  A    between atoms: C_1  and  O_2
REMARK    2  A    between atoms: O_2  and  C_3
REMARK    3  A    between atoms: C_3  and  C_5
REMARK    4  A    between atoms: C_5  and  N_6
REMARK    5  A    between atoms: C_5  and  C_15
REMARK    6  A    between atoms: C_7  and  C_9
REMARK    7  A    between atoms: C_15  and  C_16
REMARK    8  A    between atoms: C_15  and  O_17
REMARK                            x       y       z     vdW  Elec       q    Type
REMARK                         _______ _______ _______ _____ _____    ______ ____
ROOT
ATOM      1  N   UNL     1       5.190   4.724  17.344  0.00  0.00    +0.000 N 
ATOM      2  C   UNL     1       4.014   5.295  17.767  0.00  0.00    +0.000 C 
ATOM      3  O   UNL     1       3.830   6.505  17.786  0.00  0.00    +0.000 OA
ATOM      4  H   UNL     1       5.324   3.723  17.391  0.00  0.00    +0.000 HD
ENDROOT
BRANCH   2   5
ATOM      5  C   UNL     1       2.967   4.356  18.263  0.00  0.00    +0.000 A 
ATOM      6  C   UNL     1       2.923   3.064  17.724  0.00  0.00    +0.000 A 
ATOM      7  C   UNL     1       1.931   2.168  18.126  0.00  0.00    +0.000 A 
ATOM      8  C   UNL     1       0.987   2.555  19.077  0.00  0.00    +0.000 A 
ATOM      9  C   UNL     1       1.043   3.829  19.639  0.00  0.00    +0.000 A 
ATOM     10  C   UNL     1       2.034   4.729  19.240  0.00  0.00    +0.000 A 
ENDBRANCH   2   5
BRANCH   1  11
ATOM     11  C   UNL     1       6.311   5.531  16.844  0.00  0.00    +0.000 C 
BRANCH  11  12
ATOM     12  C   UNL     1       6.710   5.044  15.449  0.00  0.00    +0.000 C 
ATOM     13  O   UNL     1       7.740   5.361  14.864  0.00  0.00    +0.000 OA
BRANCH  12  15
ATOM     14  C   UNL     1       5.965   3.786  13.603  0.00  0.00    +0.000 C 
ATOM     15  O   UNL     1       5.710   4.283  14.918  0.00  0.00    +0.000 OA
ENDBRANCH  12  15
ENDBRANCH  11  12
BRANCH  11  16
ATOM     16  C   UNL     1       7.521   5.405  17.793  0.00  0.00    +0.000 C 
ATOM     17  C   UNL     1       7.168   5.552  19.268  0.00  0.00    +0.000 C 
BRANCH  16  18
ATOM     18  O   UNL     1       8.155   4.127  17.621  0.00  0.00    +0.000 OA
ATOM     19  H   UNL     1       8.043   3.623  18.447  0.00  0.00    +0.000 HD
ENDBRANCH  16  18
ENDBRANCH  11  16
ENDBRANCH   1  11
TORSDOF 6
ENDMDL
MODEL 5
REMARK VINA RESULT:      -6.5      1.725      2.267
REMARK  Name = 
REMARK  8 active torsions:
REMARK  status: ('A' for Active; 'I' for Inactive)
REMARK    1  A    between atoms: C_1  and  O_2
REMARK    2  A    between atoms: O_2  and  C_3
REMARK    3  A    between atoms: C_3  and  C_5
REMARK    4  A    between atoms: C_5  and  N_6
REMARK    5  A    between atoms: C_5  and  C_15
REMARK    6  A    between atoms: C_7  and  C_9
REMARK    7  A    between atoms: C_15  and  C_16
REMARK    8  A    between atoms: C_15  and  O_17
REMARK                            x       y       z     vdW  Elec       q    Type
REMARK                         _______ _______ _______ _____ _____    ______ ____
ROOT
ATOM      1  N   UNL     1       4.735   4.107  18.026  0.00  0.00    +0.000 N 
ATOM      2  C   UNL     1       3.500   3.518  17.897  0.00  0.00    +0.000 C 
ATOM      3  O   UNL     1       3.019   3.213  16.813  0.00  0.00    +0.000 OA
ATOM      4  H   UNL     1       5.078   4.392  18.934  0.00  0.00    +0.000 HD
ENDROOT
BRANCH   2   5
ATOM      5  C   UNL     1       2.733   3.312  19.159  0.00  0.00    +0.000 A 
ATOM      6  C   UNL     1       3.413   2.811  20.276  0.00  0.00    +0.000 A 
ATOM      7  C   UNL     1       2.723   2.560  21.464  0.00  0.00    +0.000 A 
ATOM      8  C   UNL     1       1.356   2.818  21.543  0.00  0.00    +0.000 A 
ATOM      9  C   UNL     1       0.679   3.344  20.444  0.00  0.00    +0.000 A 
ATOM     10  C   UNL     1       1.365   3.598  19.254  0.00  0.00    +0.000 A 
ENDBRANCH   2   5
BRANCH   1  11
ATOM     11  C   UNL     1       5.592   4.382  16.865  0.00  0.00    +0.000 C 
BRANCH  11  12
ATOM     12  C   UNL     1       7.043   4.533  17.325  0.00  0.00    +0.000 C 
ATOM     13  O   UNL     1       8.022   4.478  16.588  0.00  0.00    +0.000 OA
BRANCH  12  15
ATOM     14  C   UNL     1       7.820   5.772  19.171  0.00  0.00    +0.000 C 
ATOM     15  O   UNL     1       7.092   4.643  18.685  0.00  0.00    +0.000 OA
ENDBRANCH  12  15
ENDBRANCH  11  12
BRANCH  11  16
ATOM     16  C   UNL     1       5.141   5.683  16.168  0.00  0.00    +0.000 C 
ATOM     17  C   UNL     1       4.820   6.821  17.130  0.00  0.00    +0.000 C 
BRANCH  16  18
ATOM     18  O   UNL     1       6.163   6.144  15.271  0.00  0.00    +0.000 OA
ATOM     19  H   UNL     1       5.730   6.627  14.544  0.00  0.00    +0.000 HD
ENDBRANCH  16  18
ENDBRANCH  11  16
ENDBRANCH   1  11
TORSDOF 6
ENDMDL
MODEL 6
REMARK VINA RESULT:      -6.5      1.485      2.798
REMARK  Name = 
REMARK  8 active torsions:
REMARK  status: ('A' for Active; 'I' for Inactive)
REMARK    1  A    between atoms: C_1  and  O_2
REMARK    2  A    between atoms: O_2  and  C_3
REMARK    3  A    between atoms: C_3  and  C_5
REMARK    4  A    between atoms: C_5  and  N_6
REMARK    5  A    between atoms: C_5  and  C_15
REMARK    6  A    between atoms: C_7  and  C_9
REMARK    7  A    between atoms: C_15  and  C_16
REMARK    8  A    between atoms: C_15  and  O_17
REMARK                            x       y       z     vdW  Elec       q    Type
REMARK                         _______ _______ _______ _____ _____    ______ ____
ROOT
ATOM      1  N   UNL     1       5.044   4.782  17.720  0.00  0.00    +0.000 N 
ATOM      2  C   UNL     1       3.862   5.471  17.840  0.00  0.00    +0.000 C 
ATOM      3  O   UNL     1       3.699   6.597  17.388  0.00  0.00    +0.000 OA
ATOM      4  H   UNL     1       5.159   3.875  18.152  0.00  0.00    +0.000 HD
ENDROOT
BRANCH   2   5
ATOM      5  C   UNL     1       2.779   4.794  18.610  0.00  0.00    +0.000 A 
ATOM      6  C   UNL     1       2.335   5.389  19.797  0.00  0.00    +0.000 A 
ATOM      7  C   UNL     1       1.355   4.766  20.572  0.00  0.00    +0.000 A 
ATOM      8  C   UNL     1       0.808   3.552  20.159  0.00  0.00    +0.000 A 
ATOM      9  C   UNL     1       1.225   2.968  18.963  0.00  0.00    +0.000 A 
ATOM     10  C   UNL     1       2.204   3.589  18.184  0.00  0.00    +0.000 A 
ENDBRANCH   2   5
BRANCH   1  11
ATOM     11  C   UNL     1       6.200   5.336  17.001  0.00  0.00    +0.000 C 
BRANCH  11  12
ATOM     12  C   UNL     1       6.476   4.497  15.753  0.00  0.00    +0.000 C 
ATOM     13  O   UNL     1       6.004   3.386  15.536  0.00  0.00    +0.000 OA
BRANCH  12  15
ATOM     14  C   UNL     1       7.194   4.962  13.559  0.00  0.00    +0.000 C 
ATOM     15  O   UNL     1       7.396   5.124  14.964  0.00  0.00    +0.000 OA
ENDBRANCH  12  15
ENDBRANCH  11  12
BRANCH  11  16
ATOM     16  C   UNL     1       7.446   5.325  17.910  0.00  0.00    +0.000 C 
ATOM     17  C   UNL     1       7.132   5.475  19.393  0.00  0.00    +0.000 C 
BRANCH  16  18
ATOM     18  O   UNL     1       8.172   4.097  17.739  0.00  0.00    +0.000 OA
ATOM     19  H   UNL     1       7.921   3.496  18.464  0.00  0.00    +0.000 HD
ENDBRANCH  16  18
ENDBRANCH  11  16
ENDBRANCH   1  11
TORSDOF 6
ENDMDL
MODEL 7
REMARK VINA RESULT:      -6.5      1.516      3.061
REMARK  Name = 
REMARK  8 active torsions:
REMARK  status: ('A' for Active; 'I' for Inactive)
REMARK    1  A    between atoms: C_1  and  O_2
REMARK    2  A    between atoms: O_2  and  C_3
REMARK    3  A    between atoms: C_3  and  C_5
REMARK    4  A    between atoms: C_5  and  N_6
REMARK    5  A    between atoms: C_5  and  C_15
REMARK    6  A    between atoms: C_7  and  C_9
REMARK    7  A    between atoms: C_15  and  C_16
REMARK    8  A    between atoms: C_15  and  O_17
REMARK                            x       y       z     vdW  Elec       q    Type
REMARK                         _______ _______ _______ _____ _____    ______ ____
ROOT
ATOM      1  N   UNL     1       5.163   4.890  17.720  0.00  0.00    +0.000 N 
ATOM      2  C   UNL     1       4.029   5.644  17.901  0.00  0.00    +0.000 C 
ATOM      3  O   UNL     1       3.907   6.780  17.461  0.00  0.00    +0.000 OA
ATOM      4  H   UNL     1       5.247   3.975  18.142  0.00  0.00    +0.000 HD
ENDROOT
BRANCH   2   5
ATOM      5  C   UNL     1       2.949   5.024  18.721  0.00  0.00    +0.000 A 
ATOM      6  C   UNL     1       2.129   4.059  18.122  0.00  0.00    +0.000 A 
ATOM      7  C   UNL     1       1.077   3.487  18.839  0.00  0.00    +0.000 A 
ATOM      8  C   UNL     1       0.847   3.866  20.161  0.00  0.00    +0.000 A 
ATOM      9  C   UNL     1       1.678   4.804  20.773  0.00  0.00    +0.000 A 
ATOM     10  C   UNL     1       2.732   5.379  20.059  0.00  0.00    +0.000 A 
ENDBRANCH   2   5
BRANCH   1  11
ATOM     11  C   UNL     1       6.310   5.383  16.946  0.00  0.00    +0.000 C 
BRANCH  11  12
ATOM     12  C   UNL     1       6.521   4.491  15.721  0.00  0.00    +0.000 C 
ATOM     13  O   UNL     1       5.972   3.410  15.536  0.00  0.00    +0.000 OA
BRANCH  12  15
ATOM     14  C   UNL     1       7.229   4.894  13.511  0.00  0.00    +0.000 C 
ATOM     15  O   UNL     1       7.478   5.031  14.911  0.00  0.00    +0.000 OA
ENDBRANCH  12  15
ENDBRANCH  11  12
BRANCH  11  16
ATOM     16  C   UNL     1       7.584   5.365  17.815  0.00  0.00    +0.000 C 
ATOM     17  C   UNL     1       7.332   5.657  19.289  0.00  0.00    +0.000 C 
BRANCH  16  18
ATOM     18  O   UNL     1       8.226   4.083  17.727  0.00  0.00    +0.000 OA
ATOM     19  H   UNL     1       8.251   3.697  18.622  0.00  0.00    +0.000 HD
ENDBRANCH  16  18
ENDBRANCH  11  16
ENDBRANCH   1  11
TORSDOF 6
ENDMDL
MODEL 8
REMARK VINA RESULT:      -6.4      1.604      2.899
REMARK  Name = 
REMARK  8 active torsions:
REMARK  status: ('A' for Active; 'I' for Inactive)
REMARK    1  A    between atoms: C_1  and  O_2
REMARK    2  A    between atoms: O_2  and  C_3
REMARK    3  A    between atoms: C_3  and  C_5
REMARK    4  A    between atoms: C_5  and  N_6
REMARK    5  A    between atoms: C_5  and  C_15
REMARK    6  A    between atoms: C_7  and  C_9
REMARK    7  A    between atoms: C_15  and  C_16
REMARK    8  A    between atoms: C_15  and  O_17
REMARK                            x       y       z     vdW  Elec       q    Type
REMARK                         _______ _______ _______ _____ _____    ______ ____
ROOT
ATOM      1  N   UNL     1       4.771   5.477  17.282  0.00  0.00    +0.000 N 
ATOM      2  C   UNL     1       3.623   6.060  17.760  0.00  0.00    +0.000 C 
ATOM      3  O   UNL     1       3.404   7.262  17.679  0.00  0.00    +0.000 OA
ATOM      4  H   UNL     1       4.940   4.488  17.413  0.00  0.00    +0.000 HD
ENDROOT
BRANCH   2   5
ATOM      5  C   UNL     1       2.658   5.153  18.444  0.00  0.00    +0.000 A 
ATOM      6  C   UNL     1       2.324   5.422  19.778  0.00  0.00    +0.000 A 
ATOM      7  C   UNL     1       1.460   4.572  20.471  0.00  0.00    +0.000 A 
ATOM      8  C   UNL     1       0.917   3.458  19.832  0.00  0.00    +0.000 A 
ATOM      9  C   UNL     1       1.222   3.201  18.496  0.00  0.00    +0.000 A 
ATOM     10  C   UNL     1       2.086   4.049  17.798  0.00  0.00    +0.000 A 
ENDBRANCH   2   5
BRANCH   1  11
ATOM     11  C   UNL     1       5.815   6.254  16.600  0.00  0.00    +0.000 C 
BRANCH  11  12
ATOM     12  C   UNL     1       6.585   5.345  15.640  0.00  0.00    +0.000 C 
ATOM     13  O   UNL     1       7.681   5.604  15.156  0.00  0.00    +0.000 OA
BRANCH  12  15
ATOM     14  C   UNL     1       5.901   3.838  13.964  0.00  0.00    +0.000 C 
ATOM     15  O   UNL     1       5.831   4.250  15.331  0.00  0.00    +0.000 OA
ENDBRANCH  12  15
ENDBRANCH  11  12
BRANCH  11  16
ATOM     16  C   UNL     1       6.793   6.851  17.632  0.00  0.00    +0.000 C 
ATOM     17  C   UNL     1       7.550   5.806  18.444  0.00  0.00    +0.000 C 
BRANCH  16  18
ATOM     18  O   UNL     1       7.765   7.679  16.973  0.00  0.00    +0.000 OA
ATOM     19  H   UNL     1       7.379   8.567  16.864  0.00  0.00    +0.000 HD
ENDBRANCH  16  18
ENDBRANCH  11  16
ENDBRANCH   1  11
TORSDOF 6
ENDMDL
MODEL 9
REMARK VINA RESULT:      -6.4      1.755      2.818
REMARK  Name = 
REMARK  8 active torsions:
REMARK  status: ('A' for Active; 'I' for Inactive)
REMARK    1  A    between atoms: C_1  and  O_2
REMARK    2  A    between atoms: O_2  and  C_3
REMARK    3  A    between atoms: C_3  and  C_5
REMARK    4  A    between atoms: C_5  and  N_6
REMARK    5  A    between atoms: C_5  and  C_15
REMARK    6  A    between atoms: C_7  and  C_9
REMARK    7  A    between atoms: C_15  and  C_16
REMARK    8  A    between atoms: C_15  and  O_17
REMARK                            x       y       z     vdW  Elec       q    Type
REMARK                         _______ _______ _______ _____ _____    ______ ____
ROOT
ATOM      1  N   UNL     1       4.420   5.619  18.034  0.00  0.00    +0.000 N 
ATOM      2  C   UNL     1       3.121   5.894  18.386  0.00  0.00    +0.000 C 
ATOM      3  O   UNL     1       2.564   6.948  18.106  0.00  0.00    +0.000 OA
ATOM      4  H   UNL     1       4.863   4.758  18.328  0.00  0.00    +0.000 HD
ENDROOT
BRANCH   2   5
ATOM      5  C   UNL     1       2.420   4.850  19.188  0.00  0.00    +0.000 A 
ATOM      6  C   UNL     1       2.655   4.803  20.568  0.00  0.00    +0.000 A 
ATOM      7  C   UNL     1       2.056   3.813  21.349  0.00  0.00    +0.000 A 
ATOM      8  C   UNL     1       1.211   2.875  20.757  0.00  0.00    +0.000 A 
ATOM      9  C   UNL     1       0.949   2.934  19.389  0.00  0.00    +0.000 A 
ATOM     10  C   UNL     1       1.547   3.923  18.603  0.00  0.00    +0.000 A 
ENDBRANCH   2   5
BRANCH   1  11
ATOM     11  C   UNL     1       5.233   6.564  17.257  0.00  0.00    +0.000 C 
BRANCH  11  12
ATOM     12  C   UNL     1       5.211   6.164  15.781  0.00  0.00    +0.000 C 
ATOM     13  O   UNL     1       5.131   6.950  14.842  0.00  0.00    +0.000 OA
BRANCH  12  15
ATOM     14  C   UNL     1       5.764   4.298  14.455  0.00  0.00    +0.000 C 
ATOM     15  O   UNL     1       5.201   4.805  15.666  0.00  0.00    +0.000 OA
ENDBRANCH  12  15
ENDBRANCH  11  12
BRANCH  11  16
ATOM     16  C   UNL     1       6.690   6.555  17.766  0.00  0.00    +0.000 C 
ATOM     17  C   UNL     1       6.998   5.424  18.739  0.00  0.00    +0.000 C 
BRANCH  16  18
ATOM     18  O   UNL     1       7.600   6.440  16.660  0.00  0.00    +0.000 OA
ATOM     19  H   UNL     1       7.102   6.618  15.841  0.00  0.00    +0.000 HD
ENDBRANCH  16  18
ENDBRANCH  11  16
ENDBRANCH   1  11
TORSDOF 6
ENDMDL
