MODEL 1
REMARK VINA RESULT:      -7.6      0.000      0.000
REMARK  Name = 
REMARK  3 active torsions:
REMARK  status: ('A' for Active; 'I' for Inactive)
REMARK    1  A    between atoms: C_1  and  O_2
REMARK    2  A    between atoms: O_2  and  C_3
REMARK    3  A    between atoms: N_12  and  C_13
REMARK                            x       y       z     vdW  Elec       q    Type
REMARK                         _______ _______ _______ _____ _____    ______ ____
ROOT
ATOM      1  C   UNL     1      -2.090  12.340  22.783  0.00  0.00    +0.000 A 
ATOM      2  C   UNL     1      -2.071  12.850  21.487  0.00  0.00    +0.000 A 
ATOM      3  C   UNL     1      -1.323  12.229  20.479  0.00  0.00    +0.000 A 
ATOM      4  C   UNL     1      -0.563  11.068  20.765  0.00  0.00    +0.000 A 
ATOM      5  C   UNL     1      -0.599  10.580  22.071  0.00  0.00    +0.000 A 
ATOM      6  C   UNL     1      -1.355  11.196  23.086  0.00  0.00    +0.000 A 
ATOM      7  S   UNL     1       0.368   9.179  22.257  0.00  0.00    +0.000 S 
ATOM      8  C   UNL     1       0.838   9.184  20.611  0.00  0.00    +0.000 A 
ATOM      9  C   UNL     1       1.653   8.262  19.941  0.00  0.00    +0.000 A 
ATOM     10  N   UNL     1       2.180   7.161  20.638  0.00  0.00    +0.000 N 
ATOM     11  N   UNL     1       1.855   8.468  18.620  0.00  0.00    +0.000 NA
ATOM     12  C   UNL     1       1.284   9.528  18.032  0.00  0.00    +0.000 A 
ATOM     13  N   UNL     1       0.495  10.448  18.596  0.00  0.00    +0.000 NA
ATOM     14  C   UNL     1       0.273  10.247  19.922  0.00  0.00    +0.000 A 
ATOM     15  H   UNL     1       1.889   7.164  21.609  0.00  0.00    +0.000 HD
ENDROOT
BRANCH  10  16
ATOM     16  C   UNL     1       2.517   5.884  20.159  0.00  0.00    +0.000 A 
ATOM     17  C   UNL     1       3.713   5.615  19.486  0.00  0.00    +0.000 A 
ATOM     18  C   UNL     1       3.967   4.348  18.951  0.00  0.00    +0.000 A 
ATOM     19  C   UNL     1       3.021   3.337  19.090  0.00  0.00    +0.000 A 
ATOM     20 BR   UNL     1       3.340   1.640  18.326  0.00  0.00    +0.000 Br
ATOM     21  C   UNL     1       1.837   3.574  19.784  0.00  0.00    +0.000 A 
ATOM     22  C   UNL     1       1.593   4.839  20.321  0.00  0.00    +0.000 A 
ENDBRANCH  10  16
BRANCH   1  24
ATOM     23  C   UNL     1      -4.270  12.866  23.560  0.00  0.00    +0.000 C 
ATOM     24  O   UNL     1      -2.861  13.034  23.677  0.00  0.00    +0.000 OA
ENDBRANCH   1  24
TORSDOF 2
ENDMDL
MODEL 2
REMARK VINA RESULT:      -7.5      4.899      8.965
REMARK  Name = 
REMARK  3 active torsions:
REMARK  status: ('A' for Active; 'I' for Inactive)
REMARK    1  A    between atoms: C_1  and  O_2
REMARK    2  A    between atoms: O_2  and  C_3
REMARK    3  A    between atoms: N_12  and  C_13
REMARK                            x       y       z     vdW  Elec       q    Type
REMARK                         _______ _______ _______ _____ _____    ______ ____
ROOT
ATOM      1  C   UNL     1       5.599   4.804  15.266  0.00  0.00    +0.000 A 
ATOM      2  C   UNL     1       5.021   3.621  15.718  0.00  0.00    +0.000 A 
ATOM      3  C   UNL     1       4.157   3.617  16.821  0.00  0.00    +0.000 A 
ATOM      4  C   UNL     1       3.862   4.823  17.503  0.00  0.00    +0.000 A 
ATOM      5  C   UNL     1       4.456   5.992  17.030  0.00  0.00    +0.000 A 
ATOM      6  C   UNL     1       5.319   6.003  15.918  0.00  0.00    +0.000 A 
ATOM      7  S   UNL     1       4.004   7.359  17.957  0.00  0.00    +0.000 S 
ATOM      8  C   UNL     1       3.002   6.431  18.989  0.00  0.00    +0.000 A 
ATOM      9  C   UNL     1       2.207   6.877  20.052  0.00  0.00    +0.000 A 
ATOM     10  N   UNL     1       2.163   8.247  20.365  0.00  0.00    +0.000 N 
ATOM     11  N   UNL     1       1.475   5.946  20.705  0.00  0.00    +0.000 NA
ATOM     12  C   UNL     1       1.555   4.666  20.314  0.00  0.00    +0.000 A 
ATOM     13  N   UNL     1       2.283   4.162  19.314  0.00  0.00    +0.000 NA
ATOM     14  C   UNL     1       3.015   5.088  18.641  0.00  0.00    +0.000 A 
ATOM     15  H   UNL     1       2.753   8.788  19.743  0.00  0.00    +0.000 HD
ENDROOT
BRANCH  10  16
ATOM     16  C   UNL     1       1.123   8.996  20.939  0.00  0.00    +0.000 A 
ATOM     17  C   UNL     1       0.257   9.798  20.188  0.00  0.00    +0.000 A 
ATOM     18  C   UNL     1      -0.708  10.593  20.812  0.00  0.00    +0.000 A 
ATOM     19  C   UNL     1      -0.816  10.589  22.200  0.00  0.00    +0.000 A 
ATOM     20 BR   UNL     1      -2.085  11.700  23.048  0.00  0.00    +0.000 Br
ATOM     21  C   UNL     1       0.015   9.775  22.966  0.00  0.00    +0.000 A 
ATOM     22  C   UNL     1       0.973   8.979  22.336  0.00  0.00    +0.000 A 
ENDBRANCH  10  16
BRANCH   1  24
ATOM     23  C   UNL     1       6.039   3.712  13.205  0.00  0.00    +0.000 C 
ATOM     24  O   UNL     1       6.421   4.679  14.178  0.00  0.00    +0.000 OA
ENDBRANCH   1  24
TORSDOF 2
ENDMDL
MODEL 3
REMARK VINA RESULT:      -7.5      0.531      1.134
REMARK  Name = 
REMARK  3 active torsions:
REMARK  status: ('A' for Active; 'I' for Inactive)
REMARK    1  A    between atoms: C_1  and  O_2
REMARK    2  A    between atoms: O_2  and  C_3
REMARK    3  A    between atoms: N_12  and  C_13
REMARK                            x       y       z     vdW  Elec       q    Type
REMARK                         _______ _______ _______ _____ _____    ______ ____
ROOT
ATOM      1  C   UNL     1      -1.974  12.294  22.830  0.00  0.00    +0.000 A 
ATOM      2  C   UNL     1      -1.855  12.884  21.574  0.00  0.00    +0.000 A 
ATOM      3  C   UNL     1      -1.092  12.284  20.565  0.00  0.00    +0.000 A 
ATOM      4  C   UNL     1      -0.418  11.062  20.809  0.00  0.00    +0.000 A 
ATOM      5  C   UNL     1      -0.552  10.494  22.075  0.00  0.00    +0.000 A 
ATOM      6  C   UNL     1      -1.324  11.089  23.091  0.00  0.00    +0.000 A 
ATOM      7  S   UNL     1       0.320   9.027  22.213  0.00  0.00    +0.000 S 
ATOM      8  C   UNL     1       0.876   9.109  20.597  0.00  0.00    +0.000 A 
ATOM      9  C   UNL     1       1.671   8.184  19.907  0.00  0.00    +0.000 A 
ATOM     10  N   UNL     1       2.095   7.009  20.553  0.00  0.00    +0.000 N 
ATOM     11  N   UNL     1       1.956   8.461  18.615  0.00  0.00    +0.000 NA
ATOM     12  C   UNL     1       1.479   9.591  18.073  0.00  0.00    +0.000 A 
ATOM     13  N   UNL     1       0.716  10.519  18.658  0.00  0.00    +0.000 NA
ATOM     14  C   UNL     1       0.412  10.247  19.954  0.00  0.00    +0.000 A 
ATOM     15  H   UNL     1       1.753   6.967  21.507  0.00  0.00    +0.000 HD
ENDROOT
BRANCH  10  16
ATOM     16  C   UNL     1       2.382   5.748  20.007  0.00  0.00    +0.000 A 
ATOM     17  C   UNL     1       1.474   4.684  20.025  0.00  0.00    +0.000 A 
ATOM     18  C   UNL     1       1.836   3.421  19.547  0.00  0.00    +0.000 A 
ATOM     19  C   UNL     1       3.116   3.214  19.043  0.00  0.00    +0.000 A 
ATOM     20 BR   UNL     1       3.624   1.497  18.443  0.00  0.00    +0.000 Br
ATOM     21  C   UNL     1       4.027   4.266  18.985  0.00  0.00    +0.000 A 
ATOM     22  C   UNL     1       3.657   5.526  19.459  0.00  0.00    +0.000 A 
ENDBRANCH  10  16
BRANCH   1  24
ATOM     23  C   UNL     1      -2.454  14.357  23.900  0.00  0.00    +0.000 C 
ATOM     24  O   UNL     1      -2.750  12.974  23.729  0.00  0.00    +0.000 OA
ENDBRANCH   1  24
TORSDOF 2
ENDMDL
MODEL 4
REMARK VINA RESULT:      -6.9      4.933      9.085
REMARK  Name = 
REMARK  3 active torsions:
REMARK  status: ('A' for Active; 'I' for Inactive)
REMARK    1  A    between atoms: C_1  and  O_2
REMARK    2  A    between atoms: O_2  and  C_3
REMARK    3  A    between atoms: N_12  and  C_13
REMARK                            x       y       z     vdW  Elec       q    Type
REMARK                         _______ _______ _______ _____ _____    ______ ____
ROOT
ATOM      1  C   UNL     1       5.773   4.420  15.695  0.00  0.00    +0.000 A 
ATOM      2  C   UNL     1       5.352   3.430  16.579  0.00  0.00    +0.000 A 
ATOM      3  C   UNL     1       4.489   3.731  17.641  0.00  0.00    +0.000 A 
ATOM      4  C   UNL     1       4.034   5.058  17.837  0.00  0.00    +0.000 A 
ATOM      5  C   UNL     1       4.472   6.029  16.939  0.00  0.00    +0.000 A 
ATOM      6  C   UNL     1       5.332   5.731  15.866  0.00  0.00    +0.000 A 
ATOM      7  S   UNL     1       3.837   7.576  17.310  0.00  0.00    +0.000 S 
ATOM      8  C   UNL     1       2.959   6.984  18.655  0.00  0.00    +0.000 A 
ATOM      9  C   UNL     1       2.104   7.693  19.509  0.00  0.00    +0.000 A 
ATOM     10  N   UNL     1       1.879   9.063  19.292  0.00  0.00    +0.000 N 
ATOM     11  N   UNL     1       1.498   6.990  20.492  0.00  0.00    +0.000 NA
ATOM     12  C   UNL     1       1.748   5.677  20.602  0.00  0.00    +0.000 A 
ATOM     13  N   UNL     1       2.544   4.930  19.830  0.00  0.00    +0.000 NA
ATOM     14  C   UNL     1       3.151   5.622  18.831  0.00  0.00    +0.000 A 
ATOM     15  H   UNL     1       2.397   9.401  18.489  0.00  0.00    +0.000 HD
ENDROOT
BRANCH  10  16
ATOM     16  C   UNL     1       0.745   9.836  19.591  0.00  0.00    +0.000 A 
ATOM     17  C   UNL     1      -0.299  10.040  18.683  0.00  0.00    +0.000 A 
ATOM     18  C   UNL     1      -1.366  10.889  18.993  0.00  0.00    +0.000 A 
ATOM     19  C   UNL     1      -1.396  11.540  20.223  0.00  0.00    +0.000 A 
ATOM     20 BR   UNL     1      -2.811  12.725  20.624  0.00  0.00    +0.000 Br
ATOM     21  C   UNL     1      -0.384  11.327  21.155  0.00  0.00    +0.000 A 
ATOM     22  C   UNL     1       0.676  10.474  20.841  0.00  0.00    +0.000 A 
ENDBRANCH  10  16
BRANCH   1  24
ATOM     23  C   UNL     1       6.026   3.827  13.411  0.00  0.00    +0.000 C 
ATOM     24  O   UNL     1       6.612   4.001  14.697  0.00  0.00    +0.000 OA
ENDBRANCH   1  24
TORSDOF 2
ENDMDL
MODEL 5
REMARK VINA RESULT:      -6.7      4.839      8.890
REMARK  Name = 
REMARK  3 active torsions:
REMARK  status: ('A' for Active; 'I' for Inactive)
REMARK    1  A    between atoms: C_1  and  O_2
REMARK    2  A    between atoms: O_2  and  C_3
REMARK    3  A    between atoms: N_12  and  C_13
REMARK                            x       y       z     vdW  Elec       q    Type
REMARK                         _______ _______ _______ _____ _____    ______ ____
ROOT
ATOM      1  C   UNL     1       5.428   4.855  15.384  0.00  0.00    +0.000 A 
ATOM      2  C   UNL     1       4.760   3.704  15.792  0.00  0.00    +0.000 A 
ATOM      3  C   UNL     1       3.887   3.727  16.887  0.00  0.00    +0.000 A 
ATOM      4  C   UNL     1       3.674   4.929  17.607  0.00  0.00    +0.000 A 
ATOM      5  C   UNL     1       4.356   6.066  17.178  0.00  0.00    +0.000 A 
ATOM      6  C   UNL     1       5.229   6.050  16.073  0.00  0.00    +0.000 A 
ATOM      7  S   UNL     1       3.995   7.432  18.146  0.00  0.00    +0.000 S 
ATOM      8  C   UNL     1       2.917   6.547  19.138  0.00  0.00    +0.000 A 
ATOM      9  C   UNL     1       2.145   7.015  20.209  0.00  0.00    +0.000 A 
ATOM     10  N   UNL     1       2.199   8.373  20.566  0.00  0.00    +0.000 N 
ATOM     11  N   UNL     1       1.341   6.119  20.824  0.00  0.00    +0.000 NA
ATOM     12  C   UNL     1       1.331   4.850  20.392  0.00  0.00    +0.000 A 
ATOM     13  N   UNL     1       2.032   4.326  19.381  0.00  0.00    +0.000 NA
ATOM     14  C   UNL     1       2.836   5.219  18.746  0.00  0.00    +0.000 A 
ATOM     15  H   UNL     1       2.833   8.889  19.967  0.00  0.00    +0.000 HD
ENDROOT
BRANCH  10  16
ATOM     16  C   UNL     1       1.209   9.177  21.156  0.00  0.00    +0.000 A 
ATOM     17  C   UNL     1       0.875   9.102  22.513  0.00  0.00    +0.000 A 
ATOM     18  C   UNL     1      -0.176   9.860  23.037  0.00  0.00    +0.000 A 
ATOM     19  C   UNL     1      -0.902  10.705  22.203  0.00  0.00    +0.000 A 
ATOM     20 BR   UNL     1      -2.354  11.693  22.898  0.00  0.00    +0.000 Br
ATOM     21  C   UNL     1      -0.567  10.820  20.856  0.00  0.00    +0.000 A 
ATOM     22  C   UNL     1       0.488  10.065  20.340  0.00  0.00    +0.000 A 
ENDBRANCH  10  16
BRANCH   1  24
ATOM     23  C   UNL     1       5.873   3.711  13.353  0.00  0.00    +0.000 C 
ATOM     24  O   UNL     1       6.250   4.706  14.300  0.00  0.00    +0.000 OA
ENDBRANCH   1  24
TORSDOF 2
ENDMDL
MODEL 6
REMARK VINA RESULT:      -6.6      4.917      9.042
REMARK  Name = 
REMARK  3 active torsions:
REMARK  status: ('A' for Active; 'I' for Inactive)
REMARK    1  A    between atoms: C_1  and  O_2
REMARK    2  A    between atoms: O_2  and  C_3
REMARK    3  A    between atoms: N_12  and  C_13
REMARK                            x       y       z     vdW  Elec       q    Type
REMARK                         _______ _______ _______ _____ _____    ______ ____
ROOT
ATOM      1  C   UNL     1       5.624   4.433  15.693  0.00  0.00    +0.000 A 
ATOM      2  C   UNL     1       5.177   3.484  16.609  0.00  0.00    +0.000 A 
ATOM      3  C   UNL     1       4.328   3.844  17.663  0.00  0.00    +0.000 A 
ATOM      4  C   UNL     1       3.914   5.189  17.820  0.00  0.00    +0.000 A 
ATOM      5  C   UNL     1       4.378   6.119  16.891  0.00  0.00    +0.000 A 
ATOM      6  C   UNL     1       5.225   5.762  15.825  0.00  0.00    +0.000 A 
ATOM      7  S   UNL     1       3.792   7.695  17.215  0.00  0.00    +0.000 S 
ATOM      8  C   UNL     1       2.902   7.173  18.581  0.00  0.00    +0.000 A 
ATOM      9  C   UNL     1       2.073   7.933  19.416  0.00  0.00    +0.000 A 
ATOM     10  N   UNL     1       1.889   9.302  19.157  0.00  0.00    +0.000 N 
ATOM     11  N   UNL     1       1.449   7.280  20.422  0.00  0.00    +0.000 NA
ATOM     12  C   UNL     1       1.659   5.964  20.571  0.00  0.00    +0.000 A 
ATOM     13  N   UNL     1       2.429   5.170  19.821  0.00  0.00    +0.000 NA
ATOM     14  C   UNL     1       3.053   5.811  18.798  0.00  0.00    +0.000 A 
ATOM     15  H   UNL     1       2.413   9.599  18.342  0.00  0.00    +0.000 HD
ENDROOT
BRANCH  10  16
ATOM     16  C   UNL     1       0.780  10.119  19.435  0.00  0.00    +0.000 A 
ATOM     17  C   UNL     1       0.623  10.804  20.644  0.00  0.00    +0.000 A 
ATOM     18  C   UNL     1      -0.539  11.535  20.910  0.00  0.00    +0.000 A 
ATOM     19  C   UNL     1      -1.555  11.587  19.961  0.00  0.00    +0.000 A 
ATOM     20 BR   UNL     1      -3.146  12.533  20.338  0.00  0.00    +0.000 Br
ATOM     21  C   UNL     1      -1.407  10.939  18.738  0.00  0.00    +0.000 A 
ATOM     22  C   UNL     1      -0.242  10.216  18.476  0.00  0.00    +0.000 A 
ENDBRANCH  10  16
BRANCH   1  24
ATOM     23  C   UNL     1       5.852   3.773  13.425  0.00  0.00    +0.000 C 
ATOM     24  O   UNL     1       6.446   3.958  14.706  0.00  0.00    +0.000 OA
ENDBRANCH   1  24
TORSDOF 2
ENDMDL
MODEL 7
REMARK VINA RESULT:      -6.5      4.786      8.728
REMARK  Name = 
REMARK  3 active torsions:
REMARK  status: ('A' for Active; 'I' for Inactive)
REMARK    1  A    between atoms: C_1  and  O_2
REMARK    2  A    between atoms: O_2  and  C_3
REMARK    3  A    between atoms: N_12  and  C_13
REMARK                            x       y       z     vdW  Elec       q    Type
REMARK                         _______ _______ _______ _____ _____    ______ ____
ROOT
ATOM      1  C   UNL     1       5.507   4.838  17.191  0.00  0.00    +0.000 A 
ATOM      2  C   UNL     1       5.231   4.285  18.438  0.00  0.00    +0.000 A 
ATOM      3  C   UNL     1       4.289   4.870  19.294  0.00  0.00    +0.000 A 
ATOM      4  C   UNL     1       3.602   6.046  18.904  0.00  0.00    +0.000 A 
ATOM      5  C   UNL     1       3.898   6.579  17.651  0.00  0.00    +0.000 A 
ATOM      6  C   UNL     1       4.838   5.992  16.784  0.00  0.00    +0.000 A 
ATOM      7  S   UNL     1       2.990   7.995  17.328  0.00  0.00    +0.000 S 
ATOM      8  C   UNL     1       2.178   7.917  18.832  0.00  0.00    +0.000 A 
ATOM      9  C   UNL     1       1.180   8.770  19.322  0.00  0.00    +0.000 A 
ATOM     10  N   UNL     1       0.728   9.841  18.532  0.00  0.00    +0.000 N 
ATOM     11  N   UNL     1       0.668   8.481  20.539  0.00  0.00    +0.000 NA
ATOM     12  C   UNL     1       1.138   7.417  21.206  0.00  0.00    +0.000 A 
ATOM     13  N   UNL     1       2.081   6.557  20.810  0.00  0.00    +0.000 NA
ATOM     14  C   UNL     1       2.597   6.829  19.583  0.00  0.00    +0.000 A 
ATOM     15  H   UNL     1       1.210   9.873  17.640  0.00  0.00    +0.000 HD
ENDROOT
BRANCH  10  16
ATOM     16  C   UNL     1      -0.534  10.457  18.507  0.00  0.00    +0.000 A 
ATOM     17  C   UNL     1      -0.888  11.503  19.365  0.00  0.00    +0.000 A 
ATOM     18  C   UNL     1      -2.185  12.027  19.363  0.00  0.00    +0.000 A 
ATOM     19  C   UNL     1      -3.139  11.506  18.495  0.00  0.00    +0.000 A 
ATOM     20 BR   UNL     1      -4.904  12.178  18.526  0.00  0.00    +0.000 Br
ATOM     21  C   UNL     1      -2.801  10.486  17.610  0.00  0.00    +0.000 A 
ATOM     22  C   UNL     1      -1.503   9.972  17.613  0.00  0.00    +0.000 A 
ENDBRANCH  10  16
BRANCH   1  24
ATOM     23  C   UNL     1       6.122   3.955  15.076  0.00  0.00    +0.000 C 
ATOM     24  O   UNL     1       6.444   4.174  16.446  0.00  0.00    +0.000 OA
ENDBRANCH   1  24
TORSDOF 2
ENDMDL
MODEL 8
REMARK VINA RESULT:      -6.5      4.465      8.356
REMARK  Name = 
REMARK  3 active torsions:
REMARK  status: ('A' for Active; 'I' for Inactive)
REMARK    1  A    between atoms: C_1  and  O_2
REMARK    2  A    between atoms: O_2  and  C_3
REMARK    3  A    between atoms: N_12  and  C_13
REMARK                            x       y       z     vdW  Elec       q    Type
REMARK                         _______ _______ _______ _____ _____    ______ ____
ROOT
ATOM      1  C   UNL     1       3.931   4.329  19.042  0.00  0.00    +0.000 A 
ATOM      2  C   UNL     1       4.267   5.012  17.877  0.00  0.00    +0.000 A 
ATOM      3  C   UNL     1       3.762   6.294  17.622  0.00  0.00    +0.000 A 
ATOM      4  C   UNL     1       2.890   6.916  18.549  0.00  0.00    +0.000 A 
ATOM      5  C   UNL     1       2.568   6.208  19.706  0.00  0.00    +0.000 A 
ATOM      6  C   UNL     1       3.079   4.923  19.971  0.00  0.00    +0.000 A 
ATOM      7  S   UNL     1       1.507   7.090  20.721  0.00  0.00    +0.000 S 
ATOM      8  C   UNL     1       1.468   8.429  19.656  0.00  0.00    +0.000 A 
ATOM      9  C   UNL     1       0.796   9.647  19.822  0.00  0.00    +0.000 A 
ATOM     10  N   UNL     1       0.049   9.878  20.990  0.00  0.00    +0.000 N 
ATOM     11  N   UNL     1       0.944  10.568  18.844  0.00  0.00    +0.000 NA
ATOM     12  C   UNL     1       1.705  10.271  17.780  0.00  0.00    +0.000 A 
ATOM     13  N   UNL     1       2.378   9.140  17.548  0.00  0.00    +0.000 NA
ATOM     14  C   UNL     1       2.247   8.208  18.530  0.00  0.00    +0.000 A 
ATOM     15  H   UNL     1       0.086   9.083  21.617  0.00  0.00    +0.000 HD
ENDROOT
BRANCH  10  16
ATOM     16  C   UNL     1      -0.230  11.091  21.642  0.00  0.00    +0.000 A 
ATOM     17  C   UNL     1      -1.146  11.197  22.693  0.00  0.00    +0.000 A 
ATOM     18  C   UNL     1      -1.455  12.441  23.253  0.00  0.00    +0.000 A 
ATOM     19  C   UNL     1      -0.844  13.591  22.764  0.00  0.00    +0.000 A 
ATOM     20 BR   UNL     1      -1.298  15.276  23.485  0.00  0.00    +0.000 Br
ATOM     21  C   UNL     1       0.094  13.505  21.738  0.00  0.00    +0.000 A 
ATOM     22  C   UNL     1       0.403  12.260  21.187  0.00  0.00    +0.000 A 
ENDBRANCH  10  16
BRANCH   1  24
ATOM     23  C   UNL     1       3.671   1.981  18.813  0.00  0.00    +0.000 C 
ATOM     24  O   UNL     1       4.490   3.086  19.179  0.00  0.00    +0.000 OA
ENDBRANCH   1  24
TORSDOF 2
ENDMDL
MODEL 9
REMARK VINA RESULT:      -6.5      4.643      8.555
REMARK  Name = 
REMARK  3 active torsions:
REMARK  status: ('A' for Active; 'I' for Inactive)
REMARK    1  A    between atoms: C_1  and  O_2
REMARK    2  A    between atoms: O_2  and  C_3
REMARK    3  A    between atoms: N_12  and  C_13
REMARK                            x       y       z     vdW  Elec       q    Type
REMARK                         _______ _______ _______ _____ _____    ______ ____
ROOT
ATOM      1  C   UNL     1       4.439   6.225  17.459  0.00  0.00    +0.000 A 
ATOM      2  C   UNL     1       4.235   5.599  18.685  0.00  0.00    +0.000 A 
ATOM      3  C   UNL     1       3.314   6.108  19.610  0.00  0.00    +0.000 A 
ATOM      4  C   UNL     1       2.577   7.280  19.314  0.00  0.00    +0.000 A 
ATOM      5  C   UNL     1       2.801   7.888  18.079  0.00  0.00    +0.000 A 
ATOM      6  C   UNL     1       3.719   7.376  17.143  0.00  0.00    +0.000 A 
ATOM      7  S   UNL     1       1.839   9.289  17.871  0.00  0.00    +0.000 S 
ATOM      8  C   UNL     1       1.096   9.106  19.403  0.00  0.00    +0.000 A 
ATOM      9  C   UNL     1       0.097   9.901  19.979  0.00  0.00    +0.000 A 
ATOM     10  N   UNL     1      -0.421  10.997  19.267  0.00  0.00    +0.000 N 
ATOM     11  N   UNL     1      -0.352   9.532  21.200  0.00  0.00    +0.000 NA
ATOM     12  C   UNL     1       0.178   8.451  21.789  0.00  0.00    +0.000 A 
ATOM     13  N   UNL     1       1.127   7.643  21.308  0.00  0.00    +0.000 NA
ATOM     14  C   UNL     1       1.580   7.994  20.076  0.00  0.00    +0.000 A 
ATOM     15  H   UNL     1       0.019  11.090  18.359  0.00  0.00    +0.000 HD
ENDROOT
BRANCH  10  16
ATOM     16  C   UNL     1      -1.701  11.573  19.330  0.00  0.00    +0.000 A 
ATOM     17  C   UNL     1      -2.082  12.476  20.327  0.00  0.00    +0.000 A 
ATOM     18  C   UNL     1      -3.393  12.956  20.399  0.00  0.00    +0.000 A 
ATOM     19  C   UNL     1      -4.335  12.536  19.465  0.00  0.00    +0.000 A 
ATOM     20 BR   UNL     1      -6.118  13.145  19.589  0.00  0.00    +0.000 Br
ATOM     21  C   UNL     1      -3.970  11.662  18.444  0.00  0.00    +0.000 A 
ATOM     22  C   UNL     1      -2.658  11.191  18.375  0.00  0.00    +0.000 A 
ENDBRANCH  10  16
BRANCH   1  24
ATOM     23  C   UNL     1       5.251   4.219  16.485  0.00  0.00    +0.000 C 
ATOM     24  O   UNL     1       5.361   5.630  16.640  0.00  0.00    +0.000 OA
ENDBRANCH   1  24
TORSDOF 2
ENDMDL
