MODEL 1
REMARK VINA RESULT:      -7.6      0.000      0.000
REMARK  Name = 
REMARK  7 active torsions:
REMARK  status: ('A' for Active; 'I' for Inactive)
REMARK    1  A    between atoms: C_1  and  C_2
REMARK    2  A    between atoms: C_2  and  N_3
REMARK    3  A    between atoms: C_2  and  C_15
REMARK    4  A    between atoms: C_4  and  C_6
REMARK    5  A    between atoms: C_11  and  C_12
REMARK    6  A    between atoms: C_12  and  O_14
REMARK    7  A    between atoms: C_18  and  N_19
REMARK                            x       y       z     vdW  Elec       q    Type
REMARK                         _______ _______ _______ _____ _____    ______ ____
ROOT
ATOM      1  N   UNL     1       5.213   5.386  17.977  0.00  0.00    +0.000 N 
ATOM      2  C   UNL     1       4.182   4.600  17.536  0.00  0.00    +0.000 C 
ATOM      3  O   UNL     1       4.202   4.032  16.443  0.00  0.00    +0.000 OA
ATOM      4  H   UNL     1       5.104   5.934  18.821  0.00  0.00    +0.000 HD
ENDROOT
BRANCH   2   5
ATOM      5  C   UNL     1       2.980   4.516  18.459  0.00  0.00    +0.000 C 
ATOM      6  C   UNL     1       2.988   5.595  19.551  0.00  0.00    +0.000 C 
ATOM      7  C   UNL     1       1.860   5.409  20.527  0.00  0.00    +0.000 C 
ATOM      8  C   UNL     1       1.124   4.289  20.592  0.00  0.00    +0.000 C 
ATOM      9  C   UNL     1       1.395   3.072  19.745  0.00  0.00    +0.000 C 
ATOM     10  C   UNL     1       2.784   3.107  19.066  0.00  0.00    +0.000 C 
BRANCH  10  11
ATOM     11  C   UNL     1       3.853   2.678  20.080  0.00  0.00    +0.000 C 
ATOM     12  O   UNL     1       3.619   2.344  21.232  0.00  0.00    +0.000 OA
BRANCH  11  13
ATOM     13  O   UNL     1       5.112   2.613  19.598  0.00  0.00    +0.000 OA
ATOM     14  H   UNL     1       5.180   2.472  18.622  0.00  0.00    +0.000 HD
ENDBRANCH  11  13
ENDBRANCH  10  11
ENDBRANCH   2   5
BRANCH   1  16
ATOM     15  C   UNL     1       7.313   4.365  17.173  0.00  0.00    +0.000 C 
ATOM     16  C   UNL     1       6.409   5.598  17.174  0.00  0.00    +0.000 C 
BRANCH  16  17
ATOM     17  C   UNL     1       7.134   6.839  17.649  0.00  0.00    +0.000 A 
ATOM     18  C   UNL     1       8.038   6.742  18.716  0.00  0.00    +0.000 A 
ATOM     19  C   UNL     1       8.737   7.864  19.168  0.00  0.00    +0.000 A 
ATOM     20  C   UNL     1       8.542   9.106  18.553  0.00  0.00    +0.000 A 
ATOM     21  C   UNL     1       7.639   9.212  17.485  0.00  0.00    +0.000 A 
ATOM     22  C   UNL     1       6.944   8.087  17.036  0.00  0.00    +0.000 A 
BRANCH  20  23
ATOM     23  N   UNL     1       9.243  10.260  18.996  0.00  0.00    +0.000 N 
ATOM     24  C   UNL     1       9.398  10.714  20.291  0.00  0.00    +0.000 A 
ATOM     25  C   UNL     1      10.125  11.878  20.229  0.00  0.00    +0.000 A 
ATOM     26  C   UNL     1      10.383  12.058  18.862  0.00  0.00    +0.000 A 
ATOM     27  N   UNL     1       9.867  11.083  18.113  0.00  0.00    +0.000 NA
ENDBRANCH  20  23
ENDBRANCH  16  17
ENDBRANCH   1  16
TORSDOF 6
ENDMDL
MODEL 2
REMARK VINA RESULT:      -7.6      4.490      7.023
REMARK  Name = 
REMARK  7 active torsions:
REMARK  status: ('A' for Active; 'I' for Inactive)
REMARK    1  A    between atoms: C_1  and  C_2
REMARK    2  A    between atoms: C_2  and  N_3
REMARK    3  A    between atoms: C_2  and  C_15
REMARK    4  A    between atoms: C_4  and  C_6
REMARK    5  A    between atoms: C_11  and  C_12
REMARK    6  A    between atoms: C_12  and  O_14
REMARK    7  A    between atoms: C_18  and  N_19
REMARK                            x       y       z     vdW  Elec       q    Type
REMARK                         _______ _______ _______ _____ _____    ______ ____
ROOT
ATOM      1  N   UNL     1       3.331   6.061  18.655  0.00  0.00    +0.000 N 
ATOM      2  C   UNL     1       4.605   5.559  18.667  0.00  0.00    +0.000 C 
ATOM      3  O   UNL     1       5.221   5.339  19.711  0.00  0.00    +0.000 OA
ATOM      4  H   UNL     1       2.909   6.345  17.780  0.00  0.00    +0.000 HD
ENDROOT
BRANCH   2   5
ATOM      5  C   UNL     1       5.236   5.340  17.305  0.00  0.00    +0.000 C 
ATOM      6  C   UNL     1       5.091   3.896  16.803  0.00  0.00    +0.000 C 
ATOM      7  C   UNL     1       5.837   3.675  15.516  0.00  0.00    +0.000 C 
ATOM      8  C   UNL     1       6.735   4.546  15.030  0.00  0.00    +0.000 C 
ATOM      9  C   UNL     1       7.146   5.801  15.757  0.00  0.00    +0.000 C 
ATOM     10  C   UNL     1       6.709   5.810  17.240  0.00  0.00    +0.000 C 
BRANCH  10  11
ATOM     11  C   UNL     1       7.697   4.973  18.063  0.00  0.00    +0.000 C 
ATOM     12  O   UNL     1       8.340   4.030  17.621  0.00  0.00    +0.000 OA
BRANCH  11  13
ATOM     13  O   UNL     1       7.889   5.389  19.332  0.00  0.00    +0.000 OA
ATOM     14  H   UNL     1       8.087   6.352  19.432  0.00  0.00    +0.000 HD
ENDBRANCH  11  13
ENDBRANCH  10  11
ENDBRANCH   2   5
BRANCH   1  16
ATOM     15  C   UNL     1       1.638   5.257  20.263  0.00  0.00    +0.000 C 
ATOM     16  C   UNL     1       2.620   6.368  19.888  0.00  0.00    +0.000 C 
BRANCH  16  17
ATOM     17  C   UNL     1       1.941   7.716  19.769  0.00  0.00    +0.000 A 
ATOM     18  C   UNL     1       1.952   8.386  18.538  0.00  0.00    +0.000 A 
ATOM     19  C   UNL     1       1.320   9.623  18.389  0.00  0.00    +0.000 A 
ATOM     20  C   UNL     1       0.661  10.209  19.475  0.00  0.00    +0.000 A 
ATOM     21  C   UNL     1       0.647   9.546  20.711  0.00  0.00    +0.000 A 
ATOM     22  C   UNL     1       1.278   8.309  20.855  0.00  0.00    +0.000 A 
BRANCH  20  23
ATOM     23  N   UNL     1       0.012  11.466  19.347  0.00  0.00    +0.000 N 
ATOM     24  C   UNL     1       0.526  12.638  18.829  0.00  0.00    +0.000 A 
ATOM     25  C   UNL     1      -0.455  13.595  18.935  0.00  0.00    +0.000 A 
ATOM     26  C   UNL     1      -1.538  12.921  19.517  0.00  0.00    +0.000 A 
ATOM     27  N   UNL     1      -1.272  11.637  19.757  0.00  0.00    +0.000 NA
ENDBRANCH  20  23
ENDBRANCH  16  17
ENDBRANCH   1  16
TORSDOF 6
ENDMDL
MODEL 3
REMARK VINA RESULT:      -7.5      1.433      2.000
REMARK  Name = 
REMARK  7 active torsions:
REMARK  status: ('A' for Active; 'I' for Inactive)
REMARK    1  A    between atoms: C_1  and  C_2
REMARK    2  A    between atoms: C_2  and  N_3
REMARK    3  A    between atoms: C_2  and  C_15
REMARK    4  A    between atoms: C_4  and  C_6
REMARK    5  A    between atoms: C_11  and  C_12
REMARK    6  A    between atoms: C_12  and  O_14
REMARK    7  A    between atoms: C_18  and  N_19
REMARK                            x       y       z     vdW  Elec       q    Type
REMARK                         _______ _______ _______ _____ _____    ______ ____
ROOT
ATOM      1  N   UNL     1       5.338   4.816  18.172  0.00  0.00    +0.000 N 
ATOM      2  C   UNL     1       4.008   5.125  18.286  0.00  0.00    +0.000 C 
ATOM      3  O   UNL     1       3.428   5.863  17.488  0.00  0.00    +0.000 OA
ATOM      4  H   UNL     1       5.804   4.313  18.915  0.00  0.00    +0.000 HD
ENDROOT
BRANCH   2   5
ATOM      5  C   UNL     1       3.302   4.545  19.496  0.00  0.00    +0.000 C 
ATOM      6  C   UNL     1       3.954   3.252  20.006  0.00  0.00    +0.000 C 
ATOM      7  C   UNL     1       3.160   2.628  21.121  0.00  0.00    +0.000 C 
ATOM      8  C   UNL     1       1.908   3.002  21.428  0.00  0.00    +0.000 C 
ATOM      9  C   UNL     1       1.138   4.035  20.643  0.00  0.00    +0.000 C 
ATOM     10  C   UNL     1       1.782   4.356  19.274  0.00  0.00    +0.000 C 
BRANCH  10  11
ATOM     11  C   UNL     1       1.401   3.262  18.268  0.00  0.00    +0.000 C 
ATOM     12  O   UNL     1       0.570   2.389  18.477  0.00  0.00    +0.000 OA
BRANCH  11  13
ATOM     13  O   UNL     1       1.997   3.355  17.061  0.00  0.00    +0.000 OA
ATOM     14  H   UNL     1       2.713   2.694  16.895  0.00  0.00    +0.000 HD
ENDBRANCH  11  13
ENDBRANCH  10  11
ENDBRANCH   2   5
BRANCH   1  16
ATOM     15  C   UNL     1       7.052   4.266  16.481  0.00  0.00    +0.000 C 
ATOM     16  C   UNL     1       6.153   5.345  17.088  0.00  0.00    +0.000 C 
BRANCH  16  17
ATOM     17  C   UNL     1       6.944   6.540  17.575  0.00  0.00    +0.000 A 
ATOM     18  C   UNL     1       6.765   7.784  16.954  0.00  0.00    +0.000 A 
ATOM     19  C   UNL     1       7.466   8.911  17.390  0.00  0.00    +0.000 A 
ATOM     20  C   UNL     1       8.360   8.809  18.462  0.00  0.00    +0.000 A 
ATOM     21  C   UNL     1       8.547   7.568  19.087  0.00  0.00    +0.000 A 
ATOM     22  C   UNL     1       7.843   6.445  18.649  0.00  0.00    +0.000 A 
BRANCH  20  23
ATOM     23  N   UNL     1       9.084   9.942  18.922  0.00  0.00    +0.000 N 
ATOM     24  C   UNL     1       9.288  10.348  20.225  0.00  0.00    +0.000 A 
ATOM     25  C   UNL     1      10.021  11.509  20.180  0.00  0.00    +0.000 A 
ATOM     26  C   UNL     1      10.232  11.737  18.813  0.00  0.00    +0.000 A 
ATOM     27  N   UNL     1       9.682  10.793  18.047  0.00  0.00    +0.000 NA
ENDBRANCH  20  23
ENDBRANCH  16  17
ENDBRANCH   1  16
TORSDOF 6
ENDMDL
MODEL 4
REMARK VINA RESULT:      -7.5      1.450      1.881
REMARK  Name = 
REMARK  7 active torsions:
REMARK  status: ('A' for Active; 'I' for Inactive)
REMARK    1  A    between atoms: C_1  and  C_2
REMARK    2  A    between atoms: C_2  and  N_3
REMARK    3  A    between atoms: C_2  and  C_15
REMARK    4  A    between atoms: C_4  and  C_6
REMARK    5  A    between atoms: C_11  and  C_12
REMARK    6  A    between atoms: C_12  and  O_14
REMARK    7  A    between atoms: C_18  and  N_19
REMARK                            x       y       z     vdW  Elec       q    Type
REMARK                         _______ _______ _______ _____ _____    ______ ____
ROOT
ATOM      1  N   UNL     1       5.395   4.834  18.242  0.00  0.00    +0.000 N 
ATOM      2  C   UNL     1       4.045   5.072  18.266  0.00  0.00    +0.000 C 
ATOM      3  O   UNL     1       3.471   5.716  17.387  0.00  0.00    +0.000 OA
ATOM      4  H   UNL     1       5.846   4.412  19.043  0.00  0.00    +0.000 HD
ENDROOT
BRANCH   2   5
ATOM      5  C   UNL     1       3.307   4.536  19.477  0.00  0.00    +0.000 C 
ATOM      6  C   UNL     1       3.928   3.248  20.035  0.00  0.00    +0.000 C 
ATOM      7  C   UNL     1       3.103   2.668  21.150  0.00  0.00    +0.000 C 
ATOM      8  C   UNL     1       1.851   3.069  21.422  0.00  0.00    +0.000 C 
ATOM      9  C   UNL     1       1.113   4.091  20.594  0.00  0.00    +0.000 C 
ATOM     10  C   UNL     1       1.789   4.364  19.230  0.00  0.00    +0.000 C 
BRANCH  10  11
ATOM     11  C   UNL     1       1.410   3.249  18.247  0.00  0.00    +0.000 C 
ATOM     12  O   UNL     1       0.547   2.408  18.454  0.00  0.00    +0.000 OA
BRANCH  11  13
ATOM     13  O   UNL     1       2.050   3.285  17.060  0.00  0.00    +0.000 OA
ATOM     14  H   UNL     1       2.942   3.710  17.076  0.00  0.00    +0.000 HD
ENDBRANCH  11  13
ENDBRANCH  10  11
ENDBRANCH   2   5
BRANCH   1  16
ATOM     15  C   UNL     1       7.193   4.255  16.652  0.00  0.00    +0.000 C 
ATOM     16  C   UNL     1       6.238   5.334  17.166  0.00  0.00    +0.000 C 
BRANCH  16  17
ATOM     17  C   UNL     1       6.973   6.577  17.622  0.00  0.00    +0.000 A 
ATOM     18  C   UNL     1       7.869   6.492  18.697  0.00  0.00    +0.000 A 
ATOM     19  C   UNL     1       8.576   7.616  19.132  0.00  0.00    +0.000 A 
ATOM     20  C   UNL     1       8.396   8.847  18.492  0.00  0.00    +0.000 A 
ATOM     21  C   UNL     1       7.500   8.942  17.418  0.00  0.00    +0.000 A 
ATOM     22  C   UNL     1       6.797   7.815  16.985  0.00  0.00    +0.000 A 
BRANCH  20  23
ATOM     23  N   UNL     1       9.104  10.003  18.919  0.00  0.00    +0.000 N 
ATOM     24  C   UNL     1       9.758  10.935  18.137  0.00  0.00    +0.000 A 
ATOM     25  C   UNL     1      10.319  11.857  18.987  0.00  0.00    +0.000 A 
ATOM     26  C   UNL     1       9.951  11.421  20.268  0.00  0.00    +0.000 A 
ATOM     27  N   UNL     1       9.209  10.313  20.237  0.00  0.00    +0.000 NA
ENDBRANCH  20  23
ENDBRANCH  16  17
ENDBRANCH   1  16
TORSDOF 6
ENDMDL
MODEL 5
REMARK VINA RESULT:      -7.5      4.190      6.852
REMARK  Name = 
REMARK  7 active torsions:
REMARK  status: ('A' for Active; 'I' for Inactive)
REMARK    1  A    between atoms: C_1  and  C_2
REMARK    2  A    between atoms: C_2  and  N_3
REMARK    3  A    between atoms: C_2  and  C_15
REMARK    4  A    between atoms: C_4  and  C_6
REMARK    5  A    between atoms: C_11  and  C_12
REMARK    6  A    between atoms: C_12  and  O_14
REMARK    7  A    between atoms: C_18  and  N_19
REMARK                            x       y       z     vdW  Elec       q    Type
REMARK                         _______ _______ _______ _____ _____    ______ ____
ROOT
ATOM      1  N   UNL     1       3.600   5.470  18.823  0.00  0.00    +0.000 N 
ATOM      2  C   UNL     1       4.830   4.874  18.931  0.00  0.00    +0.000 C 
ATOM      3  O   UNL     1       5.404   4.730  20.011  0.00  0.00    +0.000 OA
ATOM      4  H   UNL     1       3.221   5.682  17.910  0.00  0.00    +0.000 HD
ENDROOT
BRANCH   2   5
ATOM      5  C   UNL     1       5.470   4.451  17.622  0.00  0.00    +0.000 C 
ATOM      6  C   UNL     1       6.992   4.645  17.610  0.00  0.00    +0.000 C 
ATOM      7  C   UNL     1       7.583   4.342  16.261  0.00  0.00    +0.000 C 
ATOM      8  C   UNL     1       6.841   4.199  15.151  0.00  0.00    +0.000 C 
ATOM      9  C   UNL     1       5.347   4.399  15.125  0.00  0.00    +0.000 C 
ATOM     10  C   UNL     1       4.811   5.112  16.388  0.00  0.00    +0.000 C 
BRANCH  10  11
ATOM     11  C   UNL     1       5.046   6.622  16.254  0.00  0.00    +0.000 C 
ATOM     12  O   UNL     1       5.294   7.369  17.189  0.00  0.00    +0.000 OA
BRANCH  11  13
ATOM     13  O   UNL     1       5.040   7.097  14.991  0.00  0.00    +0.000 OA
ATOM     14  H   UNL     1       4.965   6.409  14.285  0.00  0.00    +0.000 HD
ENDBRANCH  11  13
ENDBRANCH  10  11
ENDBRANCH   2   5
BRANCH   1  16
ATOM     15  C   UNL     1       1.911   4.935  20.543  0.00  0.00    +0.000 C 
ATOM     16  C   UNL     1       2.891   5.971  19.991  0.00  0.00    +0.000 C 
BRANCH  16  17
ATOM     17  C   UNL     1       2.210   7.281  19.656  0.00  0.00    +0.000 A 
ATOM     18  C   UNL     1       1.529   7.981  20.662  0.00  0.00    +0.000 A 
ATOM     19  C   UNL     1       0.904   9.201  20.390  0.00  0.00    +0.000 A 
ATOM     20  C   UNL     1       0.954   9.742  19.101  0.00  0.00    +0.000 A 
ATOM     21  C   UNL     1       1.632   9.048  18.088  0.00  0.00    +0.000 A 
ATOM     22  C   UNL     1       2.256   7.830  18.365  0.00  0.00    +0.000 A 
BRANCH  20  23
ATOM     23  N   UNL     1       0.326  10.981  18.802  0.00  0.00    +0.000 N 
ATOM     24  C   UNL     1       0.864  12.249  18.891  0.00  0.00    +0.000 A 
ATOM     25  C   UNL     1      -0.121  13.135  18.529  0.00  0.00    +0.000 A 
ATOM     26  C   UNL     1      -1.224  12.326  18.222  0.00  0.00    +0.000 A 
ATOM     27  N   UNL     1      -0.962  11.027  18.372  0.00  0.00    +0.000 NA
ENDBRANCH  20  23
ENDBRANCH  16  17
ENDBRANCH   1  16
TORSDOF 6
ENDMDL
MODEL 6
REMARK VINA RESULT:      -7.5      4.277      6.801
REMARK  Name = 
REMARK  7 active torsions:
REMARK  status: ('A' for Active; 'I' for Inactive)
REMARK    1  A    between atoms: C_1  and  C_2
REMARK    2  A    between atoms: C_2  and  N_3
REMARK    3  A    between atoms: C_2  and  C_15
REMARK    4  A    between atoms: C_4  and  C_6
REMARK    5  A    between atoms: C_11  and  C_12
REMARK    6  A    between atoms: C_12  and  O_14
REMARK    7  A    between atoms: C_18  and  N_19
REMARK                            x       y       z     vdW  Elec       q    Type
REMARK                         _______ _______ _______ _____ _____    ______ ____
ROOT
ATOM      1  N   UNL     1       3.479   5.238  18.835  0.00  0.00    +0.000 N 
ATOM      2  C   UNL     1       4.819   4.951  18.838  0.00  0.00    +0.000 C 
ATOM      3  O   UNL     1       5.527   5.101  19.835  0.00  0.00    +0.000 OA
ATOM      4  H   UNL     1       2.962   5.223  17.966  0.00  0.00    +0.000 HD
ENDROOT
BRANCH   2   5
ATOM      5  C   UNL     1       5.393   4.487  17.512  0.00  0.00    +0.000 C 
ATOM      6  C   UNL     1       6.921   4.616  17.443  0.00  0.00    +0.000 C 
ATOM      7  C   UNL     1       7.448   4.274  16.078  0.00  0.00    +0.000 C 
ATOM      8  C   UNL     1       6.662   4.152  14.997  0.00  0.00    +0.000 C 
ATOM      9  C   UNL     1       5.178   4.415  15.022  0.00  0.00    +0.000 C 
ATOM     10  C   UNL     1       4.719   5.163  16.295  0.00  0.00    +0.000 C 
BRANCH  10  11
ATOM     11  C   UNL     1       5.013   6.661  16.134  0.00  0.00    +0.000 C 
ATOM     12  O   UNL     1       5.012   7.255  15.066  0.00  0.00    +0.000 OA
BRANCH  11  13
ATOM     13  O   UNL     1       5.208   7.337  17.286  0.00  0.00    +0.000 OA
ATOM     14  H   UNL     1       6.109   7.242  17.680  0.00  0.00    +0.000 HD
ENDBRANCH  11  13
ENDBRANCH  10  11
ENDBRANCH   2   5
BRANCH   1  16
ATOM     15  C   UNL     1       1.764   4.749  20.543  0.00  0.00    +0.000 C 
ATOM     16  C   UNL     1       2.805   5.741  20.023  0.00  0.00    +0.000 C 
BRANCH  16  17
ATOM     17  C   UNL     1       2.205   7.102  19.737  0.00  0.00    +0.000 A 
ATOM     18  C   UNL     1       2.293   7.635  18.444  0.00  0.00    +0.000 A 
ATOM     19  C   UNL     1       1.735   8.880  18.142  0.00  0.00    +0.000 A 
ATOM     20  C   UNL     1       1.074   9.611  19.135  0.00  0.00    +0.000 A 
ATOM     21  C   UNL     1       0.982   9.086  20.432  0.00  0.00    +0.000 A 
ATOM     22  C   UNL     1       1.540   7.841  20.728  0.00  0.00    +0.000 A 
BRANCH  20  23
ATOM     23  N   UNL     1       0.499  10.879  18.850  0.00  0.00    +0.000 N 
ATOM     24  C   UNL     1      -0.813  11.164  18.530  0.00  0.00    +0.000 A 
ATOM     25  C   UNL     1      -0.894  12.518  18.312  0.00  0.00    +0.000 A 
ATOM     26  C   UNL     1       0.410  12.986  18.529  0.00  0.00    +0.000 A 
ATOM     27  N   UNL     1       1.254  12.010  18.866  0.00  0.00    +0.000 NA
ENDBRANCH  20  23
ENDBRANCH  16  17
ENDBRANCH   1  16
TORSDOF 6
ENDMDL
MODEL 7
REMARK VINA RESULT:      -7.5      4.293      6.695
REMARK  Name = 
REMARK  7 active torsions:
REMARK  status: ('A' for Active; 'I' for Inactive)
REMARK    1  A    between atoms: C_1  and  C_2
REMARK    2  A    between atoms: C_2  and  N_3
REMARK    3  A    between atoms: C_2  and  C_15
REMARK    4  A    between atoms: C_4  and  C_6
REMARK    5  A    between atoms: C_11  and  C_12
REMARK    6  A    between atoms: C_12  and  O_14
REMARK    7  A    between atoms: C_18  and  N_19
REMARK                            x       y       z     vdW  Elec       q    Type
REMARK                         _______ _______ _______ _____ _____    ______ ____
ROOT
ATOM      1  N   UNL     1       3.318   4.924  18.956  0.00  0.00    +0.000 N 
ATOM      2  C   UNL     1       4.688   4.935  18.961  0.00  0.00    +0.000 C 
ATOM      3  O   UNL     1       5.345   5.326  19.927  0.00  0.00    +0.000 OA
ATOM      4  H   UNL     1       2.818   4.716  18.102  0.00  0.00    +0.000 HD
ENDROOT
BRANCH   2   5
ATOM      5  C   UNL     1       5.351   4.485  17.673  0.00  0.00    +0.000 C 
ATOM      6  C   UNL     1       6.880   4.617  17.708  0.00  0.00    +0.000 C 
ATOM      7  C   UNL     1       7.499   4.290  16.378  0.00  0.00    +0.000 C 
ATOM      8  C   UNL     1       6.788   4.175  15.245  0.00  0.00    +0.000 C 
ATOM      9  C   UNL     1       5.304   4.435  15.172  0.00  0.00    +0.000 C 
ATOM     10  C   UNL     1       4.758   5.170  16.419  0.00  0.00    +0.000 C 
BRANCH  10  11
ATOM     11  C   UNL     1       5.058   6.670  16.292  0.00  0.00    +0.000 C 
ATOM     12  O   UNL     1       5.403   7.387  17.220  0.00  0.00    +0.000 OA
BRANCH  11  13
ATOM     13  O   UNL     1       4.992   7.167  15.039  0.00  0.00    +0.000 OA
ATOM     14  H   UNL     1       4.771   6.507  14.337  0.00  0.00    +0.000 HD
ENDBRANCH  11  13
ENDBRANCH  10  11
ENDBRANCH   2   5
BRANCH   1  16
ATOM     15  C   UNL     1       1.376   4.441  20.404  0.00  0.00    +0.000 C 
ATOM     16  C   UNL     1       2.548   5.378  20.106  0.00  0.00    +0.000 C 
BRANCH  16  17
ATOM     17  C   UNL     1       2.098   6.807  19.892  0.00  0.00    +0.000 A 
ATOM     18  C   UNL     1       2.314   7.418  18.649  0.00  0.00    +0.000 A 
ATOM     19  C   UNL     1       1.895   8.730  18.412  0.00  0.00    +0.000 A 
ATOM     20  C   UNL     1       1.249   9.452  19.422  0.00  0.00    +0.000 A 
ATOM     21  C   UNL     1       1.030   8.849  20.669  0.00  0.00    +0.000 A 
ATOM     22  C   UNL     1       1.449   7.537  20.900  0.00  0.00    +0.000 A 
BRANCH  20  23
ATOM     23  N   UNL     1       0.815  10.788  19.203  0.00  0.00    +0.000 N 
ATOM     24  C   UNL     1       1.534  11.837  18.666  0.00  0.00    +0.000 A 
ATOM     25  C   UNL     1       0.714  12.939  18.676  0.00  0.00    +0.000 A 
ATOM     26  C   UNL     1      -0.490  12.474  19.224  0.00  0.00    +0.000 A 
ATOM     27  N   UNL     1      -0.444  11.178  19.533  0.00  0.00    +0.000 NA
ENDBRANCH  20  23
ENDBRANCH  16  17
ENDBRANCH   1  16
TORSDOF 6
ENDMDL
MODEL 8
REMARK VINA RESULT:      -7.5      0.410      1.236
REMARK  Name = 
REMARK  7 active torsions:
REMARK  status: ('A' for Active; 'I' for Inactive)
REMARK    1  A    between atoms: C_1  and  C_2
REMARK    2  A    between atoms: C_2  and  N_3
REMARK    3  A    between atoms: C_2  and  C_15
REMARK    4  A    between atoms: C_4  and  C_6
REMARK    5  A    between atoms: C_11  and  C_12
REMARK    6  A    between atoms: C_12  and  O_14
REMARK    7  A    between atoms: C_18  and  N_19
REMARK                            x       y       z     vdW  Elec       q    Type
REMARK                         _______ _______ _______ _____ _____    ______ ____
ROOT
ATOM      1  N   UNL     1       5.180   5.488  17.894  0.00  0.00    +0.000 N 
ATOM      2  C   UNL     1       4.129   4.731  17.446  0.00  0.00    +0.000 C 
ATOM      3  O   UNL     1       4.131   4.182  16.344  0.00  0.00    +0.000 OA
ATOM      4  H   UNL     1       5.087   6.024  18.747  0.00  0.00    +0.000 HD
ENDROOT
BRANCH   2   5
ATOM      5  C   UNL     1       2.932   4.657  18.375  0.00  0.00    +0.000 C 
ATOM      6  C   UNL     1       2.994   5.683  19.515  0.00  0.00    +0.000 C 
ATOM      7  C   UNL     1       1.866   5.501  20.492  0.00  0.00    +0.000 C 
ATOM      8  C   UNL     1       1.082   4.411  20.513  0.00  0.00    +0.000 C 
ATOM      9  C   UNL     1       1.295   3.224  19.609  0.00  0.00    +0.000 C 
ATOM     10  C   UNL     1       2.679   3.231  18.919  0.00  0.00    +0.000 C 
BRANCH  10  11
ATOM     11  C   UNL     1       3.736   2.711  19.902  0.00  0.00    +0.000 C 
ATOM     12  O   UNL     1       3.489   2.287  21.022  0.00  0.00    +0.000 OA
BRANCH  11  13
ATOM     13  O   UNL     1       4.998   2.672  19.425  0.00  0.00    +0.000 OA
ATOM     14  H   UNL     1       5.107   2.197  18.566  0.00  0.00    +0.000 HD
ENDBRANCH  11  13
ENDBRANCH  10  11
ENDBRANCH   2   5
BRANCH   1  16
ATOM     15  C   UNL     1       7.221   4.418  17.007  0.00  0.00    +0.000 C 
ATOM     16  C   UNL     1       6.374   5.689  17.087  0.00  0.00    +0.000 C 
BRANCH  16  17
ATOM     17  C   UNL     1       7.161   6.868  17.618  0.00  0.00    +0.000 A 
ATOM     18  C   UNL     1       6.985   8.132  17.037  0.00  0.00    +0.000 A 
ATOM     19  C   UNL     1       7.683   9.245  17.514  0.00  0.00    +0.000 A 
ATOM     20  C   UNL     1       8.571   9.108  18.587  0.00  0.00    +0.000 A 
ATOM     21  C   UNL     1       8.755   7.847  19.173  0.00  0.00    +0.000 A 
ATOM     22  C   UNL     1       8.054   6.738  18.693  0.00  0.00    +0.000 A 
BRANCH  20  23
ATOM     23  N   UNL     1       9.291  10.225  19.088  0.00  0.00    +0.000 N 
ATOM     24  C   UNL     1      10.110  11.090  18.390  0.00  0.00    +0.000 A 
ATOM     25  C   UNL     1      10.610  11.996  19.294  0.00  0.00    +0.000 A 
ATOM     26  C   UNL     1      10.038  11.620  20.518  0.00  0.00    +0.000 A 
ATOM     27  N   UNL     1       9.233  10.563  20.403  0.00  0.00    +0.000 NA
ENDBRANCH  20  23
ENDBRANCH  16  17
ENDBRANCH   1  16
TORSDOF 6
ENDMDL
MODEL 9
REMARK VINA RESULT:      -7.4      4.393      6.937
REMARK  Name = 
REMARK  7 active torsions:
REMARK  status: ('A' for Active; 'I' for Inactive)
REMARK    1  A    between atoms: C_1  and  C_2
REMARK    2  A    between atoms: C_2  and  N_3
REMARK    3  A    between atoms: C_2  and  C_15
REMARK    4  A    between atoms: C_4  and  C_6
REMARK    5  A    between atoms: C_11  and  C_12
REMARK    6  A    between atoms: C_12  and  O_14
REMARK    7  A    between atoms: C_18  and  N_19
REMARK                            x       y       z     vdW  Elec       q    Type
REMARK                         _______ _______ _______ _____ _____    ______ ____
ROOT
ATOM      1  N   UNL     1       3.253   5.938  18.752  0.00  0.00    +0.000 N 
ATOM      2  C   UNL     1       4.536   5.457  18.737  0.00  0.00    +0.000 C 
ATOM      3  O   UNL     1       5.169   5.227  19.768  0.00  0.00    +0.000 OA
ATOM      4  H   UNL     1       2.815   6.232  17.888  0.00  0.00    +0.000 HD
ENDROOT
BRANCH   2   5
ATOM      5  C   UNL     1       5.152   5.276  17.363  0.00  0.00    +0.000 C 
ATOM      6  C   UNL     1       5.047   3.835  16.844  0.00  0.00    +0.000 C 
ATOM      7  C   UNL     1       5.778   3.655  15.543  0.00  0.00    +0.000 C 
ATOM      8  C   UNL     1       6.640   4.561  15.055  0.00  0.00    +0.000 C 
ATOM      9  C   UNL     1       7.021   5.819  15.792  0.00  0.00    +0.000 C 
ATOM     10  C   UNL     1       6.607   5.795  17.282  0.00  0.00    +0.000 C 
BRANCH  10  11
ATOM     11  C   UNL     1       7.636   4.980  18.078  0.00  0.00    +0.000 C 
ATOM     12  O   UNL     1       8.302   4.066  17.615  0.00  0.00    +0.000 OA
BRANCH  11  13
ATOM     13  O   UNL     1       7.832   5.385  19.350  0.00  0.00    +0.000 OA
ATOM     14  H   UNL     1       8.656   5.910  19.500  0.00  0.00    +0.000 HD
ENDBRANCH  11  13
ENDBRANCH  10  11
ENDBRANCH   2   5
BRANCH   1  16
ATOM     15  C   UNL     1       1.557   5.098  20.338  0.00  0.00    +0.000 C 
ATOM     16  C   UNL     1       2.554   6.208  20.000  0.00  0.00    +0.000 C 
BRANCH  16  17
ATOM     17  C   UNL     1       1.894   7.569  19.936  0.00  0.00    +0.000 A 
ATOM     18  C   UNL     1       1.233   8.068  21.066  0.00  0.00    +0.000 A 
ATOM     19  C   UNL     1       0.628   9.328  21.047  0.00  0.00    +0.000 A 
ATOM     20  C   UNL     1       0.680  10.111  19.888  0.00  0.00    +0.000 A 
ATOM     21  C   UNL     1       1.338   9.619  18.752  0.00  0.00    +0.000 A 
ATOM     22  C   UNL     1       1.942   8.360  18.777  0.00  0.00    +0.000 A 
BRANCH  20  23
ATOM     23  N   UNL     1       0.072  11.395  19.846  0.00  0.00    +0.000 N 
ATOM     24  C   UNL     1       0.365  12.500  20.620  0.00  0.00    +0.000 A 
ATOM     25  C   UNL     1      -0.497  13.501  20.244  0.00  0.00    +0.000 A 
ATOM     26  C   UNL     1      -1.275  12.929  19.227  0.00  0.00    +0.000 A 
ATOM     27  N   UNL     1      -0.932  11.666  18.971  0.00  0.00    +0.000 NA
ENDBRANCH  20  23
ENDBRANCH  16  17
ENDBRANCH   1  16
TORSDOF 6
ENDMDL
