MODEL 1
REMARK VINA RESULT:      -8.3      0.000      0.000
REMARK  Name = 
REMARK  8 active torsions:
REMARK  status: ('A' for Active; 'I' for Inactive)
REMARK    1  A    between atoms: N_1  and  S_2
REMARK    2  A    between atoms: S_2  and  O_5
REMARK    3  A    between atoms: O_5  and  C_6
REMARK    4  A    between atoms: C_6  and  C_7
REMARK    5  A    between atoms: C_9  and  N_10
REMARK    6  A    between atoms: N_15  and  C_16
REMARK    7  A    between atoms: C_29  and  O_30
REMARK    8  A    between atoms: C_31  and  O_32
REMARK                            x       y       z     vdW  Elec       q    Type
REMARK                         _______ _______ _______ _____ _____    ______ ____
ROOT
ATOM      1  N   UNL     1       2.490   5.948  19.603  0.00  0.00    +0.000 N 
ATOM      2  C   UNL     1       1.767   5.968  20.769  0.00  0.00    +0.000 A 
ATOM      3  N   UNL     1       1.284   7.159  21.025  0.00  0.00    +0.000 NA
ATOM      4  C   UNL     1       1.640   7.931  19.935  0.00  0.00    +0.000 A 
ATOM      5  C   UNL     1       1.372   9.300  19.686  0.00  0.00    +0.000 A 
ATOM      6  N   UNL     1       0.782  10.096  20.653  0.00  0.00    +0.000 N 
ATOM      7  N   UNL     1       1.738   9.820  18.481  0.00  0.00    +0.000 NA
ATOM      8  C   UNL     1       2.412   9.047  17.595  0.00  0.00    +0.000 A 
ATOM      9  C   UNL     1       2.776   7.723  17.793  0.00  0.00    +0.000 A 
ATOM     10  C   UNL     1       2.352   7.175  19.001  0.00  0.00    +0.000 A 
ATOM     11  H   UNL     1       0.573   9.621  21.524  0.00  0.00    +0.000 HD
ENDROOT
BRANCH   6  12
ATOM     12  C   UNL     1      -0.020  11.227  20.257  0.00  0.00    +0.000 C 
ATOM     13  C   UNL     1      -1.297  11.439  21.107  0.00  0.00    +0.000 C 
ATOM     14  C   UNL     1      -0.824  12.142  22.384  0.00  0.00    +0.000 C 
ATOM     15  C   UNL     1       0.126  13.108  21.745  0.00  0.00    +0.000 A 
ATOM     16  C   UNL     1       0.353  14.434  22.068  0.00  0.00    +0.000 A 
ATOM     17  C   UNL     1       1.187  15.168  21.225  0.00  0.00    +0.000 A 
ATOM     18  C   UNL     1       1.829  14.557  20.136  0.00  0.00    +0.000 A 
ATOM     19  C   UNL     1       1.591  13.219  19.811  0.00  0.00    +0.000 A 
ATOM     20  C   UNL     1       0.681  12.530  20.589  0.00  0.00    +0.000 A 
ENDBRANCH   6  12
BRANCH   1  23
ATOM     21  C   UNL     1       5.368   4.237  18.327  0.00  0.00    +0.000 C 
ATOM     22  O   UNL     1       4.676   5.041  19.314  0.00  0.00    +0.000 OA
ATOM     23  C   UNL     1       3.263   4.794  19.187  0.00  0.00    +0.000 C 
ATOM     24  C   UNL     1       3.031   4.368  17.746  0.00  0.00    +0.000 C 
ATOM     25  C   UNL     1       4.290   3.551  17.480  0.00  0.00    +0.000 C 
BRANCH  24  26
ATOM     26  O   UNL     1       1.853   3.582  17.585  0.00  0.00    +0.000 OA
ATOM     27  H   UNL     1       1.094   4.203  17.626  0.00  0.00    +0.000 HD
ENDBRANCH  24  26
BRANCH  25  28
ATOM     28  O   UNL     1       4.043   2.203  17.924  0.00  0.00    +0.000 OA
ATOM     29  H   UNL     1       4.364   1.570  17.256  0.00  0.00    +0.000 HD
ENDBRANCH  25  28
BRANCH  21  30
ATOM     30  C   UNL     1       6.310   5.120  17.512  0.00  0.00    +0.000 C 
BRANCH  30  31
ATOM     31  O   UNL     1       6.916   4.337  16.497  0.00  0.00    +0.000 OA
BRANCH  31  32
ATOM     32  S   UNL     1       6.737   4.829  14.966  0.00  0.00    +0.000 S 
ATOM     33  O   UNL     1       6.192   3.752  14.184  0.00  0.00    +0.000 OA
ATOM     34  O   UNL     1       7.930   5.526  14.566  0.00  0.00    +0.000 OA
BRANCH  32  35
ATOM     35  N   UNL     1       5.549   5.997  15.061  0.00  0.00    +0.000 NA
ATOM     36  H   UNL     1       5.856   6.842  14.578  0.00  0.00    +0.000 HD
ATOM     37  H   UNL     1       5.308   6.171  16.038  0.00  0.00    +0.000 HD
ENDBRANCH  32  35
ENDBRANCH  31  32
ENDBRANCH  30  31
ENDBRANCH  21  30
ENDBRANCH   1  23
TORSDOF 8
ENDMDL
MODEL 2
REMARK VINA RESULT:      -8.1      0.870      1.064
REMARK  Name = 
REMARK  8 active torsions:
REMARK  status: ('A' for Active; 'I' for Inactive)
REMARK    1  A    between atoms: N_1  and  S_2
REMARK    2  A    between atoms: S_2  and  O_5
REMARK    3  A    between atoms: O_5  and  C_6
REMARK    4  A    between atoms: C_6  and  C_7
REMARK    5  A    between atoms: C_9  and  N_10
REMARK    6  A    between atoms: N_15  and  C_16
REMARK    7  A    between atoms: C_29  and  O_30
REMARK    8  A    between atoms: C_31  and  O_32
REMARK                            x       y       z     vdW  Elec       q    Type
REMARK                         _______ _______ _______ _____ _____    ______ ____
ROOT
ATOM      1  N   UNL     1       2.528   5.646  19.714  0.00  0.00    +0.000 N 
ATOM      2  C   UNL     1       1.809   5.730  20.879  0.00  0.00    +0.000 A 
ATOM      3  N   UNL     1       1.352   6.940  21.085  0.00  0.00    +0.000 NA
ATOM      4  C   UNL     1       1.720   7.658  19.963  0.00  0.00    +0.000 A 
ATOM      5  C   UNL     1       1.479   9.020  19.656  0.00  0.00    +0.000 A 
ATOM      6  N   UNL     1       0.909   9.869  20.589  0.00  0.00    +0.000 N 
ATOM      7  N   UNL     1       1.851   9.480  18.429  0.00  0.00    +0.000 NA
ATOM      8  C   UNL     1       2.507   8.657  17.575  0.00  0.00    +0.000 A 
ATOM      9  C   UNL     1       2.845   7.335  17.828  0.00  0.00    +0.000 A 
ATOM     10  C   UNL     1       2.413   6.849  19.060  0.00  0.00    +0.000 A 
ATOM     11  H   UNL     1       0.692   9.436  21.480  0.00  0.00    +0.000 HD
ENDROOT
BRANCH   6  12
ATOM     12  C   UNL     1       0.128  10.998  20.147  0.00  0.00    +0.000 C 
ATOM     13  C   UNL     1      -1.144  11.269  20.987  0.00  0.00    +0.000 C 
ATOM     14  C   UNL     1      -0.658  12.014  22.234  0.00  0.00    +0.000 C 
ATOM     15  C   UNL     1       0.311  12.935  21.557  0.00  0.00    +0.000 A 
ATOM     16  C   UNL     1       0.563  14.268  21.826  0.00  0.00    +0.000 A 
ATOM     17  C   UNL     1       1.411  14.951  20.954  0.00  0.00    +0.000 A 
ATOM     18  C   UNL     1       2.041  14.284  19.891  0.00  0.00    +0.000 A 
ATOM     19  C   UNL     1       1.778  12.938  19.621  0.00  0.00    +0.000 A 
ATOM     20  C   UNL     1       0.854  12.300  20.426  0.00  0.00    +0.000 A 
ENDBRANCH   6  12
BRANCH   1  23
ATOM     21  C   UNL     1       4.654   3.643  17.639  0.00  0.00    +0.000 C 
ATOM     22  O   UNL     1       4.381   4.788  18.483  0.00  0.00    +0.000 OA
ATOM     23  C   UNL     1       3.276   4.459  19.346  0.00  0.00    +0.000 C 
ATOM     24  C   UNL     1       2.462   3.404  18.614  0.00  0.00    +0.000 C 
ATOM     25  C   UNL     1       3.567   2.603  17.937  0.00  0.00    +0.000 C 
BRANCH  24  26
ATOM     26  O   UNL     1       1.691   2.592  19.497  0.00  0.00    +0.000 OA
ATOM     27  H   UNL     1       2.317   2.222  20.155  0.00  0.00    +0.000 HD
ENDBRANCH  24  26
BRANCH  25  28
ATOM     28  O   UNL     1       4.027   1.609  18.873  0.00  0.00    +0.000 OA
ATOM     29  H   UNL     1       4.427   0.861  18.391  0.00  0.00    +0.000 HD
ENDBRANCH  25  28
BRANCH  21  30
ATOM     30  C   UNL     1       4.690   4.079  16.175  0.00  0.00    +0.000 C 
BRANCH  30  31
ATOM     31  O   UNL     1       5.985   3.836  15.652  0.00  0.00    +0.000 OA
BRANCH  31  32
ATOM     32  S   UNL     1       7.109   4.979  15.877  0.00  0.00    +0.000 S 
ATOM     33  O   UNL     1       7.719   5.298  14.614  0.00  0.00    +0.000 OA
ATOM     34  O   UNL     1       7.894   4.628  17.030  0.00  0.00    +0.000 OA
BRANCH  32  35
ATOM     35  N   UNL     1       6.225   6.320  16.332  0.00  0.00    +0.000 NA
ATOM     36  H   UNL     1       6.764   7.166  16.152  0.00  0.00    +0.000 HD
ATOM     37  H   UNL     1       5.943   6.237  17.311  0.00  0.00    +0.000 HD
ENDBRANCH  32  35
ENDBRANCH  31  32
ENDBRANCH  30  31
ENDBRANCH  21  30
ENDBRANCH   1  23
TORSDOF 8
ENDMDL
MODEL 3
REMARK VINA RESULT:      -8.1      1.701      2.057
REMARK  Name = 
REMARK  8 active torsions:
REMARK  status: ('A' for Active; 'I' for Inactive)
REMARK    1  A    between atoms: N_1  and  S_2
REMARK    2  A    between atoms: S_2  and  O_5
REMARK    3  A    between atoms: O_5  and  C_6
REMARK    4  A    between atoms: C_6  and  C_7
REMARK    5  A    between atoms: C_9  and  N_10
REMARK    6  A    between atoms: N_15  and  C_16
REMARK    7  A    between atoms: C_29  and  O_30
REMARK    8  A    between atoms: C_31  and  O_32
REMARK                            x       y       z     vdW  Elec       q    Type
REMARK                         _______ _______ _______ _____ _____    ______ ____
ROOT
ATOM      1  N   UNL     1       1.988   6.593  20.260  0.00  0.00    +0.000 N 
ATOM      2  C   UNL     1       1.166   7.095  21.238  0.00  0.00    +0.000 A 
ATOM      3  N   UNL     1       0.873   8.355  21.030  0.00  0.00    +0.000 NA
ATOM      4  C   UNL     1       1.464   8.666  19.820  0.00  0.00    +0.000 A 
ATOM      5  C   UNL     1       1.463   9.896  19.116  0.00  0.00    +0.000 A 
ATOM      6  N   UNL     1       0.926  11.039  19.683  0.00  0.00    +0.000 N 
ATOM      7  N   UNL     1       2.031   9.931  17.879  0.00  0.00    +0.000 NA
ATOM      8  C   UNL     1       2.647   8.826  17.393  0.00  0.00    +0.000 A 
ATOM      9  C   UNL     1       2.756   7.608  18.049  0.00  0.00    +0.000 A 
ATOM     10  C   UNL     1       2.125   7.556  19.289  0.00  0.00    +0.000 A 
ATOM     11  H   UNL     1       0.551  10.913  20.617  0.00  0.00    +0.000 HD
ENDROOT
BRANCH   6  12
ATOM     12  C   UNL     1       0.375  12.066  18.836  0.00  0.00    +0.000 C 
ATOM     13  C   UNL     1      -0.960  12.669  19.339  0.00  0.00    +0.000 C 
ATOM     14  C   UNL     1      -0.568  13.682  20.420  0.00  0.00    +0.000 C 
ATOM     15  C   UNL     1       0.602  14.293  19.711  0.00  0.00    +0.000 A 
ATOM     16  C   UNL     1       0.987  15.621  19.669  0.00  0.00    +0.000 A 
ATOM     17  C   UNL     1       2.035  15.961  18.816  0.00  0.00    +0.000 A 
ATOM     18  C   UNL     1       2.721  14.975  18.088  0.00  0.00    +0.000 A 
ATOM     19  C   UNL     1       2.325  13.635  18.130  0.00  0.00    +0.000 A 
ATOM     20  C   UNL     1       1.217  13.326  18.895  0.00  0.00    +0.000 A 
ENDBRANCH   6  12
BRANCH   1  23
ATOM     21  C   UNL     1       4.224   3.956  19.321  0.00  0.00    +0.000 C 
ATOM     22  O   UNL     1       3.931   5.280  19.831  0.00  0.00    +0.000 OA
ATOM     23  C   UNL     1       2.587   5.276  20.350  0.00  0.00    +0.000 C 
ATOM     24  C   UNL     1       1.839   4.191  19.590  0.00  0.00    +0.000 C 
ATOM     25  C   UNL     1       2.932   3.140  19.437  0.00  0.00    +0.000 C 
BRANCH  24  26
ATOM     26  O   UNL     1       0.720   3.684  20.313  0.00  0.00    +0.000 OA
ATOM     27  H   UNL     1       1.044   3.461  21.211  0.00  0.00    +0.000 HD
ENDBRANCH  24  26
BRANCH  25  28
ATOM     28  O   UNL     1       2.926   2.322  20.623  0.00  0.00    +0.000 OA
ATOM     29  H   UNL     1       3.831   2.240  20.973  0.00  0.00    +0.000 HD
ENDBRANCH  25  28
BRANCH  21  30
ATOM     30  C   UNL     1       4.749   4.061  17.890  0.00  0.00    +0.000 C 
BRANCH  30  31
ATOM     31  O   UNL     1       5.670   5.135  17.812  0.00  0.00    +0.000 OA
BRANCH  31  32
ATOM     32  S   UNL     1       6.924   4.973  16.801  0.00  0.00    +0.000 S 
ATOM     33  O   UNL     1       7.476   6.271  16.520  0.00  0.00    +0.000 OA
ATOM     34  O   UNL     1       6.549   4.067  15.748  0.00  0.00    +0.000 OA
BRANCH  32  35
ATOM     35  N   UNL     1       8.062   4.156  17.707  0.00  0.00    +0.000 NA
ATOM     36  H   UNL     1       8.187   4.622  18.606  0.00  0.00    +0.000 HD
ATOM     37  H   UNL     1       8.935   4.077  17.183  0.00  0.00    +0.000 HD
ENDBRANCH  32  35
ENDBRANCH  31  32
ENDBRANCH  30  31
ENDBRANCH  21  30
ENDBRANCH   1  23
TORSDOF 8
ENDMDL
MODEL 4
REMARK VINA RESULT:      -8.1      0.988      1.075
REMARK  Name = 
REMARK  8 active torsions:
REMARK  status: ('A' for Active; 'I' for Inactive)
REMARK    1  A    between atoms: N_1  and  S_2
REMARK    2  A    between atoms: S_2  and  O_5
REMARK    3  A    between atoms: O_5  and  C_6
REMARK    4  A    between atoms: C_6  and  C_7
REMARK    5  A    between atoms: C_9  and  N_10
REMARK    6  A    between atoms: N_15  and  C_16
REMARK    7  A    between atoms: C_29  and  O_30
REMARK    8  A    between atoms: C_31  and  O_32
REMARK                            x       y       z     vdW  Elec       q    Type
REMARK                         _______ _______ _______ _____ _____    ______ ____
ROOT
ATOM      1  N   UNL     1       2.427   6.592  19.591  0.00  0.00    +0.000 N 
ATOM      2  C   UNL     1       1.758   6.465  20.782  0.00  0.00    +0.000 A 
ATOM      3  N   UNL     1       1.181   7.585  21.141  0.00  0.00    +0.000 NA
ATOM      4  C   UNL     1       1.416   8.460  20.097  0.00  0.00    +0.000 A 
ATOM      5  C   UNL     1       1.014   9.812  19.958  0.00  0.00    +0.000 A 
ATOM      6  N   UNL     1       0.398  10.481  21.002  0.00  0.00    +0.000 N 
ATOM      7  N   UNL     1       1.278  10.444  18.781  0.00  0.00    +0.000 NA
ATOM      8  C   UNL     1       1.979   9.801  17.817  0.00  0.00    +0.000 A 
ATOM      9  C   UNL     1       2.471   8.506  17.904  0.00  0.00    +0.000 A 
ATOM     10  C   UNL     1       2.152   7.840  19.085  0.00  0.00    +0.000 A 
ATOM     11  H   UNL     1       0.272   9.930  21.843  0.00  0.00    +0.000 HD
ENDROOT
BRANCH   6  12
ATOM     12  C   UNL     1      -0.520  11.556  20.719  0.00  0.00    +0.000 C 
ATOM     13  C   UNL     1      -1.731  11.637  21.681  0.00  0.00    +0.000 C 
ATOM     14  C   UNL     1      -1.205  12.333  22.940  0.00  0.00    +0.000 C 
ATOM     15  C   UNL     1      -0.391  13.393  22.263  0.00  0.00    +0.000 A 
ATOM     16  C   UNL     1      -0.240  14.722  22.618  0.00  0.00    +0.000 A 
ATOM     17  C   UNL     1       0.458  15.547  21.738  0.00  0.00    +0.000 A 
ATOM     18  C   UNL     1       1.049  15.025  20.575  0.00  0.00    +0.000 A 
ATOM     19  C   UNL     1       0.888  13.684  20.219  0.00  0.00    +0.000 A 
ATOM     20  C   UNL     1       0.104  12.900  21.042  0.00  0.00    +0.000 A 
ENDBRANCH   6  12
BRANCH   1  23
ATOM     21  C   UNL     1       5.289   5.267  17.891  0.00  0.00    +0.000 C 
ATOM     22  O   UNL     1       4.649   5.991  18.970  0.00  0.00    +0.000 OA
ATOM     23  C   UNL     1       3.282   5.547  19.064  0.00  0.00    +0.000 C 
ATOM     24  C   UNL     1       2.896   5.058  17.677  0.00  0.00    +0.000 C 
ATOM     25  C   UNL     1       4.202   4.418  17.222  0.00  0.00    +0.000 C 
BRANCH  24  26
ATOM     26  O   UNL     1       1.829   4.113  17.703  0.00  0.00    +0.000 OA
ATOM     27  H   UNL     1       2.008   3.469  16.985  0.00  0.00    +0.000 HD
ENDBRANCH  24  26
BRANCH  25  28
ATOM     28  O   UNL     1       4.218   3.060  17.703  0.00  0.00    +0.000 OA
ATOM     29  H   UNL     1       4.404   3.050  18.660  0.00  0.00    +0.000 HD
ENDBRANCH  25  28
BRANCH  21  30
ATOM     30  C   UNL     1       5.962   6.252  16.937  0.00  0.00    +0.000 C 
BRANCH  30  31
ATOM     31  O   UNL     1       5.861   5.756  15.613  0.00  0.00    +0.000 OA
BRANCH  31  32
ATOM     32  S   UNL     1       7.096   4.873  15.049  0.00  0.00    +0.000 S 
ATOM     33  O   UNL     1       7.860   4.367  16.158  0.00  0.00    +0.000 OA
ATOM     34  O   UNL     1       7.716   5.591  13.968  0.00  0.00    +0.000 OA
BRANCH  32  35
ATOM     35  N   UNL     1       6.352   3.557  14.342  0.00  0.00    +0.000 NA
ATOM     36  H   UNL     1       6.553   2.716  14.881  0.00  0.00    +0.000 HD
ATOM     37  H   UNL     1       6.643   3.475  13.366  0.00  0.00    +0.000 HD
ENDBRANCH  32  35
ENDBRANCH  31  32
ENDBRANCH  30  31
ENDBRANCH  21  30
ENDBRANCH   1  23
TORSDOF 8
ENDMDL
MODEL 5
REMARK VINA RESULT:      -7.9      1.362      1.661
REMARK  Name = 
REMARK  8 active torsions:
REMARK  status: ('A' for Active; 'I' for Inactive)
REMARK    1  A    between atoms: N_1  and  S_2
REMARK    2  A    between atoms: S_2  and  O_5
REMARK    3  A    between atoms: O_5  and  C_6
REMARK    4  A    between atoms: C_6  and  C_7
REMARK    5  A    between atoms: C_9  and  N_10
REMARK    6  A    between atoms: N_15  and  C_16
REMARK    7  A    between atoms: C_29  and  O_30
REMARK    8  A    between atoms: C_31  and  O_32
REMARK                            x       y       z     vdW  Elec       q    Type
REMARK                         _______ _______ _______ _____ _____    ______ ____
ROOT
ATOM      1  N   UNL     1       2.099   6.895  19.891  0.00  0.00    +0.000 N 
ATOM      2  C   UNL     1       1.510   6.901  21.130  0.00  0.00    +0.000 A 
ATOM      3  N   UNL     1       1.046   8.085  21.446  0.00  0.00    +0.000 NA
ATOM      4  C   UNL     1       1.270   8.867  20.329  0.00  0.00    +0.000 A 
ATOM      5  C   UNL     1       0.962  10.234  20.120  0.00  0.00    +0.000 A 
ATOM      6  N   UNL     1       0.475  11.019  21.151  0.00  0.00    +0.000 N 
ATOM      7  N   UNL     1       1.186  10.764  18.885  0.00  0.00    +0.000 NA
ATOM      8  C   UNL     1       1.766  10.004  17.925  0.00  0.00    +0.000 A 
ATOM      9  C   UNL     1       2.164   8.683  18.072  0.00  0.00    +0.000 A 
ATOM     10  C   UNL     1       1.882   8.125  19.316  0.00  0.00    +0.000 A 
ATOM     11  H   UNL     1       0.369  10.537  22.037  0.00  0.00    +0.000 HD
ENDROOT
BRANCH   6  12
ATOM     12  C   UNL     1      -0.378  12.142  20.854  0.00  0.00    +0.000 C 
ATOM     13  C   UNL     1      -1.855  11.960  21.282  0.00  0.00    +0.000 C 
ATOM     14  C   UNL     1      -1.884  12.255  22.785  0.00  0.00    +0.000 C 
ATOM     15  C   UNL     1      -0.985  13.454  22.775  0.00  0.00    +0.000 A 
ATOM     16  C   UNL     1      -1.097  14.621  23.508  0.00  0.00    +0.000 A 
ATOM     17  C   UNL     1      -0.211  15.656  23.211  0.00  0.00    +0.000 A 
ATOM     18  C   UNL     1       0.803  15.483  22.255  0.00  0.00    +0.000 A 
ATOM     19  C   UNL     1       0.908  14.304  21.513  0.00  0.00    +0.000 A 
ATOM     20  C   UNL     1      -0.041  13.327  21.739  0.00  0.00    +0.000 A 
ENDBRANCH   6  12
BRANCH   1  23
ATOM     21  C   UNL     1       4.467   5.205  17.800  0.00  0.00    +0.000 C 
ATOM     22  O   UNL     1       4.102   6.152  18.835  0.00  0.00    +0.000 OA
ATOM     23  C   UNL     1       2.833   5.752  19.384  0.00  0.00    +0.000 C 
ATOM     24  C   UNL     1       2.116   4.980  18.288  0.00  0.00    +0.000 C 
ATOM     25  C   UNL     1       3.283   4.244  17.643  0.00  0.00    +0.000 C 
BRANCH  24  26
ATOM     26  O   UNL     1       1.142   4.074  18.799  0.00  0.00    +0.000 OA
ATOM     27  H   UNL     1       0.343   4.176  18.239  0.00  0.00    +0.000 HD
ENDBRANCH  24  26
BRANCH  25  28
ATOM     28  O   UNL     1       3.492   3.021  18.375  0.00  0.00    +0.000 OA
ATOM     29  H   UNL     1       4.107   3.179  19.115  0.00  0.00    +0.000 HD
ENDBRANCH  25  28
BRANCH  21  30
ATOM     30  C   UNL     1       4.814   5.955  16.515  0.00  0.00    +0.000 C 
BRANCH  30  31
ATOM     31  O   UNL     1       5.665   5.146  15.722  0.00  0.00    +0.000 OA
BRANCH  31  32
ATOM     32  S   UNL     1       7.257   5.426  15.809  0.00  0.00    +0.000 S 
ATOM     33  O   UNL     1       7.483   6.646  16.537  0.00  0.00    +0.000 OA
ATOM     34  O   UNL     1       7.834   5.201  14.511  0.00  0.00    +0.000 OA
BRANCH  32  35
ATOM     35  N   UNL     1       7.826   4.185  16.770  0.00  0.00    +0.000 NA
ATOM     36  H   UNL     1       7.077   3.840  17.369  0.00  0.00    +0.000 HD
ATOM     37  H   UNL     1       8.639   4.501  17.303  0.00  0.00    +0.000 HD
ENDBRANCH  32  35
ENDBRANCH  31  32
ENDBRANCH  30  31
ENDBRANCH  21  30
ENDBRANCH   1  23
TORSDOF 8
ENDMDL
MODEL 6
REMARK VINA RESULT:      -7.8      1.156      1.314
REMARK  Name = 
REMARK  8 active torsions:
REMARK  status: ('A' for Active; 'I' for Inactive)
REMARK    1  A    between atoms: N_1  and  S_2
REMARK    2  A    between atoms: S_2  and  O_5
REMARK    3  A    between atoms: O_5  and  C_6
REMARK    4  A    between atoms: C_6  and  C_7
REMARK    5  A    between atoms: C_9  and  N_10
REMARK    6  A    between atoms: N_15  and  C_16
REMARK    7  A    between atoms: C_29  and  O_30
REMARK    8  A    between atoms: C_31  and  O_32
REMARK                            x       y       z     vdW  Elec       q    Type
REMARK                         _______ _______ _______ _____ _____    ______ ____
ROOT
ATOM      1  N   UNL     1       2.216   5.560  19.699  0.00  0.00    +0.000 N 
ATOM      2  C   UNL     1       1.498   5.756  20.852  0.00  0.00    +0.000 A 
ATOM      3  N   UNL     1       1.181   7.015  21.023  0.00  0.00    +0.000 NA
ATOM      4  C   UNL     1       1.643   7.658  19.889  0.00  0.00    +0.000 A 
ATOM      5  C   UNL     1       1.565   9.031  19.548  0.00  0.00    +0.000 A 
ATOM      6  N   UNL     1       1.087   9.963  20.453  0.00  0.00    +0.000 N 
ATOM      7  N   UNL     1       2.003   9.414  18.316  0.00  0.00    +0.000 NA
ATOM      8  C   UNL     1       2.569   8.499  17.491  0.00  0.00    +0.000 A 
ATOM      9  C   UNL     1       2.748   7.154  17.780  0.00  0.00    +0.000 A 
ATOM     10  C   UNL     1       2.249   6.752  19.016  0.00  0.00    +0.000 A 
ATOM     11  H   UNL     1       0.811   9.580  21.350  0.00  0.00    +0.000 HD
ENDROOT
BRANCH   6  12
ATOM     12  C   UNL     1       0.448  11.163  19.973  0.00  0.00    +0.000 C 
ATOM     13  C   UNL     1      -1.071  11.243  20.262  0.00  0.00    +0.000 C 
ATOM     14  C   UNL     1      -1.185  11.690  21.723  0.00  0.00    +0.000 C 
ATOM     15  C   UNL     1      -0.114  12.738  21.699  0.00  0.00    +0.000 A 
ATOM     16  C   UNL     1      -0.107  13.977  22.313  0.00  0.00    +0.000 A 
ATOM     17  C   UNL     1       0.952  14.835  22.018  0.00  0.00    +0.000 A 
ATOM     18  C   UNL     1       2.007  14.420  21.189  0.00  0.00    +0.000 A 
ATOM     19  C   UNL     1       1.992  13.169  20.567  0.00  0.00    +0.000 A 
ATOM     20  C   UNL     1       0.886  12.369  20.781  0.00  0.00    +0.000 A 
ENDBRANCH   6  12
BRANCH   1  23
ATOM     21  C   UNL     1       4.513   3.379  18.025  0.00  0.00    +0.000 C 
ATOM     22  O   UNL     1       4.187   4.459  18.934  0.00  0.00    +0.000 OA
ATOM     23  C   UNL     1       2.825   4.286  19.370  0.00  0.00    +0.000 C 
ATOM     24  C   UNL     1       2.117   3.517  18.266  0.00  0.00    +0.000 C 
ATOM     25  C   UNL     1       3.225   2.573  17.815  0.00  0.00    +0.000 C 
BRANCH  24  26
ATOM     26  O   UNL     1       0.978   2.801  18.736  0.00  0.00    +0.000 OA
ATOM     27  H   UNL     1       0.304   2.849  18.025  0.00  0.00    +0.000 HD
ENDBRANCH  24  26
BRANCH  25  28
ATOM     28  O   UNL     1       3.184   1.408  18.661  0.00  0.00    +0.000 OA
ATOM     29  H   UNL     1       2.377   0.893  18.476  0.00  0.00    +0.000 HD
ENDBRANCH  25  28
BRANCH  21  30
ATOM     30  C   UNL     1       5.089   3.951  16.731  0.00  0.00    +0.000 C 
BRANCH  30  31
ATOM     31  O   UNL     1       6.286   4.649  17.026  0.00  0.00    +0.000 OA
BRANCH  31  32
ATOM     32  S   UNL     1       6.665   5.913  16.088  0.00  0.00    +0.000 S 
ATOM     33  O   UNL     1       7.627   6.737  16.771  0.00  0.00    +0.000 OA
ATOM     34  O   UNL     1       5.450   6.460  15.545  0.00  0.00    +0.000 OA
BRANCH  32  35
ATOM     35  N   UNL     1       7.460   5.223  14.794  0.00  0.00    +0.000 NA
ATOM     36  H   UNL     1       7.347   4.210  14.820  0.00  0.00    +0.000 HD
ATOM     37  H   UNL     1       8.442   5.507  14.796  0.00  0.00    +0.000 HD
ENDBRANCH  32  35
ENDBRANCH  31  32
ENDBRANCH  30  31
ENDBRANCH  21  30
ENDBRANCH   1  23
TORSDOF 8
ENDMDL
MODEL 7
REMARK VINA RESULT:      -7.8      1.723      2.015
REMARK  Name = 
REMARK  8 active torsions:
REMARK  status: ('A' for Active; 'I' for Inactive)
REMARK    1  A    between atoms: N_1  and  S_2
REMARK    2  A    between atoms: S_2  and  O_5
REMARK    3  A    between atoms: O_5  and  C_6
REMARK    4  A    between atoms: C_6  and  C_7
REMARK    5  A    between atoms: C_9  and  N_10
REMARK    6  A    between atoms: N_15  and  C_16
REMARK    7  A    between atoms: C_29  and  O_30
REMARK    8  A    between atoms: C_31  and  O_32
REMARK                            x       y       z     vdW  Elec       q    Type
REMARK                         _______ _______ _______ _____ _____    ______ ____
ROOT
ATOM      1  N   UNL     1       1.913   6.731  20.312  0.00  0.00    +0.000 N 
ATOM      2  C   UNL     1       1.137   7.208  21.338  0.00  0.00    +0.000 A 
ATOM      3  N   UNL     1       0.809   8.464  21.160  0.00  0.00    +0.000 NA
ATOM      4  C   UNL     1       1.326   8.797  19.922  0.00  0.00    +0.000 A 
ATOM      5  C   UNL     1       1.263  10.032  19.231  0.00  0.00    +0.000 A 
ATOM      6  N   UNL     1       0.737  11.160  19.837  0.00  0.00    +0.000 N 
ATOM      7  N   UNL     1       1.761  10.089  17.964  0.00  0.00    +0.000 NA
ATOM      8  C   UNL     1       2.370   9.000  17.435  0.00  0.00    +0.000 A 
ATOM      9  C   UNL     1       2.538   7.779  18.072  0.00  0.00    +0.000 A 
ATOM     10  C   UNL     1       1.977   7.704  19.345  0.00  0.00    +0.000 A 
ATOM     11  H   UNL     1       0.417  11.019  20.789  0.00  0.00    +0.000 HD
ENDROOT
BRANCH   6  12
ATOM     12  C   UNL     1       0.120  12.184  19.031  0.00  0.00    +0.000 C 
ATOM     13  C   UNL     1      -1.367  11.924  18.688  0.00  0.00    +0.000 C 
ATOM     14  C   UNL     1      -2.153  12.343  19.934  0.00  0.00    +0.000 C 
ATOM     15  C   UNL     1      -1.401  13.603  20.236  0.00  0.00    +0.000 A 
ATOM     16  C   UNL     1      -1.894  14.817  20.680  0.00  0.00    +0.000 A 
ATOM     17  C   UNL     1      -1.004  15.888  20.746  0.00  0.00    +0.000 A 
ATOM     18  C   UNL     1       0.357  15.714  20.445  0.00  0.00    +0.000 A 
ATOM     19  C   UNL     1       0.849  14.488  19.992  0.00  0.00    +0.000 A 
ATOM     20  C   UNL     1      -0.062  13.462  19.826  0.00  0.00    +0.000 A 
ENDBRANCH   6  12
BRANCH   1  23
ATOM     21  C   UNL     1       4.162   4.156  19.242  0.00  0.00    +0.000 C 
ATOM     22  O   UNL     1       3.863   5.465  19.786  0.00  0.00    +0.000 OA
ATOM     23  C   UNL     1       2.541   5.425  20.356  0.00  0.00    +0.000 C 
ATOM     24  C   UNL     1       1.786   4.338  19.608  0.00  0.00    +0.000 C 
ATOM     25  C   UNL     1       2.892   3.312  19.394  0.00  0.00    +0.000 C 
BRANCH  24  26
ATOM     26  O   UNL     1       0.706   3.796  20.364  0.00  0.00    +0.000 OA
ATOM     27  H   UNL     1       1.099   3.402  21.171  0.00  0.00    +0.000 HD
ENDBRANCH  24  26
BRANCH  25  28
ATOM     28  O   UNL     1       2.948   2.474  20.566  0.00  0.00    +0.000 OA
ATOM     29  H   UNL     1       3.790   1.984  20.581  0.00  0.00    +0.000 HD
ENDBRANCH  25  28
BRANCH  21  30
ATOM     30  C   UNL     1       4.628   4.294  17.794  0.00  0.00    +0.000 C 
BRANCH  30  31
ATOM     31  O   UNL     1       5.708   5.212  17.741  0.00  0.00    +0.000 OA
BRANCH  31  32
ATOM     32  S   UNL     1       6.897   4.906  16.686  0.00  0.00    +0.000 S 
ATOM     33  O   UNL     1       7.471   6.150  16.248  0.00  0.00    +0.000 OA
ATOM     34  O   UNL     1       6.437   3.914  15.752  0.00  0.00    +0.000 OA
BRANCH  32  35
ATOM     35  N   UNL     1       8.060   4.144  17.609  0.00  0.00    +0.000 NA
ATOM     36  H   UNL     1       8.975   4.552  17.419  0.00  0.00    +0.000 HD
ATOM     37  H   UNL     1       8.037   3.137  17.437  0.00  0.00    +0.000 HD
ENDBRANCH  32  35
ENDBRANCH  31  32
ENDBRANCH  30  31
ENDBRANCH  21  30
ENDBRANCH   1  23
TORSDOF 8
ENDMDL
MODEL 8
REMARK VINA RESULT:      -7.8      1.563      1.626
REMARK  Name = 
REMARK  8 active torsions:
REMARK  status: ('A' for Active; 'I' for Inactive)
REMARK    1  A    between atoms: N_1  and  S_2
REMARK    2  A    between atoms: S_2  and  O_5
REMARK    3  A    between atoms: O_5  and  C_6
REMARK    4  A    between atoms: C_6  and  C_7
REMARK    5  A    between atoms: C_9  and  N_10
REMARK    6  A    between atoms: N_15  and  C_16
REMARK    7  A    between atoms: C_29  and  O_30
REMARK    8  A    between atoms: C_31  and  O_32
REMARK                            x       y       z     vdW  Elec       q    Type
REMARK                         _______ _______ _______ _____ _____    ______ ____
ROOT
ATOM      1  N   UNL     1       2.258   6.403  20.163  0.00  0.00    +0.000 N 
ATOM      2  C   UNL     1       1.387   6.743  21.167  0.00  0.00    +0.000 A 
ATOM      3  N   UNL     1       0.916   7.956  21.015  0.00  0.00    +0.000 NA
ATOM      4  C   UNL     1       1.440   8.397  19.814  0.00  0.00    +0.000 A 
ATOM      5  C   UNL     1       1.255   9.642  19.163  0.00  0.00    +0.000 A 
ATOM      6  N   UNL     1       0.570  10.673  19.782  0.00  0.00    +0.000 N 
ATOM      7  N   UNL     1       1.796   9.807  17.924  0.00  0.00    +0.000 NA
ATOM      8  C   UNL     1       2.556   8.821  17.387  0.00  0.00    +0.000 A 
ATOM      9  C   UNL     1       2.844   7.605  17.990  0.00  0.00    +0.000 A 
ATOM     10  C   UNL     1       2.244   7.414  19.232  0.00  0.00    +0.000 A 
ATOM     11  H   UNL     1       0.230  10.458  20.713  0.00  0.00    +0.000 HD
ENDROOT
BRANCH   6  12
ATOM     12  C   UNL     1      -0.133  11.645  18.983  0.00  0.00    +0.000 C 
ATOM     13  C   UNL     1      -1.597  11.899  19.418  0.00  0.00    +0.000 C 
ATOM     14  C   UNL     1      -1.507  12.854  20.614  0.00  0.00    +0.000 C 
ATOM     15  C   UNL     1      -0.452  13.767  20.067  0.00  0.00    +0.000 A 
ATOM     16  C   UNL     1      -0.363  15.142  20.176  0.00  0.00    +0.000 A 
ATOM     17  C   UNL     1       0.642  15.781  19.451  0.00  0.00    +0.000 A 
ATOM     18  C   UNL     1       1.573  15.042  18.702  0.00  0.00    +0.000 A 
ATOM     19  C   UNL     1       1.474  13.652  18.591  0.00  0.00    +0.000 A 
ATOM     20  C   UNL     1       0.411  13.040  19.226  0.00  0.00    +0.000 A 
ENDBRANCH   6  12
BRANCH   1  23
ATOM     21  C   UNL     1       4.738   4.089  19.009  0.00  0.00    +0.000 C 
ATOM     22  O   UNL     1       4.314   5.365  19.548  0.00  0.00    +0.000 OA
ATOM     23  C   UNL     1       3.039   5.181  20.192  0.00  0.00    +0.000 C 
ATOM     24  C   UNL     1       2.379   3.997  19.504  0.00  0.00    +0.000 C 
ATOM     25  C   UNL     1       3.587   3.104  19.245  0.00  0.00    +0.000 C 
BRANCH  24  26
ATOM     26  O   UNL     1       1.414   3.348  20.328  0.00  0.00    +0.000 OA
ATOM     27  H   UNL     1       1.510   2.385  20.167  0.00  0.00    +0.000 HD
ENDBRANCH  24  26
BRANCH  25  28
ATOM     28  O   UNL     1       3.805   2.305  20.425  0.00  0.00    +0.000 OA
ATOM     29  H   UNL     1       4.529   2.688  20.954  0.00  0.00    +0.000 HD
ENDBRANCH  25  28
BRANCH  21  30
ATOM     30  C   UNL     1       5.106   4.249  17.535  0.00  0.00    +0.000 C 
BRANCH  30  31
ATOM     31  O   UNL     1       5.699   5.522  17.342  0.00  0.00    +0.000 OA
BRANCH  31  32
ATOM     32  S   UNL     1       7.134   5.572  16.594  0.00  0.00    +0.000 S 
ATOM     33  O   UNL     1       7.906   4.419  16.974  0.00  0.00    +0.000 OA
ATOM     34  O   UNL     1       7.662   6.905  16.703  0.00  0.00    +0.000 OA
BRANCH  32  35
ATOM     35  N   UNL     1       6.748   5.376  14.982  0.00  0.00    +0.000 NA
ATOM     36  H   UNL     1       6.524   4.399  14.796  0.00  0.00    +0.000 HD
ATOM     37  H   UNL     1       7.512   5.720  14.396  0.00  0.00    +0.000 HD
ENDBRANCH  32  35
ENDBRANCH  31  32
ENDBRANCH  30  31
ENDBRANCH  21  30
ENDBRANCH   1  23
TORSDOF 8
ENDMDL
MODEL 9
REMARK VINA RESULT:      -7.8      2.056      3.121
REMARK  Name = 
REMARK  8 active torsions:
REMARK  status: ('A' for Active; 'I' for Inactive)
REMARK    1  A    between atoms: N_1  and  S_2
REMARK    2  A    between atoms: S_2  and  O_5
REMARK    3  A    between atoms: O_5  and  C_6
REMARK    4  A    between atoms: C_6  and  C_7
REMARK    5  A    between atoms: C_9  and  N_10
REMARK    6  A    between atoms: N_15  and  C_16
REMARK    7  A    between atoms: C_29  and  O_30
REMARK    8  A    between atoms: C_31  and  O_32
REMARK                            x       y       z     vdW  Elec       q    Type
REMARK                         _______ _______ _______ _____ _____    ______ ____
ROOT
ATOM      1  N   UNL     1       2.143   7.087  19.132  0.00  0.00    +0.000 N 
ATOM      2  C   UNL     1       2.248   7.815  17.975  0.00  0.00    +0.000 A 
ATOM      3  N   UNL     1       1.859   9.055  18.140  0.00  0.00    +0.000 NA
ATOM      4  C   UNL     1       1.563   9.162  19.486  0.00  0.00    +0.000 A 
ATOM      5  C   UNL     1       1.099  10.287  20.212  0.00  0.00    +0.000 A 
ATOM      6  N   UNL     1       0.748  11.457  19.561  0.00  0.00    +0.000 N 
ATOM      7  N   UNL     1       0.978  10.176  21.564  0.00  0.00    +0.000 NA
ATOM      8  C   UNL     1       1.223   8.986  22.164  0.00  0.00    +0.000 A 
ATOM      9  C   UNL     1       1.609   7.820  21.517  0.00  0.00    +0.000 A 
ATOM     10  C   UNL     1       1.789   7.949  20.142  0.00  0.00    +0.000 A 
ATOM     11  H   UNL     1       0.849  11.428  18.552  0.00  0.00    +0.000 HD
ENDROOT
BRANCH   6  12
ATOM     12  C   UNL     1       0.869  12.720  20.245  0.00  0.00    +0.000 C 
ATOM     13  C   UNL     1       1.128  13.932  19.317  0.00  0.00    +0.000 C 
ATOM     14  C   UNL     1      -0.242  14.304  18.741  0.00  0.00    +0.000 C 
ATOM     15  C   UNL     1      -1.040  14.160  20.000  0.00  0.00    +0.000 A 
ATOM     16  C   UNL     1      -2.077  14.952  20.459  0.00  0.00    +0.000 A 
ATOM     17  C   UNL     1      -2.564  14.696  21.740  0.00  0.00    +0.000 A 
ATOM     18  C   UNL     1      -2.067  13.624  22.499  0.00  0.00    +0.000 A 
ATOM     19  C   UNL     1      -1.016  12.831  22.034  0.00  0.00    +0.000 A 
ATOM     20  C   UNL     1      -0.468  13.160  20.809  0.00  0.00    +0.000 A 
ENDBRANCH   6  12
BRANCH   1  23
ATOM     21  C   UNL     1       4.082   4.074  19.159  0.00  0.00    +0.000 C 
ATOM     22  O   UNL     1       3.642   5.331  19.729  0.00  0.00    +0.000 OA
ATOM     23  C   UNL     1       2.354   5.653  19.170  0.00  0.00    +0.000 C 
ATOM     24  C   UNL     1       2.295   4.972  17.812  0.00  0.00    +0.000 C 
ATOM     25  C   UNL     1       3.042   3.677  18.105  0.00  0.00    +0.000 C 
BRANCH  24  26
ATOM     26  O   UNL     1       0.960   4.721  17.378  0.00  0.00    +0.000 OA
ATOM     27  H   UNL     1       0.404   5.435  17.755  0.00  0.00    +0.000 HD
ENDBRANCH  24  26
BRANCH  25  28
ATOM     28  O   UNL     1       2.092   2.728  18.628  0.00  0.00    +0.000 OA
ATOM     29  H   UNL     1       1.528   3.159  19.297  0.00  0.00    +0.000 HD
ENDBRANCH  25  28
BRANCH  21  30
ATOM     30  C   UNL     1       5.491   4.232  18.591  0.00  0.00    +0.000 C 
BRANCH  30  31
ATOM     31  O   UNL     1       6.067   5.421  19.105  0.00  0.00    +0.000 OA
BRANCH  31  32
ATOM     32  S   UNL     1       7.675   5.580  18.997  0.00  0.00    +0.000 S 
ATOM     33  O   UNL     1       7.992   6.931  18.621  0.00  0.00    +0.000 OA
ATOM     34  O   UNL     1       8.200   4.451  18.277  0.00  0.00    +0.000 OA
BRANCH  32  35
ATOM     35  N   UNL     1       8.198   5.388  20.570  0.00  0.00    +0.000 NA
ATOM     36  H   UNL     1       8.962   6.036  20.762  0.00  0.00    +0.000 HD
ATOM     37  H   UNL     1       8.462   4.414  20.734  0.00  0.00    +0.000 HD
ENDBRANCH  32  35
ENDBRANCH  31  32
ENDBRANCH  30  31
ENDBRANCH  21  30
ENDBRANCH   1  23
TORSDOF 8
ENDMDL
