MODEL 1
REMARK VINA RESULT:      -6.1      0.000      0.000
REMARK  Name = 
REMARK  15 active torsions:
REMARK  status: ('A' for Active; 'I' for Inactive)
REMARK    1  A    between atoms: C_1  and  C_2
REMARK    2  A    between atoms: C_2  and  N_3
REMARK    3  A    between atoms: N_3  and  C_4
REMARK    4  A    between atoms: C_4  and  C_5
REMARK    5  A    between atoms: C_8  and  C_9
REMARK    6  A    between atoms: C_12  and  S_13
REMARK    7  A    between atoms: S_13  and  C_14
REMARK    8  A    between atoms: C_14  and  C_15
REMARK    9  A    between atoms: N_17  and  C_18
REMARK   10  A    between atoms: C_18  and  C_19
REMARK   11  A    between atoms: C_19  and  C_20
REMARK   12  A    between atoms: C_20  and  N_21
REMARK   13  A    between atoms: N_22  and  C_23
REMARK   14  A    between atoms: C_23  and  C_24
REMARK   15  A    between atoms: C_24  and  N_25
REMARK                            x       y       z     vdW  Elec       q    Type
REMARK                         _______ _______ _______ _____ _____    ______ ____
ROOT
ATOM      1  N   UNL     1       3.246   4.189  20.160  0.00  0.00    +0.000 N 
ATOM      2  C   UNL     1       3.079   5.404  19.481  0.00  0.00    +0.000 A 
ATOM      3  N   UNL     1       3.836   5.609  18.375  0.00  0.00    +0.000 NA
ATOM      4  C   UNL     1       3.771   6.782  17.681  0.00  0.00    +0.000 A 
ATOM      5  C   UNL     1       4.655   6.959  16.489  0.00  0.00    +0.000 C 
ATOM      6  C   UNL     1       2.908   7.773  18.139  0.00  0.00    +0.000 A 
ATOM      7  N   UNL     1       2.637   9.042  17.696  0.00  0.00    +0.000 NA
ATOM      8  C   UNL     1       1.758   9.523  18.549  0.00  0.00    +0.000 A 
ATOM      9  N   UNL     1       1.428   8.602  19.520  0.00  0.00    +0.000 N 
ATOM     10  C   UNL     1       2.175   7.466  19.274  0.00  0.00    +0.000 A 
ATOM     11  N   UNL     1       2.218   6.324  19.980  0.00  0.00    +0.000 NA
ENDROOT
BRANCH   1  13
ATOM     12  C   UNL     1       4.580   2.082  20.246  0.00  0.00    +0.000 C 
ATOM     13  C   UNL     1       3.828   3.088  19.383  0.00  0.00    +0.000 C 
ENDBRANCH   1  13
BRANCH   1  14
ATOM     14  C   UNL     1       2.273   3.911  21.217  0.00  0.00    +0.000 C 
ATOM     15  C   UNL     1       1.058   3.126  20.730  0.00  0.00    +0.000 C 
ENDBRANCH   1  14
BRANCH   8  16
ATOM     16  S   UNL     1       1.117  11.137  18.479  0.00  0.00    +0.000 S 
BRANCH  16  17
ATOM     17  C   UNL     1       2.585  12.070  17.942  0.00  0.00    +0.000 C 
BRANCH  17  18
ATOM     18  C   UNL     1       2.586  13.477  18.528  0.00  0.00    +0.000 C 
ATOM     19  O   UNL     1       3.628  14.055  18.828  0.00  0.00    +0.000 OA
ATOM     20  N   UNL     1       1.347  14.082  18.621  0.00  0.00    +0.000 N 
ATOM     21  H   UNL     1       0.522  13.524  18.434  0.00  0.00    +0.000 HD
BRANCH  20  22
ATOM     22  C   UNL     1       1.181  15.444  19.104  0.00  0.00    +0.000 C 
BRANCH  22  23
ATOM     23  C   UNL     1      -0.248  15.959  18.930  0.00  0.00    +0.000 C 
BRANCH  23  24
ATOM     24  C   UNL     1      -1.188  15.336  19.965  0.00  0.00    +0.000 C 
BRANCH  24  25
ATOM     25  N   UNL     1      -1.566  13.980  19.575  0.00  0.00    +0.000 NA
ATOM     26  H   UNL     1      -2.568  13.934  19.399  0.00  0.00    +0.000 HD
ATOM     27  H   UNL     1      -1.381  13.340  20.348  0.00  0.00    +0.000 HD
ENDBRANCH  24  25
ENDBRANCH  23  24
ENDBRANCH  22  23
ENDBRANCH  20  22
ENDBRANCH  17  18
ENDBRANCH  16  17
ENDBRANCH   8  16
BRANCH   9  28
ATOM     28  C   UNL     1       0.553   8.770  20.665  0.00  0.00    +0.000 C 
BRANCH  28  29
ATOM     29  C   UNL     1       1.075   9.649  21.799  0.00  0.00    +0.000 C 
BRANCH  29  30
ATOM     30  N   UNL     1       0.079  10.555  22.316  0.00  0.00    +0.000 N 
ATOM     31  C   UNL     1      -0.975  10.271  23.124  0.00  0.00    +0.000 A 
ATOM     32  N   UNL     1      -1.673  11.365  23.328  0.00  0.00    +0.000 NA
ATOM     33  C   UNL     1      -0.980  12.307  22.623  0.00  0.00    +0.000 A 
ATOM     34  N   UNL     1       0.124  11.864  22.018  0.00  0.00    +0.000 NA
ENDBRANCH  29  30
ENDBRANCH  28  29
ENDBRANCH   9  28
TORSDOF 12
ENDMDL
MODEL 2
REMARK VINA RESULT:      -6.1      3.310      8.691
REMARK  Name = 
REMARK  15 active torsions:
REMARK  status: ('A' for Active; 'I' for Inactive)
REMARK    1  A    between atoms: C_1  and  C_2
REMARK    2  A    between atoms: C_2  and  N_3
REMARK    3  A    between atoms: N_3  and  C_4
REMARK    4  A    between atoms: C_4  and  C_5
REMARK    5  A    between atoms: C_8  and  C_9
REMARK    6  A    between atoms: C_12  and  S_13
REMARK    7  A    between atoms: S_13  and  C_14
REMARK    8  A    between atoms: C_14  and  C_15
REMARK    9  A    between atoms: N_17  and  C_18
REMARK   10  A    between atoms: C_18  and  C_19
REMARK   11  A    between atoms: C_19  and  C_20
REMARK   12  A    between atoms: C_20  and  N_21
REMARK   13  A    between atoms: N_22  and  C_23
REMARK   14  A    between atoms: C_23  and  C_24
REMARK   15  A    between atoms: C_24  and  N_25
REMARK                            x       y       z     vdW  Elec       q    Type
REMARK                         _______ _______ _______ _____ _____    ______ ____
ROOT
ATOM      1  N   UNL     1      -0.465  10.023  21.742  0.00  0.00    +0.000 N 
ATOM      2  C   UNL     1       0.443   9.591  20.765  0.00  0.00    +0.000 A 
ATOM      3  N   UNL     1       0.755  10.464  19.776  0.00  0.00    +0.000 NA
ATOM      4  C   UNL     1       1.593  10.110  18.759  0.00  0.00    +0.000 A 
ATOM      5  C   UNL     1       1.873  11.106  17.682  0.00  0.00    +0.000 C 
ATOM      6  C   UNL     1       2.121   8.822  18.757  0.00  0.00    +0.000 A 
ATOM      7  N   UNL     1       2.949   8.162  17.885  0.00  0.00    +0.000 NA
ATOM      8  C   UNL     1       3.077   6.952  18.383  0.00  0.00    +0.000 A 
ATOM      9  N   UNL     1       2.379   6.805  19.564  0.00  0.00    +0.000 N 
ATOM     10  C   UNL     1       1.745   8.007  19.812  0.00  0.00    +0.000 A 
ATOM     11  N   UNL     1       0.922   8.324  20.825  0.00  0.00    +0.000 NA
ENDROOT
BRANCH   1  13
ATOM     12  C   UNL     1      -1.710  11.864  22.876  0.00  0.00    +0.000 C 
ATOM     13  C   UNL     1      -0.612  11.475  21.893  0.00  0.00    +0.000 C 
ENDBRANCH   1  13
BRANCH   1  14
ATOM     14  C   UNL     1      -0.618   9.144  22.903  0.00  0.00    +0.000 C 
ATOM     15  C   UNL     1       0.500   9.296  23.930  0.00  0.00    +0.000 C 
ENDBRANCH   1  14
BRANCH   8  16
ATOM     16  S   UNL     1       3.988   5.679  17.627  0.00  0.00    +0.000 S 
BRANCH  16  17
ATOM     17  C   UNL     1       4.965   6.626  16.416  0.00  0.00    +0.000 C 
BRANCH  17  18
ATOM     18  C   UNL     1       6.023   5.748  15.759  0.00  0.00    +0.000 C 
ATOM     19  O   UNL     1       7.221   5.882  16.003  0.00  0.00    +0.000 OA
ATOM     20  N   UNL     1       5.540   4.747  14.939  0.00  0.00    +0.000 N 
ATOM     21  H   UNL     1       4.551   4.741  14.715  0.00  0.00    +0.000 HD
BRANCH  20  22
ATOM     22  C   UNL     1       6.415   3.788  14.283  0.00  0.00    +0.000 C 
BRANCH  22  23
ATOM     23  C   UNL     1       6.320   3.852  12.759  0.00  0.00    +0.000 C 
BRANCH  23  24
ATOM     24  C   UNL     1       5.039   3.181  12.257  0.00  0.00    +0.000 C 
BRANCH  24  25
ATOM     25  N   UNL     1       5.347   2.096  11.330  0.00  0.00    +0.000 NA
ATOM     26  H   UNL     1       6.353   2.028  11.192  0.00  0.00    +0.000 HD
ATOM     27  H   UNL     1       4.946   2.307  10.415  0.00  0.00    +0.000 HD
ENDBRANCH  24  25
ENDBRANCH  23  24
ENDBRANCH  22  23
ENDBRANCH  20  22
ENDBRANCH  17  18
ENDBRANCH  16  17
ENDBRANCH   8  16
BRANCH   9  28
ATOM     28  C   UNL     1       2.219   5.616  20.377  0.00  0.00    +0.000 C 
BRANCH  28  29
ATOM     29  C   UNL     1       1.217   4.577  19.877  0.00  0.00    +0.000 C 
BRANCH  29  30
ATOM     30  N   UNL     1       1.842   3.471  19.194  0.00  0.00    +0.000 N 
ATOM     31  C   UNL     1       2.836   2.662  19.641  0.00  0.00    +0.000 A 
ATOM     32  N   UNL     1       3.158   1.807  18.699  0.00  0.00    +0.000 NA
ATOM     33  C   UNL     1       2.304   2.133  17.684  0.00  0.00    +0.000 A 
ATOM     34  N   UNL     1       1.451   3.123  17.957  0.00  0.00    +0.000 NA
ENDBRANCH  29  30
ENDBRANCH  28  29
ENDBRANCH   9  28
TORSDOF 12
ENDMDL
MODEL 3
REMARK VINA RESULT:      -6.0      2.623      2.957
REMARK  Name = 
REMARK  15 active torsions:
REMARK  status: ('A' for Active; 'I' for Inactive)
REMARK    1  A    between atoms: C_1  and  C_2
REMARK    2  A    between atoms: C_2  and  N_3
REMARK    3  A    between atoms: N_3  and  C_4
REMARK    4  A    between atoms: C_4  and  C_5
REMARK    5  A    between atoms: C_8  and  C_9
REMARK    6  A    between atoms: C_12  and  S_13
REMARK    7  A    between atoms: S_13  and  C_14
REMARK    8  A    between atoms: C_14  and  C_15
REMARK    9  A    between atoms: N_17  and  C_18
REMARK   10  A    between atoms: C_18  and  C_19
REMARK   11  A    between atoms: C_19  and  C_20
REMARK   12  A    between atoms: C_20  and  N_21
REMARK   13  A    between atoms: N_22  and  C_23
REMARK   14  A    between atoms: C_23  and  C_24
REMARK   15  A    between atoms: C_24  and  N_25
REMARK                            x       y       z     vdW  Elec       q    Type
REMARK                         _______ _______ _______ _____ _____    ______ ____
ROOT
ATOM      1  N   UNL     1       3.448   3.811  20.407  0.00  0.00    +0.000 N 
ATOM      2  C   UNL     1       3.233   4.998  19.694  0.00  0.00    +0.000 A 
ATOM      3  N   UNL     1       3.948   5.181  18.557  0.00  0.00    +0.000 NA
ATOM      4  C   UNL     1       3.835   6.328  17.827  0.00  0.00    +0.000 A 
ATOM      5  C   UNL     1       4.674   6.481  16.600  0.00  0.00    +0.000 C 
ATOM      6  C   UNL     1       2.966   7.316  18.281  0.00  0.00    +0.000 A 
ATOM      7  N   UNL     1       2.654   8.564  17.805  0.00  0.00    +0.000 NA
ATOM      8  C   UNL     1       1.794   9.056  18.670  0.00  0.00    +0.000 A 
ATOM      9  N   UNL     1       1.516   8.162  19.683  0.00  0.00    +0.000 N 
ATOM     10  C   UNL     1       2.278   7.034  19.450  0.00  0.00    +0.000 A 
ATOM     11  N   UNL     1       2.369   5.918  20.191  0.00  0.00    +0.000 NA
ENDROOT
BRANCH   1  13
ATOM     12  C   UNL     1       4.802   1.718  20.524  0.00  0.00    +0.000 C 
ATOM     13  C   UNL     1       4.027   2.696  19.649  0.00  0.00    +0.000 C 
ENDBRANCH   1  13
BRANCH   1  14
ATOM     14  C   UNL     1       2.517   3.549  21.506  0.00  0.00    +0.000 C 
ATOM     15  C   UNL     1       1.280   2.766  21.077  0.00  0.00    +0.000 C 
ENDBRANCH   1  14
BRANCH   8  16
ATOM     16  S   UNL     1       1.116  10.653  18.569  0.00  0.00    +0.000 S 
BRANCH  16  17
ATOM     17  C   UNL     1      -0.482  10.299  17.771  0.00  0.00    +0.000 C 
BRANCH  17  18
ATOM     18  C   UNL     1      -1.611  11.079  18.435  0.00  0.00    +0.000 C 
ATOM     19  O   UNL     1      -1.402  11.873  19.350  0.00  0.00    +0.000 OA
ATOM     20  N   UNL     1      -2.866  10.892  17.887  0.00  0.00    +0.000 N 
ATOM     21  H   UNL     1      -2.984  10.165  17.190  0.00  0.00    +0.000 HD
BRANCH  20  22
ATOM     22  C   UNL     1      -4.038  11.605  18.366  0.00  0.00    +0.000 C 
BRANCH  22  23
ATOM     23  C   UNL     1      -5.242  11.451  17.436  0.00  0.00    +0.000 C 
BRANCH  23  24
ATOM     24  C   UNL     1      -6.380  12.387  17.848  0.00  0.00    +0.000 C 
BRANCH  24  25
ATOM     25  N   UNL     1      -7.181  12.776  16.690  0.00  0.00    +0.000 NA
ATOM     26  H   UNL     1      -7.883  12.065  16.495  0.00  0.00    +0.000 HD
ATOM     27  H   UNL     1      -6.583  12.823  15.865  0.00  0.00    +0.000 HD
ENDBRANCH  24  25
ENDBRANCH  23  24
ENDBRANCH  22  23
ENDBRANCH  20  22
ENDBRANCH  17  18
ENDBRANCH  16  17
ENDBRANCH   8  16
BRANCH   9  28
ATOM     28  C   UNL     1       0.677   8.351  20.850  0.00  0.00    +0.000 C 
BRANCH  28  29
ATOM     29  C   UNL     1       1.219   9.275  21.938  0.00  0.00    +0.000 C 
BRANCH  29  30
ATOM     30  N   UNL     1       0.261  10.261  22.372  0.00  0.00    +0.000 N 
ATOM     31  C   UNL     1      -0.843  10.078  23.142  0.00  0.00    +0.000 A 
ATOM     32  N   UNL     1      -1.479  11.219  23.270  0.00  0.00    +0.000 NA
ATOM     33  C   UNL     1      -0.699  12.086  22.559  0.00  0.00    +0.000 A 
ATOM     34  N   UNL     1       0.401  11.551  22.024  0.00  0.00    +0.000 NA
ENDBRANCH  29  30
ENDBRANCH  28  29
ENDBRANCH   9  28
TORSDOF 12
ENDMDL
MODEL 4
REMARK VINA RESULT:      -6.0      5.211      8.449
REMARK  Name = 
REMARK  15 active torsions:
REMARK  status: ('A' for Active; 'I' for Inactive)
REMARK    1  A    between atoms: C_1  and  C_2
REMARK    2  A    between atoms: C_2  and  N_3
REMARK    3  A    between atoms: N_3  and  C_4
REMARK    4  A    between atoms: C_4  and  C_5
REMARK    5  A    between atoms: C_8  and  C_9
REMARK    6  A    between atoms: C_12  and  S_13
REMARK    7  A    between atoms: S_13  and  C_14
REMARK    8  A    between atoms: C_14  and  C_15
REMARK    9  A    between atoms: N_17  and  C_18
REMARK   10  A    between atoms: C_18  and  C_19
REMARK   11  A    between atoms: C_19  and  C_20
REMARK   12  A    between atoms: C_20  and  N_21
REMARK   13  A    between atoms: N_22  and  C_23
REMARK   14  A    between atoms: C_23  and  C_24
REMARK   15  A    between atoms: C_24  and  N_25
REMARK                            x       y       z     vdW  Elec       q    Type
REMARK                         _______ _______ _______ _____ _____    ______ ____
ROOT
ATOM      1  N   UNL     1       2.006   3.079  17.844  0.00  0.00    +0.000 N 
ATOM      2  C   UNL     1       2.787   4.243  17.843  0.00  0.00    +0.000 A 
ATOM      3  N   UNL     1       2.164   5.412  18.134  0.00  0.00    +0.000 NA
ATOM      4  C   UNL     1       2.838   6.598  18.109  0.00  0.00    +0.000 A 
ATOM      5  C   UNL     1       2.088   7.854  18.408  0.00  0.00    +0.000 C 
ATOM      6  C   UNL     1       4.189   6.582  17.773  0.00  0.00    +0.000 A 
ATOM      7  N   UNL     1       5.120   7.579  17.634  0.00  0.00    +0.000 NA
ATOM      8  C   UNL     1       6.225   6.969  17.265  0.00  0.00    +0.000 A 
ATOM      9  N   UNL     1       6.053   5.603  17.181  0.00  0.00    +0.000 N 
ATOM     10  C   UNL     1       4.734   5.339  17.497  0.00  0.00    +0.000 A 
ATOM     11  N   UNL     1       4.098   4.156  17.510  0.00  0.00    +0.000 NA
ENDROOT
BRANCH   1  13
ATOM     12  C   UNL     1       0.963   3.006  20.110  0.00  0.00    +0.000 C 
ATOM     13  C   UNL     1       0.753   3.140  18.607  0.00  0.00    +0.000 C 
ENDBRANCH   1  13
BRANCH   1  14
ATOM     14  C   UNL     1       2.741   1.818  17.736  0.00  0.00    +0.000 C 
ATOM     15  C   UNL     1       3.668   1.555  18.919  0.00  0.00    +0.000 C 
ENDBRANCH   1  14
BRANCH   8  16
ATOM     16  S   UNL     1       7.712   7.787  16.894  0.00  0.00    +0.000 S 
BRANCH  16  17
ATOM     17  C   UNL     1       8.316   8.181  18.566  0.00  0.00    +0.000 C 
BRANCH  17  18
ATOM     18  C   UNL     1       8.764   9.635  18.658  0.00  0.00    +0.000 C 
ATOM     19  O   UNL     1       8.552  10.439  17.753  0.00  0.00    +0.000 OA
ATOM     20  N   UNL     1       9.350  10.001  19.855  0.00  0.00    +0.000 N 
ATOM     21  H   UNL     1       9.569   9.275  20.528  0.00  0.00    +0.000 HD
BRANCH  20  22
ATOM     22  C   UNL     1       9.779  11.364  20.126  0.00  0.00    +0.000 C 
BRANCH  22  23
ATOM     23  C   UNL     1      11.255  11.591  19.798  0.00  0.00    +0.000 C 
BRANCH  23  24
ATOM     24  C   UNL     1      11.416  12.572  18.633  0.00  0.00    +0.000 C 
BRANCH  24  25
ATOM     25  N   UNL     1      11.346  11.876  17.352  0.00  0.00    +0.000 NA
ATOM     26  H   UNL     1      11.117  10.895  17.498  0.00  0.00    +0.000 HD
ATOM     27  H   UNL     1      12.263  11.893  16.905  0.00  0.00    +0.000 HD
ENDBRANCH  24  25
ENDBRANCH  23  24
ENDBRANCH  22  23
ENDBRANCH  20  22
ENDBRANCH  17  18
ENDBRANCH  16  17
ENDBRANCH   8  16
BRANCH   9  28
ATOM     28  C   UNL     1       7.004   4.597  16.750  0.00  0.00    +0.000 C 
BRANCH  28  29
ATOM     29  C   UNL     1       6.580   3.715  15.578  0.00  0.00    +0.000 C 
BRANCH  29  30
ATOM     30  N   UNL     1       6.948   4.262  14.295  0.00  0.00    +0.000 N 
ATOM     31  C   UNL     1       6.518   3.881  13.065  0.00  0.00    +0.000 A 
ATOM     32  N   UNL     1       7.128   4.598  12.150  0.00  0.00    +0.000 NA
ATOM     33  C   UNL     1       7.922   5.428  12.889  0.00  0.00    +0.000 A 
ATOM     34  N   UNL     1       7.815   5.285  14.212  0.00  0.00    +0.000 NA
ENDBRANCH  29  30
ENDBRANCH  28  29
ENDBRANCH   9  28
TORSDOF 12
ENDMDL
MODEL 5
REMARK VINA RESULT:      -5.8      2.995      9.285
REMARK  Name = 
REMARK  15 active torsions:
REMARK  status: ('A' for Active; 'I' for Inactive)
REMARK    1  A    between atoms: C_1  and  C_2
REMARK    2  A    between atoms: C_2  and  N_3
REMARK    3  A    between atoms: N_3  and  C_4
REMARK    4  A    between atoms: C_4  and  C_5
REMARK    5  A    between atoms: C_8  and  C_9
REMARK    6  A    between atoms: C_12  and  S_13
REMARK    7  A    between atoms: S_13  and  C_14
REMARK    8  A    between atoms: C_14  and  C_15
REMARK    9  A    between atoms: N_17  and  C_18
REMARK   10  A    between atoms: C_18  and  C_19
REMARK   11  A    between atoms: C_19  and  C_20
REMARK   12  A    between atoms: C_20  and  N_21
REMARK   13  A    between atoms: N_22  and  C_23
REMARK   14  A    between atoms: C_23  and  C_24
REMARK   15  A    between atoms: C_24  and  N_25
REMARK                            x       y       z     vdW  Elec       q    Type
REMARK                         _______ _______ _______ _____ _____    ______ ____
ROOT
ATOM      1  N   UNL     1       1.015  12.494  19.555  0.00  0.00    +0.000 N 
ATOM      2  C   UNL     1       0.947  11.203  20.096  0.00  0.00    +0.000 A 
ATOM      3  N   UNL     1       0.331  11.063  21.296  0.00  0.00    +0.000 NA
ATOM      4  C   UNL     1       0.261   9.850  21.917  0.00  0.00    +0.000 A 
ATOM      5  C   UNL     1      -0.403   9.767  23.253  0.00  0.00    +0.000 C 
ATOM      6  C   UNL     1       0.845   8.753  21.290  0.00  0.00    +0.000 A 
ATOM      7  N   UNL     1       0.969   7.436  21.654  0.00  0.00    +0.000 NA
ATOM      8  C   UNL     1       1.649   6.873  20.679  0.00  0.00    +0.000 A 
ATOM      9  N   UNL     1       1.951   7.772  19.678  0.00  0.00    +0.000 N 
ATOM     10  C   UNL     1       1.446   8.998  20.066  0.00  0.00    +0.000 A 
ATOM     11  N   UNL     1       1.533  10.178  19.431  0.00  0.00    +0.000 NA
ENDROOT
BRANCH   1  13
ATOM     12  C   UNL     1      -1.361  13.252  19.473  0.00  0.00    +0.000 C 
ATOM     13  C   UNL     1       0.031  13.460  20.057  0.00  0.00    +0.000 C 
ENDBRANCH   1  13
BRANCH   1  14
ATOM     14  C   UNL     1       1.493  12.582  18.174  0.00  0.00    +0.000 C 
ATOM     15  C   UNL     1       2.815  13.331  18.038  0.00  0.00    +0.000 C 
ENDBRANCH   1  14
BRANCH   8  16
ATOM     16  S   UNL     1       2.136   5.205  20.668  0.00  0.00    +0.000 S 
BRANCH  16  17
ATOM     17  C   UNL     1       0.649   4.415  19.976  0.00  0.00    +0.000 C 
BRANCH  17  18
ATOM     18  C   UNL     1       1.009   3.159  19.192  0.00  0.00    +0.000 C 
ATOM     19  O   UNL     1       0.241   2.202  19.108  0.00  0.00    +0.000 OA
ATOM     20  N   UNL     1       2.217   3.203  18.522  0.00  0.00    +0.000 N 
ATOM     21  H   UNL     1       2.838   3.984  18.697  0.00  0.00    +0.000 HD
BRANCH  20  22
ATOM     22  C   UNL     1       2.681   2.110  17.682  0.00  0.00    +0.000 C 
BRANCH  22  23
ATOM     23  C   UNL     1       3.794   1.295  18.340  0.00  0.00    +0.000 C 
BRANCH  23  24
ATOM     24  C   UNL     1       4.301   1.979  19.611  0.00  0.00    +0.000 C 
BRANCH  24  25
ATOM     25  N   UNL     1       5.284   3.010  19.293  0.00  0.00    +0.000 NA
ATOM     26  H   UNL     1       6.145   2.845  19.811  0.00  0.00    +0.000 HD
ATOM     27  H   UNL     1       4.935   3.919  19.599  0.00  0.00    +0.000 HD
ENDBRANCH  24  25
ENDBRANCH  23  24
ENDBRANCH  22  23
ENDBRANCH  20  22
ENDBRANCH  17  18
ENDBRANCH  16  17
ENDBRANCH   8  16
BRANCH   9  28
ATOM     28  C   UNL     1       2.735   7.558  18.477  0.00  0.00    +0.000 C 
BRANCH  28  29
ATOM     29  C   UNL     1       3.755   6.422  18.522  0.00  0.00    +0.000 C 
BRANCH  29  30
ATOM     30  N   UNL     1       4.418   6.207  17.259  0.00  0.00    +0.000 N 
ATOM     31  C   UNL     1       4.931   7.136  16.411  0.00  0.00    +0.000 A 
ATOM     32  N   UNL     1       5.407   6.535  15.346  0.00  0.00    +0.000 NA
ATOM     33  C   UNL     1       5.171   5.215  15.606  0.00  0.00    +0.000 A 
ATOM     34  N   UNL     1       4.602   4.963  16.787  0.00  0.00    +0.000 NA
ENDBRANCH  29  30
ENDBRANCH  28  29
ENDBRANCH   9  28
TORSDOF 12
ENDMDL
MODEL 6
REMARK VINA RESULT:      -5.8      2.128      2.666
REMARK  Name = 
REMARK  15 active torsions:
REMARK  status: ('A' for Active; 'I' for Inactive)
REMARK    1  A    between atoms: C_1  and  C_2
REMARK    2  A    between atoms: C_2  and  N_3
REMARK    3  A    between atoms: N_3  and  C_4
REMARK    4  A    between atoms: C_4  and  C_5
REMARK    5  A    between atoms: C_8  and  C_9
REMARK    6  A    between atoms: C_12  and  S_13
REMARK    7  A    between atoms: S_13  and  C_14
REMARK    8  A    between atoms: C_14  and  C_15
REMARK    9  A    between atoms: N_17  and  C_18
REMARK   10  A    between atoms: C_18  and  C_19
REMARK   11  A    between atoms: C_19  and  C_20
REMARK   12  A    between atoms: C_20  and  N_21
REMARK   13  A    between atoms: N_22  and  C_23
REMARK   14  A    between atoms: C_23  and  C_24
REMARK   15  A    between atoms: C_24  and  N_25
REMARK                            x       y       z     vdW  Elec       q    Type
REMARK                         _______ _______ _______ _____ _____    ______ ____
ROOT
ATOM      1  N   UNL     1       3.019   4.048  20.407  0.00  0.00    +0.000 N 
ATOM      2  C   UNL     1       2.885   5.260  19.715  0.00  0.00    +0.000 A 
ATOM      3  N   UNL     1       3.613   5.413  18.581  0.00  0.00    +0.000 NA
ATOM      4  C   UNL     1       3.579   6.578  17.872  0.00  0.00    +0.000 A 
ATOM      5  C   UNL     1       4.428   6.696  16.648  0.00  0.00    +0.000 C 
ATOM      6  C   UNL     1       2.778   7.615  18.343  0.00  0.00    +0.000 A 
ATOM      7  N   UNL     1       2.552   8.889  17.889  0.00  0.00    +0.000 NA
ATOM      8  C   UNL     1       1.726   9.423  18.763  0.00  0.00    +0.000 A 
ATOM      9  N   UNL     1       1.387   8.532  19.760  0.00  0.00    +0.000 N 
ATOM     10  C   UNL     1       2.071   7.359  19.507  0.00  0.00    +0.000 A 
ATOM     11  N   UNL     1       2.085   6.227  20.228  0.00  0.00    +0.000 NA
ENDROOT
BRANCH   1  13
ATOM     12  C   UNL     1       4.684   2.193  20.304  0.00  0.00    +0.000 C 
ATOM     13  C   UNL     1       3.521   2.910  19.629  0.00  0.00    +0.000 C 
ENDBRANCH   1  13
BRANCH   1  14
ATOM     14  C   UNL     1       2.070   3.831  21.501  0.00  0.00    +0.000 C 
ATOM     15  C   UNL     1       1.333   2.498  21.407  0.00  0.00    +0.000 C 
ENDBRANCH   1  14
BRANCH   8  16
ATOM     16  S   UNL     1       1.158  11.064  18.690  0.00  0.00    +0.000 S 
BRANCH  16  17
ATOM     17  C   UNL     1      -0.627  10.801  18.443  0.00  0.00    +0.000 C 
BRANCH  17  18
ATOM     18  C   UNL     1      -1.420  12.051  18.802  0.00  0.00    +0.000 C 
ATOM     19  O   UNL     1      -1.056  13.174  18.456  0.00  0.00    +0.000 OA
ATOM     20  N   UNL     1      -2.610  11.830  19.470  0.00  0.00    +0.000 N 
ATOM     21  H   UNL     1      -2.812  10.892  19.797  0.00  0.00    +0.000 HD
BRANCH  20  22
ATOM     22  C   UNL     1      -3.511  12.911  19.832  0.00  0.00    +0.000 C 
BRANCH  22  23
ATOM     23  C   UNL     1      -4.447  12.536  20.982  0.00  0.00    +0.000 C 
BRANCH  23  24
ATOM     24  C   UNL     1      -5.867  12.276  20.475  0.00  0.00    +0.000 C 
BRANCH  24  25
ATOM     25  N   UNL     1      -6.692  11.675  21.519  0.00  0.00    +0.000 NA
ATOM     26  H   UNL     1      -7.130  12.403  22.081  0.00  0.00    +0.000 HD
ATOM     27  H   UNL     1      -6.100  11.140  22.154  0.00  0.00    +0.000 HD
ENDBRANCH  24  25
ENDBRANCH  23  24
ENDBRANCH  22  23
ENDBRANCH  20  22
ENDBRANCH  17  18
ENDBRANCH  16  17
ENDBRANCH   8  16
BRANCH   9  28
ATOM     28  C   UNL     1       0.561   8.757  20.930  0.00  0.00    +0.000 C 
BRANCH  28  29
ATOM     29  C   UNL     1       1.038   9.831  21.905  0.00  0.00    +0.000 C 
BRANCH  29  30
ATOM     30  N   UNL     1      -0.008  10.744  22.297  0.00  0.00    +0.000 N 
ATOM     31  C   UNL     1      -0.140  12.057  21.978  0.00  0.00    +0.000 A 
ATOM     32  N   UNL     1      -1.203  12.544  22.573  0.00  0.00    +0.000 NA
ATOM     33  C   UNL     1      -1.703  11.464  23.243  0.00  0.00    +0.000 A 
ATOM     34  N   UNL     1      -1.024  10.327  23.071  0.00  0.00    +0.000 NA
ENDBRANCH  29  30
ENDBRANCH  28  29
ENDBRANCH   9  28
TORSDOF 12
ENDMDL
MODEL 7
REMARK VINA RESULT:      -5.8      3.197      8.718
REMARK  Name = 
REMARK  15 active torsions:
REMARK  status: ('A' for Active; 'I' for Inactive)
REMARK    1  A    between atoms: C_1  and  C_2
REMARK    2  A    between atoms: C_2  and  N_3
REMARK    3  A    between atoms: N_3  and  C_4
REMARK    4  A    between atoms: C_4  and  C_5
REMARK    5  A    between atoms: C_8  and  C_9
REMARK    6  A    between atoms: C_12  and  S_13
REMARK    7  A    between atoms: S_13  and  C_14
REMARK    8  A    between atoms: C_14  and  C_15
REMARK    9  A    between atoms: N_17  and  C_18
REMARK   10  A    between atoms: C_18  and  C_19
REMARK   11  A    between atoms: C_19  and  C_20
REMARK   12  A    between atoms: C_20  and  N_21
REMARK   13  A    between atoms: N_22  and  C_23
REMARK   14  A    between atoms: C_23  and  C_24
REMARK   15  A    between atoms: C_24  and  N_25
REMARK                            x       y       z     vdW  Elec       q    Type
REMARK                         _______ _______ _______ _____ _____    ______ ____
ROOT
ATOM      1  N   UNL     1      -2.500  12.620  22.497  0.00  0.00    +0.000 N 
ATOM      2  C   UNL     1      -1.606  11.595  22.161  0.00  0.00    +0.000 A 
ATOM      3  N   UNL     1      -1.031  10.910  23.180  0.00  0.00    +0.000 NA
ATOM      4  C   UNL     1      -0.113   9.929  22.944  0.00  0.00    +0.000 A 
ATOM      5  C   UNL     1       0.507   9.233  24.111  0.00  0.00    +0.000 C 
ATOM      6  C   UNL     1       0.225   9.646  21.623  0.00  0.00    +0.000 A 
ATOM      7  N   UNL     1       1.111   8.761  21.064  0.00  0.00    +0.000 NA
ATOM      8  C   UNL     1       1.029   8.966  19.768  0.00  0.00    +0.000 A 
ATOM      9  N   UNL     1       0.102   9.939  19.459  0.00  0.00    +0.000 N 
ATOM     10  C   UNL     1      -0.419  10.398  20.654  0.00  0.00    +0.000 A 
ATOM     11  N   UNL     1      -1.323  11.371  20.854  0.00  0.00    +0.000 NA
ENDROOT
BRANCH   1  13
ATOM     12  C   UNL     1      -4.601  12.788  23.833  0.00  0.00    +0.000 C 
ATOM     13  C   UNL     1      -3.096  12.546  23.836  0.00  0.00    +0.000 C 
ENDBRANCH   1  13
BRANCH   1  14
ATOM     14  C   UNL     1      -3.259  13.195  21.385  0.00  0.00    +0.000 C 
ATOM     15  C   UNL     1      -3.011  14.688  21.191  0.00  0.00    +0.000 C 
ENDBRANCH   1  14
BRANCH   8  16
ATOM     16  S   UNL     1       1.997   8.136  18.587  0.00  0.00    +0.000 S 
BRANCH  16  17
ATOM     17  C   UNL     1       2.849   6.914  19.636  0.00  0.00    +0.000 C 
BRANCH  17  18
ATOM     18  C   UNL     1       2.229   5.531  19.480  0.00  0.00    +0.000 C 
ATOM     19  O   UNL     1       1.456   5.067  20.317  0.00  0.00    +0.000 OA
ATOM     20  N   UNL     1       2.530   4.873  18.303  0.00  0.00    +0.000 N 
ATOM     21  H   UNL     1       3.235   5.272  17.694  0.00  0.00    +0.000 HD
BRANCH  20  22
ATOM     22  C   UNL     1       1.973   3.571  17.975  0.00  0.00    +0.000 C 
BRANCH  22  23
ATOM     23  C   UNL     1       3.049   2.502  17.783  0.00  0.00    +0.000 C 
BRANCH  23  24
ATOM     24  C   UNL     1       3.758   2.190  19.103  0.00  0.00    +0.000 C 
BRANCH  24  25
ATOM     25  N   UNL     1       4.998   2.952  19.221  0.00  0.00    +0.000 NA
ATOM     26  H   UNL     1       5.306   2.971  20.192  0.00  0.00    +0.000 HD
ATOM     27  H   UNL     1       4.828   3.922  18.955  0.00  0.00    +0.000 HD
ENDBRANCH  24  25
ENDBRANCH  23  24
ENDBRANCH  22  23
ENDBRANCH  20  22
ENDBRANCH  17  18
ENDBRANCH  16  17
ENDBRANCH   8  16
BRANCH   9  28
ATOM     28  C   UNL     1      -0.231  10.492  18.161  0.00  0.00    +0.000 C 
BRANCH  28  29
ATOM     29  C   UNL     1      -1.158   9.656  17.281  0.00  0.00    +0.000 C 
BRANCH  29  30
ATOM     30  N   UNL     1      -2.383  10.338  16.942  0.00  0.00    +0.000 N 
ATOM     31  C   UNL     1      -2.911  10.553  15.710  0.00  0.00    +0.000 A 
ATOM     32  N   UNL     1      -4.014  11.255  15.826  0.00  0.00    +0.000 NA
ATOM     33  C   UNL     1      -4.125  11.431  17.176  0.00  0.00    +0.000 A 
ATOM     34  N   UNL     1      -3.168  10.851  17.904  0.00  0.00    +0.000 NA
ENDBRANCH  29  30
ENDBRANCH  28  29
ENDBRANCH   9  28
TORSDOF 12
ENDMDL
MODEL 8
REMARK VINA RESULT:      -5.8      3.374      6.662
REMARK  Name = 
REMARK  15 active torsions:
REMARK  status: ('A' for Active; 'I' for Inactive)
REMARK    1  A    between atoms: C_1  and  C_2
REMARK    2  A    between atoms: C_2  and  N_3
REMARK    3  A    between atoms: N_3  and  C_4
REMARK    4  A    between atoms: C_4  and  C_5
REMARK    5  A    between atoms: C_8  and  C_9
REMARK    6  A    between atoms: C_12  and  S_13
REMARK    7  A    between atoms: S_13  and  C_14
REMARK    8  A    between atoms: C_14  and  C_15
REMARK    9  A    between atoms: N_17  and  C_18
REMARK   10  A    between atoms: C_18  and  C_19
REMARK   11  A    between atoms: C_19  and  C_20
REMARK   12  A    between atoms: C_20  and  N_21
REMARK   13  A    between atoms: N_22  and  C_23
REMARK   14  A    between atoms: C_23  and  C_24
REMARK   15  A    between atoms: C_24  and  N_25
REMARK                            x       y       z     vdW  Elec       q    Type
REMARK                         _______ _______ _______ _____ _____    ______ ____
ROOT
ATOM      1  N   UNL     1       6.925   4.342  14.095  0.00  0.00    +0.000 N 
ATOM      2  C   UNL     1       6.357   4.982  15.205  0.00  0.00    +0.000 A 
ATOM      3  N   UNL     1       7.104   5.926  15.829  0.00  0.00    +0.000 NA
ATOM      4  C   UNL     1       6.648   6.566  16.945  0.00  0.00    +0.000 A 
ATOM      5  C   UNL     1       7.531   7.574  17.604  0.00  0.00    +0.000 C 
ATOM      6  C   UNL     1       5.391   6.221  17.435  0.00  0.00    +0.000 A 
ATOM      7  N   UNL     1       4.674   6.646  18.524  0.00  0.00    +0.000 NA
ATOM      8  C   UNL     1       3.565   5.941  18.502  0.00  0.00    +0.000 A 
ATOM      9  N   UNL     1       3.522   5.086  17.420  0.00  0.00    +0.000 N 
ATOM     10  C   UNL     1       4.705   5.249  16.726  0.00  0.00    +0.000 A 
ATOM     11  N   UNL     1       5.127   4.601  15.628  0.00  0.00    +0.000 NA
ENDROOT
BRANCH   1  13
ATOM     12  C   UNL     1       7.580   5.759  12.150  0.00  0.00    +0.000 C 
ATOM     13  C   UNL     1       8.020   5.054  13.426  0.00  0.00    +0.000 C 
ENDBRANCH   1  13
BRANCH   1  14
ATOM     14  C   UNL     1       6.023   3.487  13.322  0.00  0.00    +0.000 C 
ATOM     15  C   UNL     1       6.626   3.002  12.008  0.00  0.00    +0.000 C 
ENDBRANCH   1  14
BRANCH   8  16
ATOM     16  S   UNL     1       2.318   6.047  19.707  0.00  0.00    +0.000 S 
BRANCH  16  17
ATOM     17  C   UNL     1       2.569   7.746  20.314  0.00  0.00    +0.000 C 
BRANCH  17  18
ATOM     18  C   UNL     1       1.241   8.483  20.445  0.00  0.00    +0.000 C 
ATOM     19  O   UNL     1       0.572   8.438  21.476  0.00  0.00    +0.000 OA
ATOM     20  N   UNL     1       0.885   9.263  19.362  0.00  0.00    +0.000 N 
ATOM     21  H   UNL     1       1.437   9.193  18.514  0.00  0.00    +0.000 HD
BRANCH  20  22
ATOM     22  C   UNL     1      -0.321  10.075  19.351  0.00  0.00    +0.000 C 
BRANCH  22  23
ATOM     23  C   UNL     1      -0.959  10.162  17.964  0.00  0.00    +0.000 C 
BRANCH  23  24
ATOM     24  C   UNL     1      -1.942  11.332  17.882  0.00  0.00    +0.000 C 
BRANCH  24  25
ATOM     25  N   UNL     1      -1.283  12.532  17.374  0.00  0.00    +0.000 NA
ATOM     26  H   UNL     1      -1.674  12.789  16.469  0.00  0.00    +0.000 HD
ATOM     27  H   UNL     1      -0.295  12.335  17.214  0.00  0.00    +0.000 HD
ENDBRANCH  24  25
ENDBRANCH  23  24
ENDBRANCH  22  23
ENDBRANCH  20  22
ENDBRANCH  17  18
ENDBRANCH  16  17
ENDBRANCH   8  16
BRANCH   9  28
ATOM     28  C   UNL     1       2.507   4.107  17.081  0.00  0.00    +0.000 C 
BRANCH  28  29
ATOM     29  C   UNL     1       2.723   2.690  17.608  0.00  0.00    +0.000 C 
BRANCH  29  30
ATOM     30  N   UNL     1       2.447   2.564  19.019  0.00  0.00    +0.000 N 
ATOM     31  C   UNL     1       1.240   2.467  19.633  0.00  0.00    +0.000 A 
ATOM     32  N   UNL     1       1.417   2.417  20.933  0.00  0.00    +0.000 NA
ATOM     33  C   UNL     1       2.775   2.471  21.061  0.00  0.00    +0.000 A 
ATOM     34  N   UNL     1       3.451   2.522  19.910  0.00  0.00    +0.000 NA
ENDBRANCH  29  30
ENDBRANCH  28  29
ENDBRANCH   9  28
TORSDOF 12
ENDMDL
MODEL 9
REMARK VINA RESULT:      -5.8      3.278      6.533
REMARK  Name = 
REMARK  15 active torsions:
REMARK  status: ('A' for Active; 'I' for Inactive)
REMARK    1  A    between atoms: C_1  and  C_2
REMARK    2  A    between atoms: C_2  and  N_3
REMARK    3  A    between atoms: N_3  and  C_4
REMARK    4  A    between atoms: C_4  and  C_5
REMARK    5  A    between atoms: C_8  and  C_9
REMARK    6  A    between atoms: C_12  and  S_13
REMARK    7  A    between atoms: S_13  and  C_14
REMARK    8  A    between atoms: C_14  and  C_15
REMARK    9  A    between atoms: N_17  and  C_18
REMARK   10  A    between atoms: C_18  and  C_19
REMARK   11  A    between atoms: C_19  and  C_20
REMARK   12  A    between atoms: C_20  and  N_21
REMARK   13  A    between atoms: N_22  and  C_23
REMARK   14  A    between atoms: C_23  and  C_24
REMARK   15  A    between atoms: C_24  and  N_25
REMARK                            x       y       z     vdW  Elec       q    Type
REMARK                         _______ _______ _______ _____ _____    ______ ____
ROOT
ATOM      1  N   UNL     1       6.906   4.233  14.080  0.00  0.00    +0.000 N 
ATOM      2  C   UNL     1       6.336   4.902  15.172  0.00  0.00    +0.000 A 
ATOM      3  N   UNL     1       7.076   5.872  15.763  0.00  0.00    +0.000 NA
ATOM      4  C   UNL     1       6.617   6.542  16.860  0.00  0.00    +0.000 A 
ATOM      5  C   UNL     1       7.493   7.578  17.485  0.00  0.00    +0.000 C 
ATOM      6  C   UNL     1       5.366   6.201  17.366  0.00  0.00    +0.000 A 
ATOM      7  N   UNL     1       4.649   6.652  18.444  0.00  0.00    +0.000 NA
ATOM      8  C   UNL     1       3.546   5.935  18.448  0.00  0.00    +0.000 A 
ATOM      9  N   UNL     1       3.508   5.047  17.393  0.00  0.00    +0.000 N 
ATOM     10  C   UNL     1       4.687   5.200  16.690  0.00  0.00    +0.000 A 
ATOM     11  N   UNL     1       5.111   4.522  15.611  0.00  0.00    +0.000 NA
ENDROOT
BRANCH   1  13
ATOM     12  C   UNL     1       7.515   5.705  12.160  0.00  0.00    +0.000 C 
ATOM     13  C   UNL     1       7.992   4.935  13.385  0.00  0.00    +0.000 C 
ENDBRANCH   1  13
BRANCH   1  14
ATOM     14  C   UNL     1       6.009   3.346  13.338  0.00  0.00    +0.000 C 
ATOM     15  C   UNL     1       6.538   2.968  11.958  0.00  0.00    +0.000 C 
ENDBRANCH   1  14
BRANCH   8  16
ATOM     16  S   UNL     1       2.303   6.067  19.654  0.00  0.00    +0.000 S 
BRANCH  16  17
ATOM     17  C   UNL     1       2.439   7.828  20.100  0.00  0.00    +0.000 C 
BRANCH  17  18
ATOM     18  C   UNL     1       1.517   8.684  19.241  0.00  0.00    +0.000 C 
ATOM     19  O   UNL     1       1.576   8.670  18.013  0.00  0.00    +0.000 OA
ATOM     20  N   UNL     1       0.566   9.411  19.931  0.00  0.00    +0.000 N 
ATOM     21  H   UNL     1       0.623   9.442  20.943  0.00  0.00    +0.000 HD
BRANCH  20  22
ATOM     22  C   UNL     1      -0.426  10.232  19.256  0.00  0.00    +0.000 C 
BRANCH  22  23
ATOM     23  C   UNL     1      -0.142  11.728  19.391  0.00  0.00    +0.000 C 
BRANCH  23  24
ATOM     24  C   UNL     1      -1.275  12.561  18.786  0.00  0.00    +0.000 C 
BRANCH  24  25
ATOM     25  N   UNL     1      -1.335  12.386  17.338  0.00  0.00    +0.000 NA
ATOM     26  H   UNL     1      -0.399  12.433  16.940  0.00  0.00    +0.000 HD
ATOM     27  H   UNL     1      -1.862  13.155  16.924  0.00  0.00    +0.000 HD
ENDBRANCH  24  25
ENDBRANCH  23  24
ENDBRANCH  22  23
ENDBRANCH  20  22
ENDBRANCH  17  18
ENDBRANCH  16  17
ENDBRANCH   8  16
BRANCH   9  28
ATOM     28  C   UNL     1       2.501   4.049  17.089  0.00  0.00    +0.000 C 
BRANCH  28  29
ATOM     29  C   UNL     1       2.718   2.659  17.683  0.00  0.00    +0.000 C 
BRANCH  29  30
ATOM     30  N   UNL     1       2.533   2.620  19.113  0.00  0.00    +0.000 N 
ATOM     31  C   UNL     1       3.484   2.601  20.082  0.00  0.00    +0.000 A 
ATOM     32  N   UNL     1       2.905   2.517  21.257  0.00  0.00    +0.000 NA
ATOM     33  C   UNL     1       1.575   2.503  20.945  0.00  0.00    +0.000 A 
ATOM     34  N   UNL     1       1.298   2.605  19.643  0.00  0.00    +0.000 NA
ENDBRANCH  29  30
ENDBRANCH  28  29
ENDBRANCH   9  28
TORSDOF 12
ENDMDL
