MODEL 1
REMARK VINA RESULT:      -8.8      0.000      0.000
REMARK  Name = 
REMARK  7 active torsions:
REMARK  status: ('A' for Active; 'I' for Inactive)
REMARK    1  A    between atoms: C_2  and  O_3
REMARK    2  A    between atoms: C_2  and  C_4
REMARK    3  A    between atoms: C_9  and  N_10
REMARK    4  A    between atoms: N_10  and  C_11
REMARK    5  A    between atoms: C_14  and  C_15
REMARK    6  A    between atoms: C_15  and  C_16
REMARK    7  A    between atoms: C_16  and  C_17
REMARK                            x       y       z     vdW  Elec       q    Type
REMARK                         _______ _______ _______ _____ _____    ______ ____
ROOT
ATOM      1  C   UNL     1       2.288   7.336  19.826  0.00  0.00    +0.000 A 
ATOM      2  C   UNL     1       2.315   7.763  18.497  0.00  0.00    +0.000 A 
ATOM      3  C   UNL     1       1.638   8.922  18.103  0.00  0.00    +0.000 A 
ATOM      4  C   UNL     1       0.878   9.658  19.020  0.00  0.00    +0.000 A 
ATOM      5  C   UNL     1       0.856   9.236  20.352  0.00  0.00    +0.000 A 
ATOM      6  C   UNL     1       1.520   8.067  20.739  0.00  0.00    +0.000 A 
ENDROOT
BRANCH   1   7
ATOM      7  N   UNL     1       2.919   6.105  20.153  0.00  0.00    +0.000 N 
ATOM      8  H   UNL     1       3.915   6.221  19.926  0.00  0.00    +0.000 HD
BRANCH   7  14
ATOM      9  C   UNL     1       3.346   3.906  19.096  0.00  0.00    +0.000 A 
ATOM     10  C   UNL     1       2.895   2.623  18.732  0.00  0.00    +0.000 A 
ATOM     11  C   UNL     1       1.622   2.191  19.096  0.00  0.00    +0.000 A 
ATOM     12  C   UNL     1       0.815   3.013  19.870  0.00  0.00    +0.000 A 
ATOM     13  C   UNL     1       1.269   4.278  20.250  0.00  0.00    +0.000 A 
ATOM     14  C   UNL     1       2.495   4.791  19.794  0.00  0.00    +0.000 A 
BRANCH   9  16
ATOM     15  O   UNL     1       5.038   5.268  18.112  0.00  0.00    +0.000 OA
ATOM     16  C   UNL     1       4.740   4.244  18.706  0.00  0.00    +0.000 C 
BRANCH  16  17
ATOM     17  O   UNL     1       5.644   3.291  19.026  0.00  0.00    +0.000 OA
ATOM     18  H   UNL     1       5.236   2.420  19.214  0.00  0.00    +0.000 HD
ENDBRANCH  16  17
ENDBRANCH   9  16
ENDBRANCH   7  14
ENDBRANCH   1   7
BRANCH   4  19
ATOM     19  C   UNL     1       0.085  10.884  18.616  0.00  0.00    +0.000 C 
BRANCH  19  20
ATOM     20  C   UNL     1      -1.349  10.880  19.161  0.00  0.00    +0.000 C 
BRANCH  20  21
ATOM     21  C   UNL     1      -2.398  10.947  18.079  0.00  0.00    +0.000 A 
ATOM     22  C   UNL     1      -3.637  11.551  18.336  0.00  0.00    +0.000 A 
ATOM     23  C   UNL     1      -4.594  11.643  17.325  0.00  0.00    +0.000 A 
ATOM     24 CL   UNL     1      -6.096  12.420  17.643  0.00  0.00    +0.000 Cl
ATOM     25  C   UNL     1      -4.335  11.130  16.057  0.00  0.00    +0.000 A 
ATOM     26  C   UNL     1      -3.112  10.513  15.808  0.00  0.00    +0.000 A 
ATOM     27 CL   UNL     1      -2.779   9.880  14.243  0.00  0.00    +0.000 Cl
ATOM     28  C   UNL     1      -2.147  10.414  16.811  0.00  0.00    +0.000 A 
ENDBRANCH  20  21
ENDBRANCH  19  20
ENDBRANCH   4  19
TORSDOF 7
ENDMDL
MODEL 2
REMARK VINA RESULT:      -8.8      0.273      1.787
REMARK  Name = 
REMARK  7 active torsions:
REMARK  status: ('A' for Active; 'I' for Inactive)
REMARK    1  A    between atoms: C_2  and  O_3
REMARK    2  A    between atoms: C_2  and  C_4
REMARK    3  A    between atoms: C_9  and  N_10
REMARK    4  A    between atoms: N_10  and  C_11
REMARK    5  A    between atoms: C_14  and  C_15
REMARK    6  A    between atoms: C_15  and  C_16
REMARK    7  A    between atoms: C_16  and  C_17
REMARK                            x       y       z     vdW  Elec       q    Type
REMARK                         _______ _______ _______ _____ _____    ______ ____
ROOT
ATOM      1  C   UNL     1       2.180   7.277  20.016  0.00  0.00    +0.000 A 
ATOM      2  C   UNL     1       2.296   7.669  18.681  0.00  0.00    +0.000 A 
ATOM      3  C   UNL     1       1.694   8.845  18.224  0.00  0.00    +0.000 A 
ATOM      4  C   UNL     1       0.919   9.637  19.082  0.00  0.00    +0.000 A 
ATOM      5  C   UNL     1       0.809   9.250  20.421  0.00  0.00    +0.000 A 
ATOM      6  C   UNL     1       1.398   8.064  20.870  0.00  0.00    +0.000 A 
ENDROOT
BRANCH   1   7
ATOM      7  N   UNL     1       2.738   6.029  20.405  0.00  0.00    +0.000 N 
ATOM      8  H   UNL     1       3.759   6.154  20.402  0.00  0.00    +0.000 HD
BRANCH   7  14
ATOM      9  C   UNL     1       3.378   3.931  19.253  0.00  0.00    +0.000 A 
ATOM     10  C   UNL     1       3.024   2.670  18.737  0.00  0.00    +0.000 A 
ATOM     11  C   UNL     1       1.731   2.179  18.893  0.00  0.00    +0.000 A 
ATOM     12  C   UNL     1       0.799   2.917  19.611  0.00  0.00    +0.000 A 
ATOM     13  C   UNL     1       1.155   4.159  20.142  0.00  0.00    +0.000 A 
ATOM     14  C   UNL     1       2.412   4.737  19.895  0.00  0.00    +0.000 A 
BRANCH   9  16
ATOM     15  O   UNL     1       5.151   5.490  18.915  0.00  0.00    +0.000 OA
ATOM     16  C   UNL     1       4.798   4.334  19.081  0.00  0.00    +0.000 C 
BRANCH  16  17
ATOM     17  O   UNL     1       5.664   3.295  19.077  0.00  0.00    +0.000 OA
ATOM     18  H   UNL     1       5.233   2.433  18.896  0.00  0.00    +0.000 HD
ENDBRANCH  16  17
ENDBRANCH   9  16
ENDBRANCH   7  14
ENDBRANCH   1   7
BRANCH   4  19
ATOM     19  C   UNL     1       0.205  10.885  18.608  0.00  0.00    +0.000 C 
BRANCH  19  20
ATOM     20  C   UNL     1      -1.189  11.052  19.225  0.00  0.00    +0.000 C 
BRANCH  20  21
ATOM     21  C   UNL     1      -2.294  11.107  18.199  0.00  0.00    +0.000 A 
ATOM     22  C   UNL     1      -2.076  10.615  16.904  0.00  0.00    +0.000 A 
ATOM     23  C   UNL     1      -3.108  10.634  15.966  0.00  0.00    +0.000 A 
ATOM     24 CL   UNL     1      -2.840   9.993  14.392  0.00  0.00    +0.000 Cl
ATOM     25  C   UNL     1      -4.358  11.149  16.299  0.00  0.00    +0.000 A 
ATOM     26  C   UNL     1      -4.567  11.656  17.578  0.00  0.00    +0.000 A 
ATOM     27 CL   UNL     1      -6.109  12.292  18.003  0.00  0.00    +0.000 Cl
ATOM     28  C   UNL     1      -3.542  11.643  18.526  0.00  0.00    +0.000 A 
ENDBRANCH  20  21
ENDBRANCH  19  20
ENDBRANCH   4  19
TORSDOF 7
ENDMDL
MODEL 3
REMARK VINA RESULT:      -8.7      0.537      1.093
REMARK  Name = 
REMARK  7 active torsions:
REMARK  status: ('A' for Active; 'I' for Inactive)
REMARK    1  A    between atoms: C_2  and  O_3
REMARK    2  A    between atoms: C_2  and  C_4
REMARK    3  A    between atoms: C_9  and  N_10
REMARK    4  A    between atoms: N_10  and  C_11
REMARK    5  A    between atoms: C_14  and  C_15
REMARK    6  A    between atoms: C_15  and  C_16
REMARK    7  A    between atoms: C_16  and  C_17
REMARK                            x       y       z     vdW  Elec       q    Type
REMARK                         _______ _______ _______ _____ _____    ______ ____
ROOT
ATOM      1  C   UNL     1       2.330   7.182  19.595  0.00  0.00    +0.000 A 
ATOM      2  C   UNL     1       1.630   7.879  20.582  0.00  0.00    +0.000 A 
ATOM      3  C   UNL     1       0.963   9.070  20.280  0.00  0.00    +0.000 A 
ATOM      4  C   UNL     1       1.019   9.621  18.993  0.00  0.00    +0.000 A 
ATOM      5  C   UNL     1       1.714   8.920  18.003  0.00  0.00    +0.000 A 
ATOM      6  C   UNL     1       2.393   7.737  18.312  0.00  0.00    +0.000 A 
ENDROOT
BRANCH   1   7
ATOM      7  N   UNL     1       3.061   6.024  19.976  0.00  0.00    +0.000 N 
ATOM      8  H   UNL     1       4.014   6.149  19.612  0.00  0.00    +0.000 HD
BRANCH   7  14
ATOM      9  C   UNL     1       3.528   3.701  19.250  0.00  0.00    +0.000 A 
ATOM     10  C   UNL     1       3.106   2.369  19.091  0.00  0.00    +0.000 A 
ATOM     11  C   UNL     1       1.851   1.965  19.542  0.00  0.00    +0.000 A 
ATOM     12  C   UNL     1       1.035   2.874  20.201  0.00  0.00    +0.000 A 
ATOM     13  C   UNL     1       1.461   4.193  20.379  0.00  0.00    +0.000 A 
ATOM     14  C   UNL     1       2.666   4.661  19.826  0.00  0.00    +0.000 A 
BRANCH   9  16
ATOM     15  O   UNL     1       5.715   4.629  19.458  0.00  0.00    +0.000 OA
ATOM     16  C   UNL     1       4.906   4.011  18.786  0.00  0.00    +0.000 C 
BRANCH  16  17
ATOM     17  O   UNL     1       5.167   3.586  17.529  0.00  0.00    +0.000 OA
ATOM     18  H   UNL     1       5.040   4.282  16.851  0.00  0.00    +0.000 HD
ENDBRANCH  16  17
ENDBRANCH   9  16
ENDBRANCH   7  14
ENDBRANCH   1   7
BRANCH   4  19
ATOM     19  C   UNL     1       0.359  10.939  18.646  0.00  0.00    +0.000 C 
BRANCH  19  20
ATOM     20  C   UNL     1      -1.019  11.113  19.299  0.00  0.00    +0.000 C 
BRANCH  20  21
ATOM     21  C   UNL     1      -2.154  11.106  18.306  0.00  0.00    +0.000 A 
ATOM     22  C   UNL     1      -3.401  11.640  18.660  0.00  0.00    +0.000 A 
ATOM     23  C   UNL     1      -4.442  11.664  17.730  0.00  0.00    +0.000 A 
ATOM     24 CL   UNL     1      -5.956  12.356  18.164  0.00  0.00    +0.000 Cl
ATOM     25  C   UNL     1      -4.257  11.152  16.448  0.00  0.00    +0.000 A 
ATOM     26  C   UNL     1      -3.024  10.605  16.104  0.00  0.00    +0.000 A 
ATOM     27 CL   UNL     1      -2.783   9.973  14.522  0.00  0.00    +0.000 Cl
ATOM     28  C   UNL     1      -1.977  10.574  17.026  0.00  0.00    +0.000 A 
ENDBRANCH  20  21
ENDBRANCH  19  20
ENDBRANCH   4  19
TORSDOF 7
ENDMDL
MODEL 4
REMARK VINA RESULT:      -8.6      6.617      8.873
REMARK  Name = 
REMARK  7 active torsions:
REMARK  status: ('A' for Active; 'I' for Inactive)
REMARK    1  A    between atoms: C_2  and  O_3
REMARK    2  A    between atoms: C_2  and  C_4
REMARK    3  A    between atoms: C_9  and  N_10
REMARK    4  A    between atoms: N_10  and  C_11
REMARK    5  A    between atoms: C_14  and  C_15
REMARK    6  A    between atoms: C_15  and  C_16
REMARK    7  A    between atoms: C_16  and  C_17
REMARK                            x       y       z     vdW  Elec       q    Type
REMARK                         _______ _______ _______ _____ _____    ______ ____
ROOT
ATOM      1  C   UNL     1       5.352   5.038  18.031  0.00  0.00    +0.000 A 
ATOM      2  C   UNL     1       5.449   6.128  17.163  0.00  0.00    +0.000 A 
ATOM      3  C   UNL     1       6.498   7.046  17.281  0.00  0.00    +0.000 A 
ATOM      4  C   UNL     1       7.450   6.924  18.301  0.00  0.00    +0.000 A 
ATOM      5  C   UNL     1       7.357   5.830  19.166  0.00  0.00    +0.000 A 
ATOM      6  C   UNL     1       6.298   4.923  19.056  0.00  0.00    +0.000 A 
ENDROOT
BRANCH   1   7
ATOM      7  N   UNL     1       4.219   4.187  17.921  0.00  0.00    +0.000 N 
ATOM      8  H   UNL     1       3.776   4.408  17.021  0.00  0.00    +0.000 HD
BRANCH   7  14
ATOM      9  C   UNL     1       3.249   2.814  19.741  0.00  0.00    +0.000 A 
ATOM     10  C   UNL     1       2.230   2.592  20.687  0.00  0.00    +0.000 A 
ATOM     11  C   UNL     1       1.199   3.514  20.845  0.00  0.00    +0.000 A 
ATOM     12  C   UNL     1       1.206   4.686  20.101  0.00  0.00    +0.000 A 
ATOM     13  C   UNL     1       2.228   4.918  19.177  0.00  0.00    +0.000 A 
ATOM     14  C   UNL     1       3.212   3.952  18.905  0.00  0.00    +0.000 A 
BRANCH   9  16
ATOM     15  O   UNL     1       5.220   1.727  20.527  0.00  0.00    +0.000 OA
ATOM     16  C   UNL     1       4.331   1.796  19.695  0.00  0.00    +0.000 C 
BRANCH  16  17
ATOM     17  O   UNL     1       4.269   0.981  18.618  0.00  0.00    +0.000 OA
ATOM     18  H   UNL     1       3.458   0.430  18.597  0.00  0.00    +0.000 HD
ENDBRANCH  16  17
ENDBRANCH   9  16
ENDBRANCH   7  14
ENDBRANCH   1   7
BRANCH   4  19
ATOM     19  C   UNL     1       8.564   7.932  18.495  0.00  0.00    +0.000 C 
BRANCH  19  20
ATOM     20  C   UNL     1       8.224   9.320  17.938  0.00  0.00    +0.000 C 
BRANCH  20  21
ATOM     21  C   UNL     1       9.088  10.418  18.505  0.00  0.00    +0.000 A 
ATOM     22  C   UNL     1       8.954  10.796  19.849  0.00  0.00    +0.000 A 
ATOM     23  C   UNL     1       9.777  11.788  20.382  0.00  0.00    +0.000 A 
ATOM     24 CL   UNL     1       9.628  12.216  22.042  0.00  0.00    +0.000 Cl
ATOM     25  C   UNL     1      10.731  12.420  19.588  0.00  0.00    +0.000 A 
ATOM     26  C   UNL     1      10.849  12.058  18.249  0.00  0.00    +0.000 A 
ATOM     27 CL   UNL     1      12.027  12.827  17.258  0.00  0.00    +0.000 Cl
ATOM     28  C   UNL     1      10.031  11.067  17.703  0.00  0.00    +0.000 A 
ENDBRANCH  20  21
ENDBRANCH  19  20
ENDBRANCH   4  19
TORSDOF 7
ENDMDL
MODEL 5
REMARK VINA RESULT:      -8.5      6.590      8.990
REMARK  Name = 
REMARK  7 active torsions:
REMARK  status: ('A' for Active; 'I' for Inactive)
REMARK    1  A    between atoms: C_2  and  O_3
REMARK    2  A    between atoms: C_2  and  C_4
REMARK    3  A    between atoms: C_9  and  N_10
REMARK    4  A    between atoms: N_10  and  C_11
REMARK    5  A    between atoms: C_14  and  C_15
REMARK    6  A    between atoms: C_15  and  C_16
REMARK    7  A    between atoms: C_16  and  C_17
REMARK                            x       y       z     vdW  Elec       q    Type
REMARK                         _______ _______ _______ _____ _____    ______ ____
ROOT
ATOM      1  C   UNL     1       5.300   5.110  17.960  0.00  0.00    +0.000 A 
ATOM      2  C   UNL     1       5.244   6.352  17.324  0.00  0.00    +0.000 A 
ATOM      3  C   UNL     1       6.291   7.270  17.452  0.00  0.00    +0.000 A 
ATOM      4  C   UNL     1       7.401   6.988  18.260  0.00  0.00    +0.000 A 
ATOM      5  C   UNL     1       7.460   5.742  18.891  0.00  0.00    +0.000 A 
ATOM      6  C   UNL     1       6.403   4.834  18.774  0.00  0.00    +0.000 A 
ENDROOT
BRANCH   1   7
ATOM      7  N   UNL     1       4.170   4.253  17.866  0.00  0.00    +0.000 N 
ATOM      8  H   UNL     1       3.719   4.464  16.967  0.00  0.00    +0.000 HD
BRANCH   7  14
ATOM      9  C   UNL     1       3.200   2.872  19.680  0.00  0.00    +0.000 A 
ATOM     10  C   UNL     1       2.190   2.654  20.636  0.00  0.00    +0.000 A 
ATOM     11  C   UNL     1       1.176   3.591  20.819  0.00  0.00    +0.000 A 
ATOM     12  C   UNL     1       1.194   4.773  20.091  0.00  0.00    +0.000 A 
ATOM     13  C   UNL     1       2.208   5.000  19.157  0.00  0.00    +0.000 A 
ATOM     14  C   UNL     1       3.172   4.021  18.859  0.00  0.00    +0.000 A 
BRANCH   9  16
ATOM     15  O   UNL     1       5.128   1.703  20.456  0.00  0.00    +0.000 OA
ATOM     16  C   UNL     1       4.264   1.837  19.605  0.00  0.00    +0.000 C 
BRANCH  16  17
ATOM     17  O   UNL     1       4.216   1.083  18.483  0.00  0.00    +0.000 OA
ATOM     18  H   UNL     1       3.302   0.901  18.179  0.00  0.00    +0.000 HD
ENDBRANCH  16  17
ENDBRANCH   9  16
ENDBRANCH   7  14
ENDBRANCH   1   7
BRANCH   4  19
ATOM     19  C   UNL     1       8.524   7.982  18.469  0.00  0.00    +0.000 C 
BRANCH  19  20
ATOM     20  C   UNL     1       8.228   9.362  17.870  0.00  0.00    +0.000 C 
BRANCH  20  21
ATOM     21  C   UNL     1       9.110  10.454  18.422  0.00  0.00    +0.000 A 
ATOM     22  C   UNL     1       9.992  11.141  17.576  0.00  0.00    +0.000 A 
ATOM     23  C   UNL     1      10.783  12.175  18.080  0.00  0.00    +0.000 A 
ATOM     24 CL   UNL     1      11.834  13.034  17.023  0.00  0.00    +0.000 Cl
ATOM     25  C   UNL     1      10.712  12.528  19.425  0.00  0.00    +0.000 A 
ATOM     26  C   UNL     1       9.850  11.832  20.267  0.00  0.00    +0.000 A 
ATOM     27 CL   UNL     1       9.751  12.263  21.931  0.00  0.00    +0.000 Cl
ATOM     28  C   UNL     1       9.055  10.797  19.776  0.00  0.00    +0.000 A 
ENDBRANCH  20  21
ENDBRANCH  19  20
ENDBRANCH   4  19
TORSDOF 7
ENDMDL
MODEL 6
REMARK VINA RESULT:      -8.5      0.574      2.091
REMARK  Name = 
REMARK  7 active torsions:
REMARK  status: ('A' for Active; 'I' for Inactive)
REMARK    1  A    between atoms: C_2  and  O_3
REMARK    2  A    between atoms: C_2  and  C_4
REMARK    3  A    between atoms: C_9  and  N_10
REMARK    4  A    between atoms: N_10  and  C_11
REMARK    5  A    between atoms: C_14  and  C_15
REMARK    6  A    between atoms: C_15  and  C_16
REMARK    7  A    between atoms: C_16  and  C_17
REMARK                            x       y       z     vdW  Elec       q    Type
REMARK                         _______ _______ _______ _____ _____    ______ ____
ROOT
ATOM      1  C   UNL     1       2.329   7.363  19.307  0.00  0.00    +0.000 A 
ATOM      2  C   UNL     1       1.672   7.945  20.393  0.00  0.00    +0.000 A 
ATOM      3  C   UNL     1       0.950   9.133  20.240  0.00  0.00    +0.000 A 
ATOM      4  C   UNL     1       0.905   9.794  19.006  0.00  0.00    +0.000 A 
ATOM      5  C   UNL     1       1.557   9.208  17.917  0.00  0.00    +0.000 A 
ATOM      6  C   UNL     1       2.292   8.029  18.077  0.00  0.00    +0.000 A 
ENDROOT
BRANCH   1   7
ATOM      7  N   UNL     1       3.120   6.204  19.538  0.00  0.00    +0.000 N 
ATOM      8  H   UNL     1       3.923   6.268  18.899  0.00  0.00    +0.000 HD
BRANCH   7  14
ATOM      9  C   UNL     1       3.497   3.778  19.203  0.00  0.00    +0.000 A 
ATOM     10  C   UNL     1       3.024   2.454  19.263  0.00  0.00    +0.000 A 
ATOM     11  C   UNL     1       1.757   2.178  19.771  0.00  0.00    +0.000 A 
ATOM     12  C   UNL     1       0.978   3.212  20.270  0.00  0.00    +0.000 A 
ATOM     13  C   UNL     1       1.454   4.525  20.231  0.00  0.00    +0.000 A 
ATOM     14  C   UNL     1       2.674   4.851  19.612  0.00  0.00    +0.000 A 
BRANCH   9  16
ATOM     15  O   UNL     1       5.777   4.460  19.357  0.00  0.00    +0.000 OA
ATOM     16  C   UNL     1       4.883   3.956  18.697  0.00  0.00    +0.000 C 
BRANCH  16  17
ATOM     17  O   UNL     1       5.055   3.549  17.418  0.00  0.00    +0.000 OA
ATOM     18  H   UNL     1       5.565   4.186  16.876  0.00  0.00    +0.000 HD
ENDBRANCH  16  17
ENDBRANCH   9  16
ENDBRANCH   7  14
ENDBRANCH   1   7
BRANCH   4  19
ATOM     19  C   UNL     1       0.183  11.112  18.819  0.00  0.00    +0.000 C 
BRANCH  19  20
ATOM     20  C   UNL     1      -1.232  11.113  19.412  0.00  0.00    +0.000 C 
BRANCH  20  21
ATOM     21  C   UNL     1      -2.317  11.177  18.366  0.00  0.00    +0.000 A 
ATOM     22  C   UNL     1      -2.086  10.668  17.080  0.00  0.00    +0.000 A 
ATOM     23  C   UNL     1      -3.101  10.696  16.123  0.00  0.00    +0.000 A 
ATOM     24 CL   UNL     1      -2.816  10.035  14.561  0.00  0.00    +0.000 Cl
ATOM     25  C   UNL     1      -4.347  11.237  16.429  0.00  0.00    +0.000 A 
ATOM     26  C   UNL     1      -4.569  11.759  17.700  0.00  0.00    +0.000 A 
ATOM     27 CL   UNL     1      -6.107  12.426  18.092  0.00  0.00    +0.000 Cl
ATOM     28  C   UNL     1      -3.562  11.737  18.666  0.00  0.00    +0.000 A 
ENDBRANCH  20  21
ENDBRANCH  19  20
ENDBRANCH   4  19
TORSDOF 7
ENDMDL
MODEL 7
REMARK VINA RESULT:      -8.5      6.971      8.878
REMARK  Name = 
REMARK  7 active torsions:
REMARK  status: ('A' for Active; 'I' for Inactive)
REMARK    1  A    between atoms: C_2  and  O_3
REMARK    2  A    between atoms: C_2  and  C_4
REMARK    3  A    between atoms: C_9  and  N_10
REMARK    4  A    between atoms: N_10  and  C_11
REMARK    5  A    between atoms: C_14  and  C_15
REMARK    6  A    between atoms: C_15  and  C_16
REMARK    7  A    between atoms: C_16  and  C_17
REMARK                            x       y       z     vdW  Elec       q    Type
REMARK                         _______ _______ _______ _____ _____    ______ ____
ROOT
ATOM      1  C   UNL     1       5.893   5.008  18.148  0.00  0.00    +0.000 A 
ATOM      2  C   UNL     1       7.067   5.175  18.885  0.00  0.00    +0.000 A 
ATOM      3  C   UNL     1       7.801   6.363  18.806  0.00  0.00    +0.000 A 
ATOM      4  C   UNL     1       7.403   7.398  17.950  0.00  0.00    +0.000 A 
ATOM      5  C   UNL     1       6.224   7.235  17.217  0.00  0.00    +0.000 A 
ATOM      6  C   UNL     1       5.503   6.039  17.286  0.00  0.00    +0.000 A 
ENDROOT
BRANCH   1   7
ATOM      7  N   UNL     1       5.236   3.749  18.200  0.00  0.00    +0.000 N 
ATOM      8  H   UNL     1       5.621   3.189  17.429  0.00  0.00    +0.000 HD
BRANCH   7  14
ATOM      9  C   UNL     1       3.297   2.785  19.404  0.00  0.00    +0.000 A 
ATOM     10  C   UNL     1       1.913   2.538  19.481  0.00  0.00    +0.000 A 
ATOM     11  C   UNL     1       1.050   3.041  18.511  0.00  0.00    +0.000 A 
ATOM     12  C   UNL     1       1.553   3.837  17.492  0.00  0.00    +0.000 A 
ATOM     13  C   UNL     1       2.923   4.101  17.425  0.00  0.00    +0.000 A 
ATOM     14  C   UNL     1       3.834   3.507  18.315  0.00  0.00    +0.000 A 
BRANCH   9  16
ATOM     15  O   UNL     1       5.250   1.816  20.370  0.00  0.00    +0.000 OA
ATOM     16  C   UNL     1       4.120   2.251  20.520  0.00  0.00    +0.000 C 
BRANCH  16  17
ATOM     17  O   UNL     1       3.485   2.248  21.715  0.00  0.00    +0.000 OA
ATOM     18  H   UNL     1       2.510   2.196  21.633  0.00  0.00    +0.000 HD
ENDBRANCH  16  17
ENDBRANCH   9  16
ENDBRANCH   7  14
ENDBRANCH   1   7
BRANCH   4  19
ATOM     19  C   UNL     1       8.205   8.674  17.794  0.00  0.00    +0.000 C 
BRANCH  19  20
ATOM     20  C   UNL     1       9.020   9.029  19.044  0.00  0.00    +0.000 C 
BRANCH  20  21
ATOM     21  C   UNL     1       9.441  10.477  19.090  0.00  0.00    +0.000 A 
ATOM     22  C   UNL     1       9.316  11.208  20.279  0.00  0.00    +0.000 A 
ATOM     23  C   UNL     1       9.738  12.538  20.331  0.00  0.00    +0.000 A 
ATOM     24 CL   UNL     1       9.614  13.413  21.807  0.00  0.00    +0.000 Cl
ATOM     25  C   UNL     1      10.276  13.154  19.204  0.00  0.00    +0.000 A 
ATOM     26  C   UNL     1      10.381  12.432  18.018  0.00  0.00    +0.000 A 
ATOM     27 CL   UNL     1      11.049  13.181  16.620  0.00  0.00    +0.000 Cl
ATOM     28  C   UNL     1       9.963  11.102  17.954  0.00  0.00    +0.000 A 
ENDBRANCH  20  21
ENDBRANCH  19  20
ENDBRANCH   4  19
TORSDOF 7
ENDMDL
MODEL 8
REMARK VINA RESULT:      -8.5      6.570      9.083
REMARK  Name = 
REMARK  7 active torsions:
REMARK  status: ('A' for Active; 'I' for Inactive)
REMARK    1  A    between atoms: C_2  and  O_3
REMARK    2  A    between atoms: C_2  and  C_4
REMARK    3  A    between atoms: C_9  and  N_10
REMARK    4  A    between atoms: N_10  and  C_11
REMARK    5  A    between atoms: C_14  and  C_15
REMARK    6  A    between atoms: C_15  and  C_16
REMARK    7  A    between atoms: C_16  and  C_17
REMARK                            x       y       z     vdW  Elec       q    Type
REMARK                         _______ _______ _______ _____ _____    ______ ____
ROOT
ATOM      1  C   UNL     1       5.791   5.498  17.953  0.00  0.00    +0.000 A 
ATOM      2  C   UNL     1       5.480   6.580  17.127  0.00  0.00    +0.000 A 
ATOM      3  C   UNL     1       6.346   7.673  17.023  0.00  0.00    +0.000 A 
ATOM      4  C   UNL     1       7.524   7.734  17.779  0.00  0.00    +0.000 A 
ATOM      5  C   UNL     1       7.839   6.647  18.600  0.00  0.00    +0.000 A 
ATOM      6  C   UNL     1       6.963   5.563  18.715  0.00  0.00    +0.000 A 
ENDROOT
BRANCH   1   7
ATOM      7  N   UNL     1       4.835   4.455  18.088  0.00  0.00    +0.000 N 
ATOM      8  H   UNL     1       4.481   4.261  17.143  0.00  0.00    +0.000 HD
BRANCH   7  14
ATOM      9  C   UNL     1       3.371   3.149  19.601  0.00  0.00    +0.000 A 
ATOM     10  C   UNL     1       2.293   3.097  20.505  0.00  0.00    +0.000 A 
ATOM     11  C   UNL     1       1.628   4.261  20.881  0.00  0.00    +0.000 A 
ATOM     12  C   UNL     1       2.067   5.487  20.401  0.00  0.00    +0.000 A 
ATOM     13  C   UNL     1       3.150   5.543  19.520  0.00  0.00    +0.000 A 
ATOM     14  C   UNL     1       3.762   4.378  19.026  0.00  0.00    +0.000 A 
BRANCH   9  16
ATOM     15  O   UNL     1       3.601   1.029  18.535  0.00  0.00    +0.000 OA
ATOM     16  C   UNL     1       4.046   1.857  19.313  0.00  0.00    +0.000 C 
BRANCH  16  17
ATOM     17  O   UNL     1       5.177   1.660  20.027  0.00  0.00    +0.000 OA
ATOM     18  H   UNL     1       5.481   2.463  20.499  0.00  0.00    +0.000 HD
ENDBRANCH  16  17
ENDBRANCH   9  16
ENDBRANCH   7  14
ENDBRANCH   1   7
BRANCH   4  19
ATOM     19  C   UNL     1       8.454   8.927  17.735  0.00  0.00    +0.000 C 
BRANCH  19  20
ATOM     20  C   UNL     1       8.871   9.417  19.128  0.00  0.00    +0.000 C 
BRANCH  20  21
ATOM     21  C   UNL     1       9.500  10.788  19.114  0.00  0.00    +0.000 A 
ATOM     22  C   UNL     1      10.074  11.287  17.937  0.00  0.00    +0.000 A 
ATOM     23  C   UNL     1      10.625  12.569  17.915  0.00  0.00    +0.000 A 
ATOM     24 CL   UNL     1      11.293  13.184  16.454  0.00  0.00    +0.000 Cl
ATOM     25  C   UNL     1      10.620  13.361  19.061  0.00  0.00    +0.000 A 
ATOM     26  C   UNL     1      10.068  12.856  20.235  0.00  0.00    +0.000 A 
ATOM     27 CL   UNL     1      10.051  13.827  21.656  0.00  0.00    +0.000 Cl
ATOM     28  C   UNL     1       9.514  11.576  20.269  0.00  0.00    +0.000 A 
ENDBRANCH  20  21
ENDBRANCH  19  20
ENDBRANCH   4  19
TORSDOF 7
ENDMDL
MODEL 9
REMARK VINA RESULT:      -8.5      6.889      8.972
REMARK  Name = 
REMARK  7 active torsions:
REMARK  status: ('A' for Active; 'I' for Inactive)
REMARK    1  A    between atoms: C_2  and  O_3
REMARK    2  A    between atoms: C_2  and  C_4
REMARK    3  A    between atoms: C_9  and  N_10
REMARK    4  A    between atoms: N_10  and  C_11
REMARK    5  A    between atoms: C_14  and  C_15
REMARK    6  A    between atoms: C_15  and  C_16
REMARK    7  A    between atoms: C_16  and  C_17
REMARK                            x       y       z     vdW  Elec       q    Type
REMARK                         _______ _______ _______ _____ _____    ______ ____
ROOT
ATOM      1  C   UNL     1       5.802   5.031  18.096  0.00  0.00    +0.000 A 
ATOM      2  C   UNL     1       6.982   5.174  18.829  0.00  0.00    +0.000 A 
ATOM      3  C   UNL     1       7.729   6.355  18.760  0.00  0.00    +0.000 A 
ATOM      4  C   UNL     1       7.339   7.406  17.920  0.00  0.00    +0.000 A 
ATOM      5  C   UNL     1       6.154   7.265  17.191  0.00  0.00    +0.000 A 
ATOM      6  C   UNL     1       5.419   6.077  17.249  0.00  0.00    +0.000 A 
ENDROOT
BRANCH   1   7
ATOM      7  N   UNL     1       5.131   3.779  18.136  0.00  0.00    +0.000 N 
ATOM      8  H   UNL     1       5.477   3.238  17.333  0.00  0.00    +0.000 HD
BRANCH   7  14
ATOM      9  C   UNL     1       3.226   2.839  19.412  0.00  0.00    +0.000 A 
ATOM     10  C   UNL     1       1.844   2.605  19.538  0.00  0.00    +0.000 A 
ATOM     11  C   UNL     1       0.952   3.110  18.595  0.00  0.00    +0.000 A 
ATOM     12  C   UNL     1       1.427   3.895  17.554  0.00  0.00    +0.000 A 
ATOM     13  C   UNL     1       2.796   4.146  17.439  0.00  0.00    +0.000 A 
ATOM     14  C   UNL     1       3.732   3.549  18.300  0.00  0.00    +0.000 A 
BRANCH   9  16
ATOM     15  O   UNL     1       5.226   1.916  20.326  0.00  0.00    +0.000 OA
ATOM     16  C   UNL     1       4.083   2.305  20.502  0.00  0.00    +0.000 C 
BRANCH  16  17
ATOM     17  O   UNL     1       3.464   2.244  21.703  0.00  0.00    +0.000 OA
ATOM     18  H   UNL     1       2.633   2.763  21.736  0.00  0.00    +0.000 HD
ENDBRANCH  16  17
ENDBRANCH   9  16
ENDBRANCH   7  14
ENDBRANCH   1   7
BRANCH   4  19
ATOM     19  C   UNL     1       8.154   8.674  17.776  0.00  0.00    +0.000 C 
BRANCH  19  20
ATOM     20  C   UNL     1       9.005   8.986  19.013  0.00  0.00    +0.000 C 
BRANCH  20  21
ATOM     21  C   UNL     1       9.435  10.430  19.092  0.00  0.00    +0.000 A 
ATOM     22  C   UNL     1       9.980  11.065  17.967  0.00  0.00    +0.000 A 
ATOM     23  C   UNL     1      10.345  12.410  18.030  0.00  0.00    +0.000 A 
ATOM     24 CL   UNL     1      10.979  13.187  16.632  0.00  0.00    +0.000 Cl
ATOM     25  C   UNL     1      10.183  13.132  19.210  0.00  0.00    +0.000 A 
ATOM     26  C   UNL     1       9.660  12.496  20.332  0.00  0.00    +0.000 A 
ATOM     27 CL   UNL     1       9.450  13.379  21.794  0.00  0.00    +0.000 Cl
ATOM     28  C   UNL     1       9.291  11.151  20.281  0.00  0.00    +0.000 A 
ENDBRANCH  20  21
ENDBRANCH  19  20
ENDBRANCH   4  19
TORSDOF 7
ENDMDL
