MODEL 1
REMARK VINA RESULT:      -8.4      0.000      0.000
REMARK  Name = 
REMARK  10 active torsions:
REMARK  status: ('A' for Active; 'I' for Inactive)
REMARK    1  A    between atoms: C_1  and  C_2
REMARK    2  A    between atoms: C_2  and  C_3
REMARK    3  A    between atoms: C_3  and  C_4
REMARK    4  A    between atoms: C_4  and  C_5
REMARK    5  A    between atoms: C_5  and  N_6
REMARK    6  A    between atoms: C_5  and  C_25
REMARK    7  A    between atoms: N_6  and  S_7
REMARK    8  A    between atoms: S_7  and  C_10
REMARK    9  A    between atoms: C_14  and  C_15
REMARK   10  A    between atoms: N_27  and  O_28
REMARK                            x       y       z     vdW  Elec       q    Type
REMARK                         _______ _______ _______ _____ _____    ______ ____
ROOT
ATOM      1  S   UNL     1       3.404   3.299  17.341  0.00  0.00    +0.000 S 
ATOM      2  O   UNL     1       2.162   3.129  16.624  0.00  0.00    +0.000 OA
ATOM      3  O   UNL     1       4.323   2.209  17.560  0.00  0.00    +0.000 OA
ENDROOT
BRANCH   1   4
ATOM      4  C   UNL     1       3.022   3.965  18.943  0.00  0.00    +0.000 A 
ATOM      5  C   UNL     1       2.729   3.113  20.009  0.00  0.00    +0.000 A 
ATOM      6  C   UNL     1       2.223   3.656  21.191  0.00  0.00    +0.000 A 
ATOM      7  C   UNL     1       1.974   5.030  21.283  0.00  0.00    +0.000 A 
ATOM      8  C   UNL     1       2.249   5.893  20.210  0.00  0.00    +0.000 A 
ATOM      9  C   UNL     1       2.827   5.348  19.056  0.00  0.00    +0.000 A 
BRANCH   8  10
ATOM     10  C   UNL     1       1.812   7.288  20.246  0.00  0.00    +0.000 A 
ATOM     11  C   UNL     1       1.171   8.066  21.192  0.00  0.00    +0.000 A 
ATOM     12  C   UNL     1       0.871   9.308  20.577  0.00  0.00    +0.000 A 
ATOM     13  C   UNL     1       0.207  10.485  20.965  0.00  0.00    +0.000 A 
ATOM     14  C   UNL     1       0.074  11.522  20.031  0.00  0.00    +0.000 A 
ATOM     15  C   UNL     1       0.594  11.397  18.740  0.00  0.00    +0.000 A 
ATOM     16  C   UNL     1       1.264  10.236  18.338  0.00  0.00    +0.000 A 
ATOM     17  C   UNL     1       1.372   9.221  19.286  0.00  0.00    +0.000 A 
ATOM     18  O   UNL     1       1.961   8.007  19.090  0.00  0.00    +0.000 OA
ENDBRANCH   8  10
ENDBRANCH   1   4
BRANCH   1  19
ATOM     19  N   UNL     1       4.291   4.497  16.564  0.00  0.00    +0.000 NA
ATOM     20  H   UNL     1       4.305   5.327  17.164  0.00  0.00    +0.000 HD
BRANCH  19  21
ATOM     21  C   UNL     1       5.594   4.143  15.962  0.00  0.00    +0.000 C 
BRANCH  21  22
ATOM     22  C   UNL     1       6.766   4.769  16.727  0.00  0.00    +0.000 C 
ATOM     23  O   UNL     1       7.488   5.646  16.253  0.00  0.00    +0.000 OA
ATOM     24  N   UNL     1       6.986   4.230  17.973  0.00  0.00    +0.000 N 
ATOM     25  H   UNL     1       6.463   3.471  18.394  0.00  0.00    +0.000 HD
BRANCH  24  26
ATOM     26  O   UNL     1       8.077   4.739  18.708  0.00  0.00    +0.000 OA
ATOM     27  H   UNL     1       8.129   5.668  18.395  0.00  0.00    +0.000 HD
ENDBRANCH  24  26
ENDBRANCH  21  22
BRANCH  21  28
ATOM     28  C   UNL     1       5.589   4.690  14.523  0.00  0.00    +0.000 C 
BRANCH  28  29
ATOM     29  C   UNL     1       6.175   3.754  13.462  0.00  0.00    +0.000 C 
BRANCH  29  31
ATOM     30  C   UNL     1       5.667   2.223  11.535  0.00  0.00    +0.000 C 
ATOM     31  C   UNL     1       5.202   3.434  12.328  0.00  0.00    +0.000 C 
ENDBRANCH  29  31
ENDBRANCH  28  29
ENDBRANCH  21  28
ENDBRANCH  19  21
ENDBRANCH   1  19
TORSDOF 9
ENDMDL
MODEL 2
REMARK VINA RESULT:      -8.2      1.122      1.342
REMARK  Name = 
REMARK  10 active torsions:
REMARK  status: ('A' for Active; 'I' for Inactive)
REMARK    1  A    between atoms: C_1  and  C_2
REMARK    2  A    between atoms: C_2  and  C_3
REMARK    3  A    between atoms: C_3  and  C_4
REMARK    4  A    between atoms: C_4  and  C_5
REMARK    5  A    between atoms: C_5  and  N_6
REMARK    6  A    between atoms: C_5  and  C_25
REMARK    7  A    between atoms: N_6  and  S_7
REMARK    8  A    between atoms: S_7  and  C_10
REMARK    9  A    between atoms: C_14  and  C_15
REMARK   10  A    between atoms: N_27  and  O_28
REMARK                            x       y       z     vdW  Elec       q    Type
REMARK                         _______ _______ _______ _____ _____    ______ ____
ROOT
ATOM      1  S   UNL     1       4.497   3.317  18.223  0.00  0.00    +0.000 S 
ATOM      2  O   UNL     1       4.157   1.979  17.798  0.00  0.00    +0.000 OA
ATOM      3  O   UNL     1       5.759   3.629  18.849  0.00  0.00    +0.000 OA
ENDROOT
BRANCH   1   4
ATOM      4  C   UNL     1       3.231   3.873  19.337  0.00  0.00    +0.000 A 
ATOM      5  C   UNL     1       2.259   2.986  19.800  0.00  0.00    +0.000 A 
ATOM      6  C   UNL     1       1.157   3.488  20.493  0.00  0.00    +0.000 A 
ATOM      7  C   UNL     1       1.013   4.868  20.679  0.00  0.00    +0.000 A 
ATOM      8  C   UNL     1       1.977   5.770  20.201  0.00  0.00    +0.000 A 
ATOM      9  C   UNL     1       3.116   5.250  19.573  0.00  0.00    +0.000 A 
BRANCH   8  10
ATOM     10  C   UNL     1       1.727   7.211  20.232  0.00  0.00    +0.000 A 
ATOM     11  C   UNL     1       1.191   8.070  21.174  0.00  0.00    +0.000 A 
ATOM     12  C   UNL     1       1.059   9.338  20.555  0.00  0.00    +0.000 A 
ATOM     13  C   UNL     1       0.554  10.593  20.938  0.00  0.00    +0.000 A 
ATOM     14  C   UNL     1       0.562  11.636  20.001  0.00  0.00    +0.000 A 
ATOM     15  C   UNL     1       1.064  11.441  18.712  0.00  0.00    +0.000 A 
ATOM     16  C   UNL     1       1.577  10.200  18.315  0.00  0.00    +0.000 A 
ATOM     17  C   UNL     1       1.548   9.182  19.266  0.00  0.00    +0.000 A 
ATOM     18  O   UNL     1       1.972   7.901  19.075  0.00  0.00    +0.000 OA
ENDBRANCH   8  10
ENDBRANCH   1   4
BRANCH   1  19
ATOM     19  N   UNL     1       4.387   4.329  16.885  0.00  0.00    +0.000 NA
ATOM     20  H   UNL     1       3.884   5.176  17.164  0.00  0.00    +0.000 HD
BRANCH  19  21
ATOM     21  C   UNL     1       5.597   4.565  16.067  0.00  0.00    +0.000 C 
BRANCH  21  22
ATOM     22  C   UNL     1       6.031   6.034  16.101  0.00  0.00    +0.000 C 
ATOM     23  O   UNL     1       5.383   6.941  15.577  0.00  0.00    +0.000 OA
ATOM     24  N   UNL     1       7.240   6.257  16.718  0.00  0.00    +0.000 N 
ATOM     25  H   UNL     1       7.845   5.548  17.116  0.00  0.00    +0.000 HD
BRANCH  24  26
ATOM     26  O   UNL     1       7.711   7.586  16.743  0.00  0.00    +0.000 OA
ATOM     27  H   UNL     1       6.945   8.090  16.392  0.00  0.00    +0.000 HD
ENDBRANCH  24  26
ENDBRANCH  21  22
BRANCH  21  28
ATOM     28  C   UNL     1       5.242   4.183  14.618  0.00  0.00    +0.000 C 
BRANCH  28  29
ATOM     29  C   UNL     1       6.423   4.135  13.644  0.00  0.00    +0.000 C 
BRANCH  29  31
ATOM     30  C   UNL     1       4.760   3.461  11.885  0.00  0.00    +0.000 C 
ATOM     31  C   UNL     1       6.167   3.256  12.421  0.00  0.00    +0.000 C 
ENDBRANCH  29  31
ENDBRANCH  28  29
ENDBRANCH  21  28
ENDBRANCH  19  21
ENDBRANCH   1  19
TORSDOF 9
ENDMDL
MODEL 3
REMARK VINA RESULT:      -8.2      4.700      6.755
REMARK  Name = 
REMARK  10 active torsions:
REMARK  status: ('A' for Active; 'I' for Inactive)
REMARK    1  A    between atoms: C_1  and  C_2
REMARK    2  A    between atoms: C_2  and  C_3
REMARK    3  A    between atoms: C_3  and  C_4
REMARK    4  A    between atoms: C_4  and  C_5
REMARK    5  A    between atoms: C_5  and  N_6
REMARK    6  A    between atoms: C_5  and  C_25
REMARK    7  A    between atoms: N_6  and  S_7
REMARK    8  A    between atoms: S_7  and  C_10
REMARK    9  A    between atoms: C_14  and  C_15
REMARK   10  A    between atoms: N_27  and  O_28
REMARK                            x       y       z     vdW  Elec       q    Type
REMARK                         _______ _______ _______ _____ _____    ______ ____
ROOT
ATOM      1  S   UNL     1       4.812   6.499  16.604  0.00  0.00    +0.000 S 
ATOM      2  O   UNL     1       5.031   6.780  15.204  0.00  0.00    +0.000 OA
ATOM      3  O   UNL     1       3.864   7.240  17.400  0.00  0.00    +0.000 OA
ENDROOT
BRANCH   1   4
ATOM      4  C   UNL     1       6.376   6.627  17.436  0.00  0.00    +0.000 A 
ATOM      5  C   UNL     1       6.832   5.584  18.244  0.00  0.00    +0.000 A 
ATOM      6  C   UNL     1       7.949   5.793  19.053  0.00  0.00    +0.000 A 
ATOM      7  C   UNL     1       8.572   7.047  19.083  0.00  0.00    +0.000 A 
ATOM      8  C   UNL     1       8.110   8.107  18.287  0.00  0.00    +0.000 A 
ATOM      9  C   UNL     1       7.034   7.864  17.422  0.00  0.00    +0.000 A 
BRANCH   8  10
ATOM     10  C   UNL     1       8.643   9.457  18.463  0.00  0.00    +0.000 A 
ATOM     11  C   UNL     1       9.457  10.048  19.411  0.00  0.00    +0.000 A 
ATOM     12  C   UNL     1       9.488  11.437  19.127  0.00  0.00    +0.000 A 
ATOM     13  C   UNL     1      10.075  12.569  19.719  0.00  0.00    +0.000 A 
ATOM     14  C   UNL     1       9.838  13.827  19.147  0.00  0.00    +0.000 A 
ATOM     15  C   UNL     1       9.039  13.960  18.008  0.00  0.00    +0.000 A 
ATOM     16  C   UNL     1       8.452  12.844  17.401  0.00  0.00    +0.000 A 
ATOM     17  C   UNL     1       8.700  11.609  17.998  0.00  0.00    +0.000 A 
ATOM     18  O   UNL     1       8.205  10.410  17.582  0.00  0.00    +0.000 OA
ENDBRANCH   8  10
ENDBRANCH   1   4
BRANCH   1  19
ATOM     19  N   UNL     1       4.366   4.885  16.745  0.00  0.00    +0.000 NA
ATOM     20  H   UNL     1       5.153   4.305  16.439  0.00  0.00    +0.000 HD
BRANCH  19  21
ATOM     21  C   UNL     1       3.707   4.432  17.989  0.00  0.00    +0.000 C 
BRANCH  21  22
ATOM     22  C   UNL     1       4.097   2.995  18.352  0.00  0.00    +0.000 C 
ATOM     23  O   UNL     1       3.775   2.018  17.674  0.00  0.00    +0.000 OA
ATOM     24  N   UNL     1       4.792   2.873  19.532  0.00  0.00    +0.000 N 
ATOM     25  H   UNL     1       5.037   3.630  20.160  0.00  0.00    +0.000 HD
BRANCH  24  26
ATOM     26  O   UNL     1       5.143   1.568  19.938  0.00  0.00    +0.000 OA
ATOM     27  H   UNL     1       4.423   1.025  19.550  0.00  0.00    +0.000 HD
ENDBRANCH  24  26
ENDBRANCH  21  22
BRANCH  21  28
ATOM     28  C   UNL     1       2.189   4.490  17.742  0.00  0.00    +0.000 C 
BRANCH  28  29
ATOM     29  C   UNL     1       1.329   3.731  18.757  0.00  0.00    +0.000 C 
BRANCH  29  31
ATOM     30  C   UNL     1       1.406   3.361  21.241  0.00  0.00    +0.000 C 
ATOM     31  C   UNL     1       1.283   4.394  20.132  0.00  0.00    +0.000 C 
ENDBRANCH  29  31
ENDBRANCH  28  29
ENDBRANCH  21  28
ENDBRANCH  19  21
ENDBRANCH   1  19
TORSDOF 9
ENDMDL
MODEL 4
REMARK VINA RESULT:      -8.0      1.713      3.007
REMARK  Name = 
REMARK  10 active torsions:
REMARK  status: ('A' for Active; 'I' for Inactive)
REMARK    1  A    between atoms: C_1  and  C_2
REMARK    2  A    between atoms: C_2  and  C_3
REMARK    3  A    between atoms: C_3  and  C_4
REMARK    4  A    between atoms: C_4  and  C_5
REMARK    5  A    between atoms: C_5  and  N_6
REMARK    6  A    between atoms: C_5  and  C_25
REMARK    7  A    between atoms: N_6  and  S_7
REMARK    8  A    between atoms: S_7  and  C_10
REMARK    9  A    between atoms: C_14  and  C_15
REMARK   10  A    between atoms: N_27  and  O_28
REMARK                            x       y       z     vdW  Elec       q    Type
REMARK                         _______ _______ _______ _____ _____    ______ ____
ROOT
ATOM      1  S   UNL     1       3.573   2.929  17.554  0.00  0.00    +0.000 S 
ATOM      2  O   UNL     1       2.689   3.345  16.490  0.00  0.00    +0.000 OA
ATOM      3  O   UNL     1       3.728   1.544  17.930  0.00  0.00    +0.000 OA
ENDROOT
BRANCH   1   4
ATOM      4  C   UNL     1       3.103   3.802  19.027  0.00  0.00    +0.000 A 
ATOM      5  C   UNL     1       2.762   3.100  20.184  0.00  0.00    +0.000 A 
ATOM      6  C   UNL     1       2.191   3.792  21.252  0.00  0.00    +0.000 A 
ATOM      7  C   UNL     1       1.926   5.162  21.142  0.00  0.00    +0.000 A 
ATOM      8  C   UNL     1       2.250   5.873  19.976  0.00  0.00    +0.000 A 
ATOM      9  C   UNL     1       2.891   5.184  18.938  0.00  0.00    +0.000 A 
BRANCH   8  10
ATOM     10  C   UNL     1       1.800   7.254  19.796  0.00  0.00    +0.000 A 
ATOM     11  C   UNL     1       1.899   8.165  18.761  0.00  0.00    +0.000 A 
ATOM     12  C   UNL     1       1.409   9.403  19.248  0.00  0.00    +0.000 A 
ATOM     13  C   UNL     1       1.281  10.704  18.730  0.00  0.00    +0.000 A 
ATOM     14  C   UNL     1       0.765  11.711  19.559  0.00  0.00    +0.000 A 
ATOM     15  C   UNL     1       0.379  11.432  20.873  0.00  0.00    +0.000 A 
ATOM     16  C   UNL     1       0.493  10.142  21.403  0.00  0.00    +0.000 A 
ATOM     17  C   UNL     1       1.017   9.166  20.557  0.00  0.00    +0.000 A 
ATOM     18  O   UNL     1       1.233   7.861  20.884  0.00  0.00    +0.000 OA
ENDBRANCH   8  10
ENDBRANCH   1   4
BRANCH   1  19
ATOM     19  N   UNL     1       5.119   3.478  17.187  0.00  0.00    +0.000 NA
ATOM     20  H   UNL     1       5.666   2.688  16.832  0.00  0.00    +0.000 HD
BRANCH  19  21
ATOM     21  C   UNL     1       5.267   4.732  16.415  0.00  0.00    +0.000 C 
BRANCH  21  22
ATOM     22  C   UNL     1       6.196   4.554  15.210  0.00  0.00    +0.000 C 
ATOM     23  O   UNL     1       6.167   3.566  14.476  0.00  0.00    +0.000 OA
ATOM     24  N   UNL     1       7.112   5.566  15.042  0.00  0.00    +0.000 N 
ATOM     25  H   UNL     1       7.224   6.374  15.643  0.00  0.00    +0.000 HD
BRANCH  24  26
ATOM     26  O   UNL     1       8.022   5.436  13.972  0.00  0.00    +0.000 OA
ATOM     27  H   UNL     1       7.526   5.833  13.223  0.00  0.00    +0.000 HD
ENDBRANCH  24  26
ENDBRANCH  21  22
BRANCH  21  28
ATOM     28  C   UNL     1       5.877   5.777  17.366  0.00  0.00    +0.000 C 
BRANCH  28  29
ATOM     29  C   UNL     1       6.976   5.256  18.297  0.00  0.00    +0.000 C 
BRANCH  29  31
ATOM     30  C   UNL     1       7.877   7.569  17.907  0.00  0.00    +0.000 C 
ATOM     31  C   UNL     1       7.903   6.352  18.818  0.00  0.00    +0.000 C 
ENDBRANCH  29  31
ENDBRANCH  28  29
ENDBRANCH  21  28
ENDBRANCH  19  21
ENDBRANCH   1  19
TORSDOF 9
ENDMDL
MODEL 5
REMARK VINA RESULT:      -8.0      2.079      2.882
REMARK  Name = 
REMARK  10 active torsions:
REMARK  status: ('A' for Active; 'I' for Inactive)
REMARK    1  A    between atoms: C_1  and  C_2
REMARK    2  A    between atoms: C_2  and  C_3
REMARK    3  A    between atoms: C_3  and  C_4
REMARK    4  A    between atoms: C_4  and  C_5
REMARK    5  A    between atoms: C_5  and  N_6
REMARK    6  A    between atoms: C_5  and  C_25
REMARK    7  A    between atoms: N_6  and  S_7
REMARK    8  A    between atoms: S_7  and  C_10
REMARK    9  A    between atoms: C_14  and  C_15
REMARK   10  A    between atoms: N_27  and  O_28
REMARK                            x       y       z     vdW  Elec       q    Type
REMARK                         _______ _______ _______ _____ _____    ______ ____
ROOT
ATOM      1  S   UNL     1       5.958   5.408  16.294  0.00  0.00    +0.000 S 
ATOM      2  O   UNL     1       6.987   4.501  16.744  0.00  0.00    +0.000 OA
ATOM      3  O   UNL     1       6.162   6.835  16.233  0.00  0.00    +0.000 OA
ENDROOT
BRANCH   1   4
ATOM      4  C   UNL     1       4.521   5.147  17.304  0.00  0.00    +0.000 A 
ATOM      5  C   UNL     1       3.762   3.984  17.165  0.00  0.00    +0.000 A 
ATOM      6  C   UNL     1       2.527   3.900  17.808  0.00  0.00    +0.000 A 
ATOM      7  C   UNL     1       2.042   4.987  18.545  0.00  0.00    +0.000 A 
ATOM      8  C   UNL     1       2.790   6.168  18.677  0.00  0.00    +0.000 A 
ATOM      9  C   UNL     1       4.062   6.213  18.089  0.00  0.00    +0.000 A 
BRANCH   8  10
ATOM     10  C   UNL     1       2.200   7.359  19.284  0.00  0.00    +0.000 A 
ATOM     11  C   UNL     1       1.707   7.647  20.544  0.00  0.00    +0.000 A 
ATOM     12  C   UNL     1       1.114   8.933  20.476  0.00  0.00    +0.000 A 
ATOM     13  C   UNL     1       0.415   9.764  21.370  0.00  0.00    +0.000 A 
ATOM     14  C   UNL     1      -0.068  10.996  20.906  0.00  0.00    +0.000 A 
ATOM     15  C   UNL     1       0.142  11.399  19.584  0.00  0.00    +0.000 A 
ATOM     16  C   UNL     1       0.840  10.588  18.682  0.00  0.00    +0.000 A 
ATOM     17  C   UNL     1       1.300   9.366  19.171  0.00  0.00    +0.000 A 
ATOM     18  O   UNL     1       1.975   8.425  18.454  0.00  0.00    +0.000 OA
ENDBRANCH   8  10
ENDBRANCH   1   4
BRANCH   1  19
ATOM     19  N   UNL     1       5.500   4.945  14.744  0.00  0.00    +0.000 NA
ATOM     20  H   UNL     1       5.216   5.783  14.228  0.00  0.00    +0.000 HD
BRANCH  19  21
ATOM     21  C   UNL     1       6.370   4.016  13.990  0.00  0.00    +0.000 C 
BRANCH  21  22
ATOM     22  C   UNL     1       7.402   4.764  13.140  0.00  0.00    +0.000 C 
ATOM     23  O   UNL     1       7.519   4.602  11.924  0.00  0.00    +0.000 OA
ATOM     24  N   UNL     1       8.234   5.596  13.852  0.00  0.00    +0.000 N 
ATOM     25  H   UNL     1       8.225   5.728  14.857  0.00  0.00    +0.000 HD
BRANCH  24  26
ATOM     26  O   UNL     1       9.232   6.280  13.127  0.00  0.00    +0.000 OA
ATOM     27  H   UNL     1       8.759   7.085  12.824  0.00  0.00    +0.000 HD
ENDBRANCH  24  26
ENDBRANCH  21  22
BRANCH  21  28
ATOM     28  C   UNL     1       5.456   3.197  13.060  0.00  0.00    +0.000 C 
BRANCH  28  29
ATOM     29  C   UNL     1       4.725   4.003  11.982  0.00  0.00    +0.000 C 
BRANCH  29  31
ATOM     30  C   UNL     1       3.115   3.934  10.054  0.00  0.00    +0.000 C 
ATOM     31  C   UNL     1       4.098   3.134  10.894  0.00  0.00    +0.000 C 
ENDBRANCH  29  31
ENDBRANCH  28  29
ENDBRANCH  21  28
ENDBRANCH  19  21
ENDBRANCH   1  19
TORSDOF 9
ENDMDL
MODEL 6
REMARK VINA RESULT:      -7.9      4.583      6.814
REMARK  Name = 
REMARK  10 active torsions:
REMARK  status: ('A' for Active; 'I' for Inactive)
REMARK    1  A    between atoms: C_1  and  C_2
REMARK    2  A    between atoms: C_2  and  C_3
REMARK    3  A    between atoms: C_3  and  C_4
REMARK    4  A    between atoms: C_4  and  C_5
REMARK    5  A    between atoms: C_5  and  N_6
REMARK    6  A    between atoms: C_5  and  C_25
REMARK    7  A    between atoms: N_6  and  S_7
REMARK    8  A    between atoms: S_7  and  C_10
REMARK    9  A    between atoms: C_14  and  C_15
REMARK   10  A    between atoms: N_27  and  O_28
REMARK                            x       y       z     vdW  Elec       q    Type
REMARK                         _______ _______ _______ _____ _____    ______ ____
ROOT
ATOM      1  S   UNL     1       5.650   5.554  15.759  0.00  0.00    +0.000 S 
ATOM      2  O   UNL     1       6.344   4.984  14.628  0.00  0.00    +0.000 OA
ATOM      3  O   UNL     1       4.802   6.716  15.638  0.00  0.00    +0.000 OA
ENDROOT
BRANCH   1   4
ATOM      4  C   UNL     1       6.859   5.941  17.001  0.00  0.00    +0.000 A 
ATOM      5  C   UNL     1       7.134   5.033  18.025  0.00  0.00    +0.000 A 
ATOM      6  C   UNL     1       7.920   5.444  19.102  0.00  0.00    +0.000 A 
ATOM      7  C   UNL     1       8.386   6.762  19.170  0.00  0.00    +0.000 A 
ATOM      8  C   UNL     1       8.101   7.688  18.154  0.00  0.00    +0.000 A 
ATOM      9  C   UNL     1       7.374   7.244  17.041  0.00  0.00    +0.000 A 
BRANCH   8  10
ATOM     10  C   UNL     1       8.428   9.103  18.322  0.00  0.00    +0.000 A 
ATOM     11  C   UNL     1       8.251  10.226  17.535  0.00  0.00    +0.000 A 
ATOM     12  C   UNL     1       8.929  11.294  18.174  0.00  0.00    +0.000 A 
ATOM     13  C   UNL     1       9.168  12.649  17.882  0.00  0.00    +0.000 A 
ATOM     14  C   UNL     1       9.943  13.404  18.774  0.00  0.00    +0.000 A 
ATOM     15  C   UNL     1      10.466  12.829  19.936  0.00  0.00    +0.000 A 
ATOM     16  C   UNL     1      10.233  11.484  20.247  0.00  0.00    +0.000 A 
ATOM     17  C   UNL     1       9.467  10.759  19.336  0.00  0.00    +0.000 A 
ATOM     18  O   UNL     1       9.147   9.439  19.438  0.00  0.00    +0.000 OA
ENDBRANCH   8  10
ENDBRANCH   1   4
BRANCH   1  19
ATOM     19  N   UNL     1       4.688   4.354  16.436  0.00  0.00    +0.000 NA
ATOM     20  H   UNL     1       5.026   3.445  16.104  0.00  0.00    +0.000 HD
BRANCH  19  21
ATOM     21  C   UNL     1       4.385   4.412  17.883  0.00  0.00    +0.000 C 
BRANCH  21  22
ATOM     22  C   UNL     1       4.313   3.015  18.508  0.00  0.00    +0.000 C 
ATOM     23  O   UNL     1       3.537   2.142  18.119  0.00  0.00    +0.000 OA
ATOM     24  N   UNL     1       5.148   2.829  19.584  0.00  0.00    +0.000 N 
ATOM     25  H   UNL     1       5.766   3.524  19.986  0.00  0.00    +0.000 HD
BRANCH  24  26
ATOM     26  O   UNL     1       5.096   1.574  20.227  0.00  0.00    +0.000 OA
ATOM     27  H   UNL     1       5.822   1.081  19.789  0.00  0.00    +0.000 HD
ENDBRANCH  24  26
ENDBRANCH  21  22
BRANCH  21  28
ATOM     28  C   UNL     1       3.013   5.096  18.028  0.00  0.00    +0.000 C 
BRANCH  28  29
ATOM     29  C   UNL     1       2.541   5.323  19.467  0.00  0.00    +0.000 C 
BRANCH  29  31
ATOM     30  C   UNL     1       1.630   3.635  21.090  0.00  0.00    +0.000 C 
ATOM     31  C   UNL     1       1.335   4.470  19.854  0.00  0.00    +0.000 C 
ENDBRANCH  29  31
ENDBRANCH  28  29
ENDBRANCH  21  28
ENDBRANCH  19  21
ENDBRANCH   1  19
TORSDOF 9
ENDMDL
MODEL 7
REMARK VINA RESULT:      -7.9      1.425      1.893
REMARK  Name = 
REMARK  10 active torsions:
REMARK  status: ('A' for Active; 'I' for Inactive)
REMARK    1  A    between atoms: C_1  and  C_2
REMARK    2  A    between atoms: C_2  and  C_3
REMARK    3  A    between atoms: C_3  and  C_4
REMARK    4  A    between atoms: C_4  and  C_5
REMARK    5  A    between atoms: C_5  and  N_6
REMARK    6  A    between atoms: C_5  and  C_25
REMARK    7  A    between atoms: N_6  and  S_7
REMARK    8  A    between atoms: S_7  and  C_10
REMARK    9  A    between atoms: C_14  and  C_15
REMARK   10  A    between atoms: N_27  and  O_28
REMARK                            x       y       z     vdW  Elec       q    Type
REMARK                         _______ _______ _______ _____ _____    ______ ____
ROOT
ATOM      1  S   UNL     1       4.553   3.527  18.642  0.00  0.00    +0.000 S 
ATOM      2  O   UNL     1       4.067   2.912  17.428  0.00  0.00    +0.000 OA
ATOM      3  O   UNL     1       5.415   2.831  19.566  0.00  0.00    +0.000 OA
ENDROOT
BRANCH   1   4
ATOM      4  C   UNL     1       3.146   4.072  19.578  0.00  0.00    +0.000 A 
ATOM      5  C   UNL     1       2.104   3.189  19.863  0.00  0.00    +0.000 A 
ATOM      6  C   UNL     1       0.920   3.691  20.406  0.00  0.00    +0.000 A 
ATOM      7  C   UNL     1       0.771   5.066  20.618  0.00  0.00    +0.000 A 
ATOM      8  C   UNL     1       1.808   5.965  20.318  0.00  0.00    +0.000 A 
ATOM      9  C   UNL     1       3.018   5.442  19.844  0.00  0.00    +0.000 A 
BRANCH   8  10
ATOM     10  C   UNL     1       1.578   7.408  20.363  0.00  0.00    +0.000 A 
ATOM     11  C   UNL     1       1.054   8.265  21.314  0.00  0.00    +0.000 A 
ATOM     12  C   UNL     1       0.940   9.541  20.708  0.00  0.00    +0.000 A 
ATOM     13  C   UNL     1       0.453  10.799  21.104  0.00  0.00    +0.000 A 
ATOM     14  C   UNL     1       0.475  11.851  20.177  0.00  0.00    +0.000 A 
ATOM     15  C   UNL     1       0.975  11.662  18.886  0.00  0.00    +0.000 A 
ATOM     16  C   UNL     1       1.470  10.418  18.476  0.00  0.00    +0.000 A 
ATOM     17  C   UNL     1       1.427   9.391  19.417  0.00  0.00    +0.000 A 
ATOM     18  O   UNL     1       1.833   8.107  19.213  0.00  0.00    +0.000 OA
ENDBRANCH   8  10
ENDBRANCH   1   4
BRANCH   1  19
ATOM     19  N   UNL     1       5.374   4.931  18.218  0.00  0.00    +0.000 NA
ATOM     20  H   UNL     1       5.148   5.656  18.905  0.00  0.00    +0.000 HD
BRANCH  19  21
ATOM     21  C   UNL     1       6.806   4.840  17.859  0.00  0.00    +0.000 C 
BRANCH  21  22
ATOM     22  C   UNL     1       7.680   5.707  18.771  0.00  0.00    +0.000 C 
ATOM     23  O   UNL     1       8.074   5.337  19.878  0.00  0.00    +0.000 OA
ATOM     24  N   UNL     1       7.947   6.964  18.280  0.00  0.00    +0.000 N 
ATOM     25  H   UNL     1       7.605   7.346  17.406  0.00  0.00    +0.000 HD
BRANCH  24  26
ATOM     26  O   UNL     1       8.713   7.822  19.096  0.00  0.00    +0.000 OA
ATOM     27  H   UNL     1       9.065   7.209  19.777  0.00  0.00    +0.000 HD
ENDBRANCH  24  26
ENDBRANCH  21  22
BRANCH  21  28
ATOM     28  C   UNL     1       6.941   5.346  16.411  0.00  0.00    +0.000 C 
BRANCH  28  29
ATOM     29  C   UNL     1       5.627   5.730  15.725  0.00  0.00    +0.000 C 
BRANCH  29  31
ATOM     30  C   UNL     1       6.364   3.811  14.280  0.00  0.00    +0.000 C 
ATOM     31  C   UNL     1       5.251   4.806  14.568  0.00  0.00    +0.000 C 
ENDBRANCH  29  31
ENDBRANCH  28  29
ENDBRANCH  21  28
ENDBRANCH  19  21
ENDBRANCH   1  19
TORSDOF 9
ENDMDL
MODEL 8
REMARK VINA RESULT:      -7.9      2.108      3.667
REMARK  Name = 
REMARK  10 active torsions:
REMARK  status: ('A' for Active; 'I' for Inactive)
REMARK    1  A    between atoms: C_1  and  C_2
REMARK    2  A    between atoms: C_2  and  C_3
REMARK    3  A    between atoms: C_3  and  C_4
REMARK    4  A    between atoms: C_4  and  C_5
REMARK    5  A    between atoms: C_5  and  N_6
REMARK    6  A    between atoms: C_5  and  C_25
REMARK    7  A    between atoms: N_6  and  S_7
REMARK    8  A    between atoms: S_7  and  C_10
REMARK    9  A    between atoms: C_14  and  C_15
REMARK   10  A    between atoms: N_27  and  O_28
REMARK                            x       y       z     vdW  Elec       q    Type
REMARK                         _______ _______ _______ _____ _____    ______ ____
ROOT
ATOM      1  S   UNL     1       3.954   3.737  18.466  0.00  0.00    +0.000 S 
ATOM      2  O   UNL     1       2.873   2.856  18.088  0.00  0.00    +0.000 OA
ATOM      3  O   UNL     1       4.494   3.764  19.803  0.00  0.00    +0.000 OA
ENDROOT
BRANCH   1   4
ATOM      4  C   UNL     1       3.459   5.400  18.089  0.00  0.00    +0.000 A 
ATOM      5  C   UNL     1       4.068   6.098  17.045  0.00  0.00    +0.000 A 
ATOM      6  C   UNL     1       3.820   7.464  16.908  0.00  0.00    +0.000 A 
ATOM      7  C   UNL     1       3.006   8.128  17.833  0.00  0.00    +0.000 A 
ATOM      8  C   UNL     1       2.403   7.438  18.896  0.00  0.00    +0.000 A 
ATOM      9  C   UNL     1       2.598   6.053  18.981  0.00  0.00    +0.000 A 
BRANCH   8  10
ATOM     10  C   UNL     1       1.713   8.166  19.961  0.00  0.00    +0.000 A 
ATOM     11  C   UNL     1       1.326   7.841  21.248  0.00  0.00    +0.000 A 
ATOM     12  C   UNL     1       0.545   8.919  21.733  0.00  0.00    +0.000 A 
ATOM     13  C   UNL     1      -0.165   9.190  22.916  0.00  0.00    +0.000 A 
ATOM     14  C   UNL     1      -0.874  10.396  23.015  0.00  0.00    +0.000 A 
ATOM     15  C   UNL     1      -0.874  11.318  21.964  0.00  0.00    +0.000 A 
ATOM     16  C   UNL     1      -0.168  11.068  20.782  0.00  0.00    +0.000 A 
ATOM     17  C   UNL     1       0.519   9.858  20.712  0.00  0.00    +0.000 A 
ATOM     18  O   UNL     1       1.243   9.413  19.646  0.00  0.00    +0.000 OA
ENDBRANCH   8  10
ENDBRANCH   1   4
BRANCH   1  19
ATOM     19  N   UNL     1       5.257   3.421  17.452  0.00  0.00    +0.000 NA
ATOM     20  H   UNL     1       4.934   2.813  16.692  0.00  0.00    +0.000 HD
BRANCH  19  21
ATOM     21  C   UNL     1       6.117   4.546  17.024  0.00  0.00    +0.000 C 
BRANCH  21  22
ATOM     22  C   UNL     1       6.683   4.329  15.616  0.00  0.00    +0.000 C 
ATOM     23  O   UNL     1       7.682   4.912  15.194  0.00  0.00    +0.000 OA
ATOM     24  N   UNL     1       5.950   3.468  14.833  0.00  0.00    +0.000 N 
ATOM     25  H   UNL     1       5.091   3.003  15.103  0.00  0.00    +0.000 HD
BRANCH  24  26
ATOM     26  O   UNL     1       6.400   3.261  13.513  0.00  0.00    +0.000 OA
ATOM     27  H   UNL     1       5.775   3.806  12.988  0.00  0.00    +0.000 HD
ENDBRANCH  24  26
ENDBRANCH  21  22
BRANCH  21  28
ATOM     28  C   UNL     1       7.285   4.625  18.024  0.00  0.00    +0.000 C 
BRANCH  28  29
ATOM     29  C   UNL     1       7.239   5.809  18.994  0.00  0.00    +0.000 C 
BRANCH  29  31
ATOM     30  C   UNL     1       7.511   7.821  17.513  0.00  0.00    +0.000 C 
ATOM     31  C   UNL     1       8.155   6.963  18.590  0.00  0.00    +0.000 C 
ENDBRANCH  29  31
ENDBRANCH  28  29
ENDBRANCH  21  28
ENDBRANCH  19  21
ENDBRANCH   1  19
TORSDOF 9
ENDMDL
MODEL 9
REMARK VINA RESULT:      -7.8      1.403      1.870
REMARK  Name = 
REMARK  10 active torsions:
REMARK  status: ('A' for Active; 'I' for Inactive)
REMARK    1  A    between atoms: C_1  and  C_2
REMARK    2  A    between atoms: C_2  and  C_3
REMARK    3  A    between atoms: C_3  and  C_4
REMARK    4  A    between atoms: C_4  and  C_5
REMARK    5  A    between atoms: C_5  and  N_6
REMARK    6  A    between atoms: C_5  and  C_25
REMARK    7  A    between atoms: N_6  and  S_7
REMARK    8  A    between atoms: S_7  and  C_10
REMARK    9  A    between atoms: C_14  and  C_15
REMARK   10  A    between atoms: N_27  and  O_28
REMARK                            x       y       z     vdW  Elec       q    Type
REMARK                         _______ _______ _______ _____ _____    ______ ____
ROOT
ATOM      1  S   UNL     1       4.672   3.923  18.292  0.00  0.00    +0.000 S 
ATOM      2  O   UNL     1       3.984   2.949  17.478  0.00  0.00    +0.000 OA
ATOM      3  O   UNL     1       5.811   3.580  19.109  0.00  0.00    +0.000 OA
ENDROOT
BRANCH   1   4
ATOM      4  C   UNL     1       3.479   4.665  19.380  0.00  0.00    +0.000 A 
ATOM      5  C   UNL     1       2.659   3.866  20.178  0.00  0.00    +0.000 A 
ATOM      6  C   UNL     1       1.591   4.454  20.855  0.00  0.00    +0.000 A 
ATOM      7  C   UNL     1       1.323   5.819  20.696  0.00  0.00    +0.000 A 
ATOM      8  C   UNL     1       2.131   6.628  19.881  0.00  0.00    +0.000 A 
ATOM      9  C   UNL     1       3.245   6.042  19.266  0.00  0.00    +0.000 A 
BRANCH   8  10
ATOM     10  C   UNL     1       1.737   8.002  19.571  0.00  0.00    +0.000 A 
ATOM     11  C   UNL     1       1.971   8.846  18.501  0.00  0.00    +0.000 A 
ATOM     12  C   UNL     1       1.460  10.120  18.856  0.00  0.00    +0.000 A 
ATOM     13  C   UNL     1       1.421  11.389  18.251  0.00  0.00    +0.000 A 
ATOM     14  C   UNL     1       0.840  12.453  18.956  0.00  0.00    +0.000 A 
ATOM     15  C   UNL     1       0.304  12.262  20.233  0.00  0.00    +0.000 A 
ATOM     16  C   UNL     1       0.328  11.005  20.848  0.00  0.00    +0.000 A 
ATOM     17  C   UNL     1       0.919   9.970  20.125  0.00  0.00    +0.000 A 
ATOM     18  O   UNL     1       1.067   8.684  20.551  0.00  0.00    +0.000 OA
ENDBRANCH   8  10
ENDBRANCH   1   4
BRANCH   1  19
ATOM     19  N   UNL     1       5.188   5.167  17.286  0.00  0.00    +0.000 NA
ATOM     20  H   UNL     1       4.757   6.040  17.607  0.00  0.00    +0.000 HD
BRANCH  19  21
ATOM     21  C   UNL     1       6.626   5.269  16.956  0.00  0.00    +0.000 C 
BRANCH  21  22
ATOM     22  C   UNL     1       7.224   6.603  17.414  0.00  0.00    +0.000 C 
ATOM     23  O   UNL     1       7.079   7.656  16.792  0.00  0.00    +0.000 OA
ATOM     24  N   UNL     1       7.990   6.523  18.553  0.00  0.00    +0.000 N 
ATOM     25  H   UNL     1       8.193   5.679  19.076  0.00  0.00    +0.000 HD
BRANCH  24  26
ATOM     26  O   UNL     1       8.601   7.714  19.000  0.00  0.00    +0.000 OA
ATOM     27  H   UNL     1       8.733   8.211  18.164  0.00  0.00    +0.000 HD
ENDBRANCH  24  26
ENDBRANCH  21  22
BRANCH  21  28
ATOM     28  C   UNL     1       6.744   5.167  15.425  0.00  0.00    +0.000 C 
BRANCH  28  29
ATOM     29  C   UNL     1       6.235   3.860  14.811  0.00  0.00    +0.000 C 
BRANCH  29  31
ATOM     30  C   UNL     1       6.021   3.343  12.361  0.00  0.00    +0.000 C 
ATOM     31  C   UNL     1       5.402   4.065  13.547  0.00  0.00    +0.000 C 
ENDBRANCH  29  31
ENDBRANCH  28  29
ENDBRANCH  21  28
ENDBRANCH  19  21
ENDBRANCH   1  19
TORSDOF 9
ENDMDL
