MODEL 1
REMARK VINA RESULT:      -8.3      0.000      0.000
REMARK  Name = 
REMARK  9 active torsions:
REMARK  status: ('A' for Active; 'I' for Inactive)
REMARK    1  A    between atoms: C_1  and  C_2
REMARK    2  A    between atoms: C_6  and  N_7
REMARK    3  A    between atoms: C_8  and  C_10
REMARK    4  A    between atoms: C_10  and  S_11
REMARK    5  A    between atoms: S_11  and  C_12
REMARK    6  A    between atoms: N_14  and  C_15
REMARK    7  A    between atoms: C_15  and  C_16
REMARK    8  A    between atoms: C_21  and  C_22
REMARK    9  A    between atoms: C_31  and  C_32
REMARK                            x       y       z     vdW  Elec       q    Type
REMARK                         _______ _______ _______ _____ _____    ______ ____
ROOT
ATOM      1  C   UNL     1       4.915   5.031  19.028  0.00  0.00    +0.000 A 
ATOM      2  C   UNL     1       4.301   6.154  19.525  0.00  0.00    +0.000 A 
ATOM      3  N   UNL     1       2.947   5.923  19.527  0.00  0.00    +0.000 N 
ATOM      4  C   UNL     1       2.672   4.670  19.004  0.00  0.00    +0.000 A 
ATOM      5  C   UNL     1       1.459   3.995  18.773  0.00  0.00    +0.000 A 
ATOM      6  C   UNL     1       1.517   2.692  18.260  0.00  0.00    +0.000 A 
ATOM      7  C   UNL     1       2.733   2.084  17.969  0.00  0.00    +0.000 A 
ATOM      8  C   UNL     1       3.929   2.774  18.175  0.00  0.00    +0.000 A 
ATOM      9  C   UNL     1       3.905   4.084  18.701  0.00  0.00    +0.000 A 
ENDROOT
BRANCH   1  10
ATOM     10  S   UNL     1       6.619   4.760  18.767  0.00  0.00    +0.000 S 
BRANCH  10  11
ATOM     11  C   UNL     1       7.130   6.272  17.913  0.00  0.00    +0.000 C 
BRANCH  11  13
ATOM     12  N   UNL     1       7.503   5.298  15.686  0.00  0.00    +0.000 N 
ATOM     13  C   UNL     1       6.732   6.180  16.445  0.00  0.00    +0.000 C 
ATOM     14  O   UNL     1       5.791   6.860  16.037  0.00  0.00    +0.000 OA
ATOM     15  H   UNL     1       8.155   4.728  16.210  0.00  0.00    +0.000 HD
BRANCH  12  21
ATOM     16  C   UNL     1       5.137   2.838  11.956  0.00  0.00    +0.000 C 
ATOM     17  C   UNL     1       6.180   3.788  12.492  0.00  0.00    +0.000 A 
ATOM     18  C   UNL     1       6.996   4.442  11.561  0.00  0.00    +0.000 A 
ATOM     19  C   UNL     1       7.954   5.347  11.982  0.00  0.00    +0.000 A 
ATOM     20  C   UNL     1       8.104   5.615  13.338  0.00  0.00    +0.000 A 
ATOM     21  C   UNL     1       7.310   4.987  14.313  0.00  0.00    +0.000 A 
ATOM     22  C   UNL     1       6.338   4.044  13.888  0.00  0.00    +0.000 A 
ATOM     23  C   UNL     1       5.412   3.317  14.835  0.00  0.00    +0.000 C 
ENDBRANCH  12  21
ENDBRANCH  11  13
ENDBRANCH  10  11
ENDBRANCH   1  10
BRANCH   3  24
ATOM     24  C   UNL     1       1.953   6.912  19.929  0.00  0.00    +0.000 C 
BRANCH  24  25
ATOM     25  C   UNL     1       1.829   8.077  18.956  0.00  0.00    +0.000 C 
ATOM     26  O   UNL     1       2.167   7.970  17.777  0.00  0.00    +0.000 OA
ATOM     27  N   UNL     1       1.272   9.262  19.459  0.00  0.00    +0.000 N 
ATOM     28  C   UNL     1       0.832   9.473  20.834  0.00  0.00    +0.000 C 
ATOM     29  C   UNL     1      -0.484  10.244  20.898  0.00  0.00    +0.000 C 
ATOM     30  C   UNL     1      -0.439  11.535  20.073  0.00  0.00    +0.000 C 
ATOM     31  C   UNL     1      -1.814  12.197  20.046  0.00  0.00    +0.000 C 
ATOM     32  C   UNL     1       0.044  11.245  18.647  0.00  0.00    +0.000 C 
ATOM     33  C   UNL     1       1.357  10.475  18.653  0.00  0.00    +0.000 C 
ENDBRANCH  24  25
ENDBRANCH   3  24
TORSDOF 6
ENDMDL
MODEL 2
REMARK VINA RESULT:      -7.9      1.990      8.759
REMARK  Name = 
REMARK  9 active torsions:
REMARK  status: ('A' for Active; 'I' for Inactive)
REMARK    1  A    between atoms: C_1  and  C_2
REMARK    2  A    between atoms: C_6  and  N_7
REMARK    3  A    between atoms: C_8  and  C_10
REMARK    4  A    between atoms: C_10  and  S_11
REMARK    5  A    between atoms: S_11  and  C_12
REMARK    6  A    between atoms: N_14  and  C_15
REMARK    7  A    between atoms: C_15  and  C_16
REMARK    8  A    between atoms: C_21  and  C_22
REMARK    9  A    between atoms: C_31  and  C_32
REMARK                            x       y       z     vdW  Elec       q    Type
REMARK                         _______ _______ _______ _____ _____    ______ ____
ROOT
ATOM      1  C   UNL     1       4.670   3.761  17.658  0.00  0.00    +0.000 A 
ATOM      2  C   UNL     1       4.534   4.043  16.322  0.00  0.00    +0.000 A 
ATOM      3  N   UNL     1       5.461   5.007  16.003  0.00  0.00    +0.000 N 
ATOM      4  C   UNL     1       6.175   5.379  17.129  0.00  0.00    +0.000 A 
ATOM      5  C   UNL     1       7.194   6.330  17.323  0.00  0.00    +0.000 A 
ATOM      6  C   UNL     1       7.757   6.443  18.602  0.00  0.00    +0.000 A 
ATOM      7  C   UNL     1       7.315   5.653  19.657  0.00  0.00    +0.000 A 
ATOM      8  C   UNL     1       6.283   4.733  19.460  0.00  0.00    +0.000 A 
ATOM      9  C   UNL     1       5.703   4.587  18.182  0.00  0.00    +0.000 A 
ENDROOT
BRANCH   1  10
ATOM     10  S   UNL     1       3.744   2.639  18.623  0.00  0.00    +0.000 S 
BRANCH  10  11
ATOM     11  C   UNL     1       3.443   3.581  20.138  0.00  0.00    +0.000 C 
BRANCH  11  13
ATOM     12  N   UNL     1       2.806   5.946  20.360  0.00  0.00    +0.000 N 
ATOM     13  C   UNL     1       2.448   4.697  19.848  0.00  0.00    +0.000 C 
ATOM     14  O   UNL     1       1.432   4.439  19.203  0.00  0.00    +0.000 OA
ATOM     15  H   UNL     1       3.736   6.003  20.757  0.00  0.00    +0.000 HD
BRANCH  12  21
ATOM     16  C   UNL     1       1.539  10.043  17.682  0.00  0.00    +0.000 C 
ATOM     17  C   UNL     1       1.472   9.160  18.904  0.00  0.00    +0.000 A 
ATOM     18  C   UNL     1       0.605   9.549  19.933  0.00  0.00    +0.000 A 
ATOM     19  C   UNL     1       0.474   8.771  21.070  0.00  0.00    +0.000 A 
ATOM     20  C   UNL     1       1.203   7.593  21.191  0.00  0.00    +0.000 A 
ATOM     21  C   UNL     1       2.085   7.159  20.188  0.00  0.00    +0.000 A 
ATOM     22  C   UNL     1       2.238   7.961  19.027  0.00  0.00    +0.000 A 
ATOM     23  C   UNL     1       3.140   7.594  17.872  0.00  0.00    +0.000 C 
ENDBRANCH  12  21
ENDBRANCH  11  13
ENDBRANCH  10  11
ENDBRANCH   1  10
BRANCH   3  24
ATOM     24  C   UNL     1       5.582   5.613  14.682  0.00  0.00    +0.000 C 
BRANCH  24  25
ATOM     25  C   UNL     1       6.751   5.071  13.871  0.00  0.00    +0.000 C 
ATOM     26  O   UNL     1       7.916   5.361  14.146  0.00  0.00    +0.000 OA
ATOM     27  N   UNL     1       6.438   4.192  12.823  0.00  0.00    +0.000 N 
ATOM     28  C   UNL     1       5.092   3.782  12.437  0.00  0.00    +0.000 C 
ATOM     29  C   UNL     1       5.026   2.294  12.102  0.00  0.00    +0.000 C 
ATOM     30  C   UNL     1       6.098   1.879  11.089  0.00  0.00    +0.000 C 
ATOM     31  C   UNL     1       6.090   0.365  10.895  0.00  0.00    +0.000 C 
ATOM     32  C   UNL     1       7.483   2.352  11.548  0.00  0.00    +0.000 C 
ATOM     33  C   UNL     1       7.481   3.841  11.866  0.00  0.00    +0.000 C 
ENDBRANCH  24  25
ENDBRANCH   3  24
TORSDOF 6
ENDMDL
MODEL 3
REMARK VINA RESULT:      -7.8      1.034      1.430
REMARK  Name = 
REMARK  9 active torsions:
REMARK  status: ('A' for Active; 'I' for Inactive)
REMARK    1  A    between atoms: C_1  and  C_2
REMARK    2  A    between atoms: C_6  and  N_7
REMARK    3  A    between atoms: C_8  and  C_10
REMARK    4  A    between atoms: C_10  and  S_11
REMARK    5  A    between atoms: S_11  and  C_12
REMARK    6  A    between atoms: N_14  and  C_15
REMARK    7  A    between atoms: C_15  and  C_16
REMARK    8  A    between atoms: C_21  and  C_22
REMARK    9  A    between atoms: C_31  and  C_32
REMARK                            x       y       z     vdW  Elec       q    Type
REMARK                         _______ _______ _______ _____ _____    ______ ____
ROOT
ATOM      1  C   UNL     1       4.944   5.054  18.837  0.00  0.00    +0.000 A 
ATOM      2  C   UNL     1       4.407   6.314  18.741  0.00  0.00    +0.000 A 
ATOM      3  N   UNL     1       3.057   6.176  18.527  0.00  0.00    +0.000 N 
ATOM      4  C   UNL     1       2.715   4.836  18.447  0.00  0.00    +0.000 A 
ATOM      5  C   UNL     1       1.487   4.192  18.215  0.00  0.00    +0.000 A 
ATOM      6  C   UNL     1       1.460   2.791  18.237  0.00  0.00    +0.000 A 
ATOM      7  C   UNL     1       2.615   2.052  18.466  0.00  0.00    +0.000 A 
ATOM      8  C   UNL     1       3.835   2.700  18.667  0.00  0.00    +0.000 A 
ATOM      9  C   UNL     1       3.893   4.111  18.661  0.00  0.00    +0.000 A 
ENDROOT
BRANCH   1  10
ATOM     10  S   UNL     1       6.614   4.609  19.078  0.00  0.00    +0.000 S 
BRANCH  10  11
ATOM     11  C   UNL     1       7.497   6.088  18.524  0.00  0.00    +0.000 C 
BRANCH  11  13
ATOM     12  N   UNL     1       7.397   5.008  16.317  0.00  0.00    +0.000 N 
ATOM     13  C   UNL     1       7.363   6.218  17.012  0.00  0.00    +0.000 C 
ATOM     14  O   UNL     1       7.234   7.338  16.518  0.00  0.00    +0.000 OA
ATOM     15  H   UNL     1       7.382   4.175  16.893  0.00  0.00    +0.000 HD
BRANCH  12  21
ATOM     16  C   UNL     1       4.915   3.247  12.278  0.00  0.00    +0.000 C 
ATOM     17  C   UNL     1       6.053   3.982  12.945  0.00  0.00    +0.000 A 
ATOM     18  C   UNL     1       7.008   4.581  12.113  0.00  0.00    +0.000 A 
ATOM     19  C   UNL     1       8.061   5.294  12.657  0.00  0.00    +0.000 A 
ATOM     20  C   UNL     1       8.171   5.424  14.037  0.00  0.00    +0.000 A 
ATOM     21  C   UNL     1       7.240   4.844  14.914  0.00  0.00    +0.000 A 
ATOM     22  C   UNL     1       6.167   4.095  14.363  0.00  0.00    +0.000 A 
ATOM     23  C   UNL     1       5.091   3.440  15.199  0.00  0.00    +0.000 C 
ENDBRANCH  12  21
ENDBRANCH  11  13
ENDBRANCH  10  11
ENDBRANCH   1  10
BRANCH   3  24
ATOM     24  C   UNL     1       2.150   7.297  18.310  0.00  0.00    +0.000 C 
BRANCH  24  25
ATOM     25  C   UNL     1       1.642   7.926  19.601  0.00  0.00    +0.000 C 
ATOM     26  O   UNL     1       1.684   7.319  20.672  0.00  0.00    +0.000 OA
ATOM     27  N   UNL     1       1.165   9.242  19.517  0.00  0.00    +0.000 N 
ATOM     28  C   UNL     1       1.092  10.039  18.296  0.00  0.00    +0.000 C 
ATOM     29  C   UNL     1       1.520  11.485  18.536  0.00  0.00    +0.000 C 
ATOM     30  C   UNL     1       0.779  12.120  19.718  0.00  0.00    +0.000 C 
ATOM     31  C   UNL     1       1.338  13.509  20.012  0.00  0.00    +0.000 C 
ATOM     32  C   UNL     1       0.882  11.227  20.959  0.00  0.00    +0.000 C 
ATOM     33  C   UNL     1       0.443   9.801  20.654  0.00  0.00    +0.000 C 
ENDBRANCH  24  25
ENDBRANCH   3  24
TORSDOF 6
ENDMDL
MODEL 4
REMARK VINA RESULT:      -7.8      4.045      7.196
REMARK  Name = 
REMARK  9 active torsions:
REMARK  status: ('A' for Active; 'I' for Inactive)
REMARK    1  A    between atoms: C_1  and  C_2
REMARK    2  A    between atoms: C_6  and  N_7
REMARK    3  A    between atoms: C_8  and  C_10
REMARK    4  A    between atoms: C_10  and  S_11
REMARK    5  A    between atoms: S_11  and  C_12
REMARK    6  A    between atoms: N_14  and  C_15
REMARK    7  A    between atoms: C_15  and  C_16
REMARK    8  A    between atoms: C_21  and  C_22
REMARK    9  A    between atoms: C_31  and  C_32
REMARK                            x       y       z     vdW  Elec       q    Type
REMARK                         _______ _______ _______ _____ _____    ______ ____
ROOT
ATOM      1  C   UNL     1       0.593  10.244  18.994  0.00  0.00    +0.000 A 
ATOM      2  C   UNL     1       0.672  11.604  18.831  0.00  0.00    +0.000 A 
ATOM      3  N   UNL     1       0.364  12.188  20.036  0.00  0.00    +0.000 N 
ATOM      4  C   UNL     1       0.051  11.218  20.974  0.00  0.00    +0.000 A 
ATOM      5  C   UNL     1      -0.349  11.308  22.320  0.00  0.00    +0.000 A 
ATOM      6  C   UNL     1      -0.555  10.117  23.029  0.00  0.00    +0.000 A 
ATOM      7  C   UNL     1      -0.385   8.878  22.422  0.00  0.00    +0.000 A 
ATOM      8  C   UNL     1      -0.015   8.800  21.078  0.00  0.00    +0.000 A 
ATOM      9  C   UNL     1       0.210   9.982  20.339  0.00  0.00    +0.000 A 
ENDROOT
BRANCH   1  10
ATOM     10  S   UNL     1       0.852   8.998  17.800  0.00  0.00    +0.000 S 
BRANCH  10  11
ATOM     11  C   UNL     1       2.654   8.839  17.784  0.00  0.00    +0.000 C 
BRANCH  11  13
ATOM     12  N   UNL     1       1.966   6.542  18.326  0.00  0.00    +0.000 N 
ATOM     13  C   UNL     1       3.034   7.381  18.004  0.00  0.00    +0.000 C 
ATOM     14  O   UNL     1       4.213   7.046  17.885  0.00  0.00    +0.000 OA
ATOM     15  H   UNL     1       1.047   6.961  18.258  0.00  0.00    +0.000 HD
BRANCH  12  21
ATOM     16  C   UNL     1       1.769   2.441  21.277  0.00  0.00    +0.000 C 
ATOM     17  C   UNL     1       1.959   3.138  19.952  0.00  0.00    +0.000 A 
ATOM     18  C   UNL     1       2.186   2.334  18.828  0.00  0.00    +0.000 A 
ATOM     19  C   UNL     1       2.340   2.905  17.577  0.00  0.00    +0.000 A 
ATOM     20  C   UNL     1       2.263   4.286  17.433  0.00  0.00    +0.000 A 
ATOM     21  C   UNL     1       2.037   5.137  18.528  0.00  0.00    +0.000 A 
ATOM     22  C   UNL     1       1.896   4.558  19.816  0.00  0.00    +0.000 A 
ATOM     23  C   UNL     1       1.630   5.362  21.067  0.00  0.00    +0.000 C 
ENDBRANCH  12  21
ENDBRANCH  11  13
ENDBRANCH  10  11
ENDBRANCH   1  10
BRANCH   3  24
ATOM     24  C   UNL     1       0.280  13.629  20.245  0.00  0.00    +0.000 C 
BRANCH  24  25
ATOM     25  C   UNL     1       1.524  14.221  20.894  0.00  0.00    +0.000 C 
ATOM     26  O   UNL     1       1.682  14.205  22.116  0.00  0.00    +0.000 OA
ATOM     27  N   UNL     1       2.498  14.745  20.032  0.00  0.00    +0.000 N 
ATOM     28  C   UNL     1       2.401  14.792  18.576  0.00  0.00    +0.000 C 
ATOM     29  C   UNL     1       3.726  14.433  17.907  0.00  0.00    +0.000 C 
ATOM     30  C   UNL     1       4.896  15.253  18.462  0.00  0.00    +0.000 C 
ATOM     31  C   UNL     1       6.216  14.763  17.873  0.00  0.00    +0.000 C 
ATOM     32  C   UNL     1       4.930  15.173  19.993  0.00  0.00    +0.000 C 
ATOM     33  C   UNL     1       3.582  15.540  20.597  0.00  0.00    +0.000 C 
ENDBRANCH  24  25
ENDBRANCH   3  24
TORSDOF 6
ENDMDL
MODEL 5
REMARK VINA RESULT:      -7.8      2.298      9.362
REMARK  Name = 
REMARK  9 active torsions:
REMARK  status: ('A' for Active; 'I' for Inactive)
REMARK    1  A    between atoms: C_1  and  C_2
REMARK    2  A    between atoms: C_6  and  N_7
REMARK    3  A    between atoms: C_8  and  C_10
REMARK    4  A    between atoms: C_10  and  S_11
REMARK    5  A    between atoms: S_11  and  C_12
REMARK    6  A    between atoms: N_14  and  C_15
REMARK    7  A    between atoms: C_15  and  C_16
REMARK    8  A    between atoms: C_21  and  C_22
REMARK    9  A    between atoms: C_31  and  C_32
REMARK                            x       y       z     vdW  Elec       q    Type
REMARK                         _______ _______ _______ _____ _____    ______ ____
ROOT
ATOM      1  C   UNL     1       2.809   6.307  19.462  0.00  0.00    +0.000 A 
ATOM      2  C   UNL     1       4.142   6.154  19.168  0.00  0.00    +0.000 A 
ATOM      3  N   UNL     1       4.441   4.817  19.277  0.00  0.00    +0.000 N 
ATOM      4  C   UNL     1       3.322   4.104  19.673  0.00  0.00    +0.000 A 
ATOM      5  C   UNL     1       3.127   2.737  19.944  0.00  0.00    +0.000 A 
ATOM      6  C   UNL     1       1.838   2.310  20.290  0.00  0.00    +0.000 A 
ATOM      7  C   UNL     1       0.781   3.207  20.380  0.00  0.00    +0.000 A 
ATOM      8  C   UNL     1       0.991   4.566  20.136  0.00  0.00    +0.000 A 
ATOM      9  C   UNL     1       2.276   5.027  19.775  0.00  0.00    +0.000 A 
ENDROOT
BRANCH   1  10
ATOM     10  S   UNL     1       1.880   7.784  19.512  0.00  0.00    +0.000 S 
BRANCH  10  11
ATOM     11  C   UNL     1       1.255   7.795  21.210  0.00  0.00    +0.000 C 
BRANCH  11  13
ATOM     12  N   UNL     1       0.636  10.160  20.941  0.00  0.00    +0.000 N 
ATOM     13  C   UNL     1       1.281   9.221  21.747  0.00  0.00    +0.000 C 
ATOM     14  O   UNL     1       1.845   9.445  22.819  0.00  0.00    +0.000 OA
ATOM     15  H   UNL     1       0.119   9.779  20.158  0.00  0.00    +0.000 HD
BRANCH  12  21
ATOM     16  C   UNL     1      -1.510  13.951  23.508  0.00  0.00    +0.000 C 
ATOM     17  C   UNL     1      -0.575  13.392  22.463  0.00  0.00    +0.000 A 
ATOM     18  C   UNL     1       0.216  14.304  21.752  0.00  0.00    +0.000 A 
ATOM     19  C   UNL     1       1.115  13.858  20.800  0.00  0.00    +0.000 A 
ATOM     20  C   UNL     1       1.239  12.496  20.549  0.00  0.00    +0.000 A 
ATOM     21  C   UNL     1       0.470  11.541  21.234  0.00  0.00    +0.000 A 
ATOM     22  C   UNL     1      -0.467  11.993  22.199  0.00  0.00    +0.000 A 
ATOM     23  C   UNL     1      -1.338  11.066  23.015  0.00  0.00    +0.000 C 
ENDBRANCH  12  21
ENDBRANCH  11  13
ENDBRANCH  10  11
ENDBRANCH   1  10
BRANCH   3  24
ATOM     24  C   UNL     1       5.780   4.267  19.100  0.00  0.00    +0.000 C 
BRANCH  24  25
ATOM     25  C   UNL     1       6.610   5.012  18.064  0.00  0.00    +0.000 C 
ATOM     26  O   UNL     1       7.615   5.649  18.381  0.00  0.00    +0.000 OA
ATOM     27  N   UNL     1       6.199   4.900  16.727  0.00  0.00    +0.000 N 
ATOM     28  C   UNL     1       5.034   4.157  16.260  0.00  0.00    +0.000 C 
ATOM     29  C   UNL     1       5.330   3.384  14.977  0.00  0.00    +0.000 C 
ATOM     30  C   UNL     1       5.953   4.274  13.895  0.00  0.00    +0.000 C 
ATOM     31  C   UNL     1       6.365   3.436  12.689  0.00  0.00    +0.000 C 
ATOM     32  C   UNL     1       7.160   5.036  14.455  0.00  0.00    +0.000 C 
ATOM     33  C   UNL     1       6.799   5.782  15.733  0.00  0.00    +0.000 C 
ENDBRANCH  24  25
ENDBRANCH   3  24
TORSDOF 6
ENDMDL
MODEL 6
REMARK VINA RESULT:      -7.8      1.748      8.823
REMARK  Name = 
REMARK  9 active torsions:
REMARK  status: ('A' for Active; 'I' for Inactive)
REMARK    1  A    between atoms: C_1  and  C_2
REMARK    2  A    between atoms: C_6  and  N_7
REMARK    3  A    between atoms: C_8  and  C_10
REMARK    4  A    between atoms: C_10  and  S_11
REMARK    5  A    between atoms: S_11  and  C_12
REMARK    6  A    between atoms: N_14  and  C_15
REMARK    7  A    between atoms: C_15  and  C_16
REMARK    8  A    between atoms: C_21  and  C_22
REMARK    9  A    between atoms: C_31  and  C_32
REMARK                            x       y       z     vdW  Elec       q    Type
REMARK                         _______ _______ _______ _____ _____    ______ ____
ROOT
ATOM      1  C   UNL     1       2.954   6.020  19.595  0.00  0.00    +0.000 A 
ATOM      2  C   UNL     1       4.290   5.862  19.323  0.00  0.00    +0.000 A 
ATOM      3  N   UNL     1       4.538   4.513  19.224  0.00  0.00    +0.000 N 
ATOM      4  C   UNL     1       3.380   3.792  19.463  0.00  0.00    +0.000 A 
ATOM      5  C   UNL     1       3.126   2.409  19.504  0.00  0.00    +0.000 A 
ATOM      6  C   UNL     1       1.811   1.985  19.735  0.00  0.00    +0.000 A 
ATOM      7  C   UNL     1       0.783   2.900  19.935  0.00  0.00    +0.000 A 
ATOM      8  C   UNL     1       1.050   4.270  19.921  0.00  0.00    +0.000 A 
ATOM      9  C   UNL     1       2.363   4.729  19.680  0.00  0.00    +0.000 A 
ENDROOT
BRANCH   1  10
ATOM     10  S   UNL     1       2.076   7.507  19.854  0.00  0.00    +0.000 S 
BRANCH  10  11
ATOM     11  C   UNL     1       2.422   8.435  18.340  0.00  0.00    +0.000 C 
BRANCH  11  13
ATOM     12  N   UNL     1       0.268   9.451  18.951  0.00  0.00    +0.000 N 
ATOM     13  C   UNL     1       1.457   9.608  18.236  0.00  0.00    +0.000 C 
ATOM     14  O   UNL     1       1.774  10.585  17.556  0.00  0.00    +0.000 OA
ATOM     15  H   UNL     1       0.228   8.639  19.555  0.00  0.00    +0.000 HD
BRANCH  12  21
ATOM     16  C   UNL     1      -1.934  13.398  21.217  0.00  0.00    +0.000 C 
ATOM     17  C   UNL     1      -1.861  12.319  20.165  0.00  0.00    +0.000 A 
ATOM     18  C   UNL     1      -2.880  12.285  19.204  0.00  0.00    +0.000 A 
ATOM     19  C   UNL     1      -2.860  11.339  18.194  0.00  0.00    +0.000 A 
ATOM     20  C   UNL     1      -1.819  10.420  18.127  0.00  0.00    +0.000 A 
ATOM     21  C   UNL     1      -0.773  10.411  19.065  0.00  0.00    +0.000 A 
ATOM     22  C   UNL     1      -0.798  11.367  20.114  0.00  0.00    +0.000 A 
ATOM     23  C   UNL     1       0.277  11.473  21.171  0.00  0.00    +0.000 C 
ENDBRANCH  12  21
ENDBRANCH  11  13
ENDBRANCH  10  11
ENDBRANCH   1  10
BRANCH   3  24
ATOM     24  C   UNL     1       5.861   3.944  19.003  0.00  0.00    +0.000 C 
BRANCH  24  25
ATOM     25  C   UNL     1       6.704   4.735  18.011  0.00  0.00    +0.000 C 
ATOM     26  O   UNL     1       7.728   5.323  18.361  0.00  0.00    +0.000 OA
ATOM     27  N   UNL     1       6.282   4.724  16.674  0.00  0.00    +0.000 N 
ATOM     28  C   UNL     1       5.094   4.044  16.168  0.00  0.00    +0.000 C 
ATOM     29  C   UNL     1       5.360   3.351  14.834  0.00  0.00    +0.000 C 
ATOM     30  C   UNL     1       5.999   4.294  13.809  0.00  0.00    +0.000 C 
ATOM     31  C   UNL     1       6.380   3.528  12.545  0.00  0.00    +0.000 C 
ATOM     32  C   UNL     1       7.230   4.985  14.408  0.00  0.00    +0.000 C 
ATOM     33  C   UNL     1       6.898   5.654  15.735  0.00  0.00    +0.000 C 
ENDBRANCH  24  25
ENDBRANCH   3  24
TORSDOF 6
ENDMDL
MODEL 7
REMARK VINA RESULT:      -7.7      3.977      7.333
REMARK  Name = 
REMARK  9 active torsions:
REMARK  status: ('A' for Active; 'I' for Inactive)
REMARK    1  A    between atoms: C_1  and  C_2
REMARK    2  A    between atoms: C_6  and  N_7
REMARK    3  A    between atoms: C_8  and  C_10
REMARK    4  A    between atoms: C_10  and  S_11
REMARK    5  A    between atoms: S_11  and  C_12
REMARK    6  A    between atoms: N_14  and  C_15
REMARK    7  A    between atoms: C_15  and  C_16
REMARK    8  A    between atoms: C_21  and  C_22
REMARK    9  A    between atoms: C_31  and  C_32
REMARK                            x       y       z     vdW  Elec       q    Type
REMARK                         _______ _______ _______ _____ _____    ______ ____
ROOT
ATOM      1  C   UNL     1      -0.367  10.440  18.557  0.00  0.00    +0.000 A 
ATOM      2  C   UNL     1      -0.395  11.439  19.498  0.00  0.00    +0.000 A 
ATOM      3  N   UNL     1      -1.609  12.075  19.396  0.00  0.00    +0.000 N 
ATOM      4  C   UNL     1      -2.359  11.519  18.372  0.00  0.00    +0.000 A 
ATOM      5  C   UNL     1      -3.633  11.832  17.865  0.00  0.00    +0.000 A 
ATOM      6  C   UNL     1      -4.144  11.039  16.829  0.00  0.00    +0.000 A 
ATOM      7  C   UNL     1      -3.412   9.982  16.301  0.00  0.00    +0.000 A 
ATOM      8  C   UNL     1      -2.136   9.697  16.792  0.00  0.00    +0.000 A 
ATOM      9  C   UNL     1      -1.597  10.471  17.843  0.00  0.00    +0.000 A 
ENDROOT
BRANCH   1  10
ATOM     10  S   UNL     1       0.930   9.326  18.205  0.00  0.00    +0.000 S 
BRANCH  10  11
ATOM     11  C   UNL     1       1.633   9.014  19.843  0.00  0.00    +0.000 C 
BRANCH  11  13
ATOM     12  N   UNL     1       2.846   7.077  18.939  0.00  0.00    +0.000 N 
ATOM     13  C   UNL     1       2.014   7.544  19.957  0.00  0.00    +0.000 C 
ATOM     14  O   UNL     1       1.583   6.887  20.905  0.00  0.00    +0.000 OA
ATOM     15  H   UNL     1       3.204   7.785  18.310  0.00  0.00    +0.000 HD
BRANCH  12  21
ATOM     16  C   UNL     1       2.564   2.224  17.546  0.00  0.00    +0.000 C 
ATOM     17  C   UNL     1       3.259   3.405  18.179  0.00  0.00    +0.000 A 
ATOM     18  C   UNL     1       4.555   3.201  18.671  0.00  0.00    +0.000 A 
ATOM     19  C   UNL     1       5.261   4.248  19.238  0.00  0.00    +0.000 A 
ATOM     20  C   UNL     1       4.684   5.511  19.316  0.00  0.00    +0.000 A 
ATOM     21  C   UNL     1       3.389   5.767  18.837  0.00  0.00    +0.000 A 
ATOM     22  C   UNL     1       2.653   4.694  18.271  0.00  0.00    +0.000 A 
ATOM     23  C   UNL     1       1.260   4.845  17.704  0.00  0.00    +0.000 C 
ENDBRANCH  12  21
ENDBRANCH  11  13
ENDBRANCH  10  11
ENDBRANCH   1  10
BRANCH   3  24
ATOM     24  C   UNL     1      -1.989  13.236  20.192  0.00  0.00    +0.000 C 
BRANCH  24  25
ATOM     25  C   UNL     1      -2.106  12.938  21.681  0.00  0.00    +0.000 C 
ATOM     26  O   UNL     1      -1.123  12.965  22.422  0.00  0.00    +0.000 OA
ATOM     27  N   UNL     1      -3.393  12.676  22.173  0.00  0.00    +0.000 N 
ATOM     28  C   UNL     1      -4.613  12.638  21.373  0.00  0.00    +0.000 C 
ATOM     29  C   UNL     1      -5.782  13.312  22.087  0.00  0.00    +0.000 C 
ATOM     30  C   UNL     1      -5.976  12.778  23.510  0.00  0.00    +0.000 C 
ATOM     31  C   UNL     1      -7.056  13.577  24.235  0.00  0.00    +0.000 C 
ATOM     32  C   UNL     1      -4.657  12.832  24.290  0.00  0.00    +0.000 C 
ATOM     33  C   UNL     1      -3.534  12.146  23.524  0.00  0.00    +0.000 C 
ENDBRANCH  24  25
ENDBRANCH   3  24
TORSDOF 6
ENDMDL
MODEL 8
REMARK VINA RESULT:      -7.7      3.794      7.223
REMARK  Name = 
REMARK  9 active torsions:
REMARK  status: ('A' for Active; 'I' for Inactive)
REMARK    1  A    between atoms: C_1  and  C_2
REMARK    2  A    between atoms: C_6  and  N_7
REMARK    3  A    between atoms: C_8  and  C_10
REMARK    4  A    between atoms: C_10  and  S_11
REMARK    5  A    between atoms: S_11  and  C_12
REMARK    6  A    between atoms: N_14  and  C_15
REMARK    7  A    between atoms: C_15  and  C_16
REMARK    8  A    between atoms: C_21  and  C_22
REMARK    9  A    between atoms: C_31  and  C_32
REMARK                            x       y       z     vdW  Elec       q    Type
REMARK                         _______ _______ _______ _____ _____    ______ ____
ROOT
ATOM      1  C   UNL     1       0.047  10.190  19.668  0.00  0.00    +0.000 A 
ATOM      2  C   UNL     1      -0.656  10.606  18.566  0.00  0.00    +0.000 A 
ATOM      3  N   UNL     1      -1.633  11.471  18.997  0.00  0.00    +0.000 N 
ATOM      4  C   UNL     1      -1.593  11.594  20.376  0.00  0.00    +0.000 A 
ATOM      5  C   UNL     1      -2.388  12.325  21.277  0.00  0.00    +0.000 A 
ATOM      6  C   UNL     1      -2.061  12.274  22.639  0.00  0.00    +0.000 A 
ATOM      7  C   UNL     1      -0.991  11.512  23.095  0.00  0.00    +0.000 A 
ATOM      8  C   UNL     1      -0.226  10.767  22.195  0.00  0.00    +0.000 A 
ATOM      9  C   UNL     1      -0.524  10.806  20.816  0.00  0.00    +0.000 A 
ENDROOT
BRANCH   1  10
ATOM     10  S   UNL     1       1.382   9.067  19.734  0.00  0.00    +0.000 S 
BRANCH  10  11
ATOM     11  C   UNL     1       1.964   9.050  18.021  0.00  0.00    +0.000 C 
BRANCH  11  13
ATOM     12  N   UNL     1       2.732   6.837  18.769  0.00  0.00    +0.000 N 
ATOM     13  C   UNL     1       2.863   7.839  17.806  0.00  0.00    +0.000 C 
ATOM     14  O   UNL     1       3.616   7.819  16.832  0.00  0.00    +0.000 OA
ATOM     15  H   UNL     1       1.976   6.965  19.430  0.00  0.00    +0.000 HD
BRANCH  12  21
ATOM     16  C   UNL     1       2.958   1.876  17.816  0.00  0.00    +0.000 C 
ATOM     17  C   UNL     1       3.529   3.176  18.331  0.00  0.00    +0.000 A 
ATOM     18  C   UNL     1       4.842   3.155  18.817  0.00  0.00    +0.000 A 
ATOM     19  C   UNL     1       5.436   4.317  19.278  0.00  0.00    +0.000 A 
ATOM     20  C   UNL     1       4.729   5.514  19.253  0.00  0.00    +0.000 A 
ATOM     21  C   UNL     1       3.411   5.588  18.775  0.00  0.00    +0.000 A 
ATOM     22  C   UNL     1       2.789   4.397  18.318  0.00  0.00    +0.000 A 
ATOM     23  C   UNL     1       1.384   4.349  17.762  0.00  0.00    +0.000 C 
ENDBRANCH  12  21
ENDBRANCH  11  13
ENDBRANCH  10  11
ENDBRANCH   1  10
BRANCH   3  24
ATOM     24  C   UNL     1      -2.628  12.078  18.120  0.00  0.00    +0.000 C 
BRANCH  24  25
ATOM     25  C   UNL     1      -3.861  11.210  17.909  0.00  0.00    +0.000 C 
ATOM     26  O   UNL     1      -3.839  10.227  17.167  0.00  0.00    +0.000 OA
ATOM     27  N   UNL     1      -5.010  11.559  18.635  0.00  0.00    +0.000 N 
ATOM     28  C   UNL     1      -5.122  12.694  19.545  0.00  0.00    +0.000 C 
ATOM     29  C   UNL     1      -5.895  12.332  20.811  0.00  0.00    +0.000 C 
ATOM     30  C   UNL     1      -7.242  11.672  20.500  0.00  0.00    +0.000 C 
ATOM     31  C   UNL     1      -7.912  11.197  21.786  0.00  0.00    +0.000 C 
ATOM     32  C   UNL     1      -7.054  10.500  19.530  0.00  0.00    +0.000 C 
ATOM     33  C   UNL     1      -6.277  10.926  18.291  0.00  0.00    +0.000 C 
ENDBRANCH  24  25
ENDBRANCH   3  24
TORSDOF 6
ENDMDL
MODEL 9
REMARK VINA RESULT:      -7.6      1.887      8.896
REMARK  Name = 
REMARK  9 active torsions:
REMARK  status: ('A' for Active; 'I' for Inactive)
REMARK    1  A    between atoms: C_1  and  C_2
REMARK    2  A    between atoms: C_6  and  N_7
REMARK    3  A    between atoms: C_8  and  C_10
REMARK    4  A    between atoms: C_10  and  S_11
REMARK    5  A    between atoms: S_11  and  C_12
REMARK    6  A    between atoms: N_14  and  C_15
REMARK    7  A    between atoms: C_15  and  C_16
REMARK    8  A    between atoms: C_21  and  C_22
REMARK    9  A    between atoms: C_31  and  C_32
REMARK                            x       y       z     vdW  Elec       q    Type
REMARK                         _______ _______ _______ _____ _____    ______ ____
ROOT
ATOM      1  C   UNL     1       2.843   6.083  19.735  0.00  0.00    +0.000 A 
ATOM      2  C   UNL     1       4.183   5.963  19.461  0.00  0.00    +0.000 A 
ATOM      3  N   UNL     1       4.453   4.627  19.282  0.00  0.00    +0.000 N 
ATOM      4  C   UNL     1       3.305   3.874  19.472  0.00  0.00    +0.000 A 
ATOM      5  C   UNL     1       3.074   2.487  19.428  0.00  0.00    +0.000 A 
ATOM      6  C   UNL     1       1.765   2.029  19.626  0.00  0.00    +0.000 A 
ATOM      7  C   UNL     1       0.722   2.914  19.875  0.00  0.00    +0.000 A 
ATOM      8  C   UNL     1       0.967   4.287  19.945  0.00  0.00    +0.000 A 
ATOM      9  C   UNL     1       2.273   4.780  19.740  0.00  0.00    +0.000 A 
ENDROOT
BRANCH   1  10
ATOM     10  S   UNL     1       1.940   7.537  20.079  0.00  0.00    +0.000 S 
BRANCH  10  11
ATOM     11  C   UNL     1       2.047   8.443  18.516  0.00  0.00    +0.000 C 
BRANCH  11  13
ATOM     12  N   UNL     1       1.096  10.472  19.527  0.00  0.00    +0.000 N 
ATOM     13  C   UNL     1       0.989   9.539  18.495  0.00  0.00    +0.000 C 
ATOM     14  O   UNL     1       0.142   9.534  17.601  0.00  0.00    +0.000 OA
ATOM     15  H   UNL     1       1.927  10.395  20.100  0.00  0.00    +0.000 HD
BRANCH  12  21
ATOM     16  C   UNL     1       0.029  15.361  18.798  0.00  0.00    +0.000 C 
ATOM     17  C   UNL     1      -0.249  13.994  19.374  0.00  0.00    +0.000 A 
ATOM     18  C   UNL     1      -1.428  13.833  20.113  0.00  0.00    +0.000 A 
ATOM     19  C   UNL     1      -1.759  12.600  20.645  0.00  0.00    +0.000 A 
ATOM     20  C   UNL     1      -0.919  11.510  20.441  0.00  0.00    +0.000 A 
ATOM     21  C   UNL     1       0.274  11.617  19.708  0.00  0.00    +0.000 A 
ATOM     22  C   UNL     1       0.628  12.884  19.174  0.00  0.00    +0.000 A 
ATOM     23  C   UNL     1       1.873  13.125  18.352  0.00  0.00    +0.000 C 
ENDBRANCH  12  21
ENDBRANCH  11  13
ENDBRANCH  10  11
ENDBRANCH   1  10
BRANCH   3  24
ATOM     24  C   UNL     1       5.786   4.093  19.034  0.00  0.00    +0.000 C 
BRANCH  24  25
ATOM     25  C   UNL     1       6.587   4.905  18.024  0.00  0.00    +0.000 C 
ATOM     26  O   UNL     1       7.570   5.565  18.363  0.00  0.00    +0.000 OA
ATOM     27  N   UNL     1       6.177   4.828  16.685  0.00  0.00    +0.000 N 
ATOM     28  C   UNL     1       5.038   4.061  16.192  0.00  0.00    +0.000 C 
ATOM     29  C   UNL     1       5.358   3.347  14.881  0.00  0.00    +0.000 C 
ATOM     30  C   UNL     1       5.945   4.298  13.833  0.00  0.00    +0.000 C 
ATOM     31  C   UNL     1       6.384   3.520  12.595  0.00  0.00    +0.000 C 
ATOM     32  C   UNL     1       7.126   5.081  14.419  0.00  0.00    +0.000 C 
ATOM     33  C   UNL     1       6.742   5.767  15.723  0.00  0.00    +0.000 C 
ENDBRANCH  24  25
ENDBRANCH   3  24
TORSDOF 6
ENDMDL
