MODEL 1
REMARK VINA RESULT:      -7.2      0.000      0.000
REMARK  Name = 
REMARK  5 active torsions:
REMARK  status: ('A' for Active; 'I' for Inactive)
REMARK    1  A    between atoms: C_1  and  S_2
REMARK    2  A    between atoms: S_2  and  C_5
REMARK    3  A    between atoms: C_5  and  C_6
REMARK    4  A    between atoms: C_10  and  C_11
REMARK    5  A    between atoms: C_14  and  C_15
REMARK                            x       y       z     vdW  Elec       q    Type
REMARK                         _______ _______ _______ _____ _____    ______ ____
ROOT
ATOM      1  C   UNL     1       4.251   3.851  19.152  0.00  0.00    +0.000 C 
ATOM      2  O   UNL     1       5.157   3.354  19.844  0.00  0.00    +0.000 OA
ATOM      3  N   UNL     1       4.615   4.568  18.031  0.00  0.00    +0.000 N 
ATOM      4  C   UNL     1       5.937   4.593  17.427  0.00  0.00    +0.000 C 
ATOM      5  C   UNL     1       5.663   6.053  17.039  0.00  0.00    +0.000 C 
ATOM      6  C   UNL     1       4.166   5.797  17.367  0.00  0.00    +0.000 C 
ENDROOT
BRANCH   1   7
ATOM      7  C   UNL     1       2.746   3.648  19.534  0.00  0.00    +0.000 C 
ATOM      8  C   UNL     1       2.056   4.759  20.386  0.00  0.00    +0.000 C 
ATOM      9  C   UNL     1       2.406   3.977  21.660  0.00  0.00    +0.000 C 
ATOM     10  C   UNL     1       2.535   2.717  20.801  0.00  0.00    +0.000 C 
BRANCH   7  12
ATOM     11  C   UNL     1       0.474   2.049  18.779  0.00  0.00    +0.000 C 
ATOM     12  S   UNL     1       1.856   2.930  18.115  0.00  0.00    +0.000 S 
ATOM     13  O   UNL     1       2.704   1.930  17.496  0.00  0.00    +0.000 OA
ATOM     14  O   UNL     1       1.252   3.947  17.282  0.00  0.00    +0.000 OA
ENDBRANCH   7  12
ENDBRANCH   1   7
BRANCH   5  15
ATOM     15  C   UNL     1       6.491   7.117  17.743  0.00  0.00    +0.000 C 
ATOM     16  C   UNL     1       7.830   6.782  18.358  0.00  0.00    +0.000 C 
ATOM     17  C   UNL     1       7.757   7.687  17.162  0.00  0.00    +0.000 C 
ENDBRANCH   5  15
BRANCH   6  18
ATOM     18  C   UNL     1       3.378   6.738  18.248  0.00  0.00    +0.000 C 
ATOM     19  C   UNL     1       3.013   8.151  17.876  0.00  0.00    +0.000 C 
ATOM     20  C   UNL     1       1.938   7.111  17.949  0.00  0.00    +0.000 C 
ENDBRANCH   6  18
TORSDOF 4
ENDMDL
MODEL 2
REMARK VINA RESULT:      -6.9      0.845      1.016
REMARK  Name = 
REMARK  5 active torsions:
REMARK  status: ('A' for Active; 'I' for Inactive)
REMARK    1  A    between atoms: C_1  and  S_2
REMARK    2  A    between atoms: S_2  and  C_5
REMARK    3  A    between atoms: C_5  and  C_6
REMARK    4  A    between atoms: C_10  and  C_11
REMARK    5  A    between atoms: C_14  and  C_15
REMARK                            x       y       z     vdW  Elec       q    Type
REMARK                         _______ _______ _______ _____ _____    ______ ____
ROOT
ATOM      1  C   UNL     1       3.981   3.809  19.226  0.00  0.00    +0.000 C 
ATOM      2  O   UNL     1       4.875   3.259  19.893  0.00  0.00    +0.000 OA
ATOM      3  N   UNL     1       4.357   4.508  18.097  0.00  0.00    +0.000 N 
ATOM      4  C   UNL     1       5.663   4.460  17.460  0.00  0.00    +0.000 C 
ATOM      5  C   UNL     1       5.463   5.934  17.082  0.00  0.00    +0.000 C 
ATOM      6  C   UNL     1       3.962   5.763  17.448  0.00  0.00    +0.000 C 
ENDROOT
BRANCH   1   7
ATOM      7  C   UNL     1       2.478   3.691  19.645  0.00  0.00    +0.000 C 
ATOM      8  C   UNL     1       1.865   4.852  20.490  0.00  0.00    +0.000 C 
ATOM      9  C   UNL     1       2.204   4.078  21.772  0.00  0.00    +0.000 C 
ATOM     10  C   UNL     1       2.249   2.796  20.936  0.00  0.00    +0.000 C 
BRANCH   7  12
ATOM     11  C   UNL     1       2.613   1.920  17.379  0.00  0.00    +0.000 C 
ATOM     12  S   UNL     1       1.519   2.993  18.262  0.00  0.00    +0.000 S 
ATOM     13  O   UNL     1       1.187   4.065  17.343  0.00  0.00    +0.000 OA
ATOM     14  O   UNL     1       0.465   2.113  18.720  0.00  0.00    +0.000 OA
ENDBRANCH   7  12
ENDBRANCH   1   7
BRANCH   5  15
ATOM     15  C   UNL     1       6.368   6.946  17.767  0.00  0.00    +0.000 C 
ATOM     16  C   UNL     1       7.739   6.554  18.266  0.00  0.00    +0.000 C 
ATOM     17  C   UNL     1       7.603   7.512  17.118  0.00  0.00    +0.000 C 
ENDBRANCH   5  15
BRANCH   6  18
ATOM     18  C   UNL     1       3.252   6.744  18.351  0.00  0.00    +0.000 C 
ATOM     19  C   UNL     1       2.993   8.187  18.006  0.00  0.00    +0.000 C 
ATOM     20  C   UNL     1       1.842   7.230  18.068  0.00  0.00    +0.000 C 
ENDBRANCH   6  18
TORSDOF 4
ENDMDL
MODEL 3
REMARK VINA RESULT:      -6.4      2.132      5.311
REMARK  Name = 
REMARK  5 active torsions:
REMARK  status: ('A' for Active; 'I' for Inactive)
REMARK    1  A    between atoms: C_1  and  S_2
REMARK    2  A    between atoms: S_2  and  C_5
REMARK    3  A    between atoms: C_5  and  C_6
REMARK    4  A    between atoms: C_10  and  C_11
REMARK    5  A    between atoms: C_14  and  C_15
REMARK                            x       y       z     vdW  Elec       q    Type
REMARK                         _______ _______ _______ _____ _____    ______ ____
ROOT
ATOM      1  C   UNL     1       4.812   3.605  17.764  0.00  0.00    +0.000 C 
ATOM      2  O   UNL     1       4.580   2.420  17.469  0.00  0.00    +0.000 OA
ATOM      3  N   UNL     1       4.247   4.105  18.920  0.00  0.00    +0.000 N 
ATOM      4  C   UNL     1       3.614   3.321  19.967  0.00  0.00    +0.000 C 
ATOM      5  C   UNL     1       2.656   4.501  20.184  0.00  0.00    +0.000 C 
ATOM      6  C   UNL     1       3.627   5.368  19.335  0.00  0.00    +0.000 C 
ENDROOT
BRANCH   1   7
ATOM      7  C   UNL     1       5.734   4.492  16.861  0.00  0.00    +0.000 C 
ATOM      8  C   UNL     1       5.046   5.510  15.899  0.00  0.00    +0.000 C 
ATOM      9  C   UNL     1       5.090   4.459  14.780  0.00  0.00    +0.000 C 
ATOM     10  C   UNL     1       6.219   3.759  15.540  0.00  0.00    +0.000 C 
BRANCH   7  12
ATOM     11  C   UNL     1       7.483   6.712  17.411  0.00  0.00    +0.000 C 
ATOM     12  S   UNL     1       7.192   5.016  17.819  0.00  0.00    +0.000 S 
ATOM     13  O   UNL     1       8.349   4.287  17.335  0.00  0.00    +0.000 OA
ATOM     14  O   UNL     1       6.928   5.041  19.242  0.00  0.00    +0.000 OA
ENDBRANCH   7  12
ENDBRANCH   1   7
BRANCH   5  15
ATOM     15  C   UNL     1       1.200   4.283  19.805  0.00  0.00    +0.000 C 
ATOM     16  C   UNL     1       0.815   3.296  18.727  0.00  0.00    +0.000 C 
ATOM     17  C   UNL     1       0.440   3.032  20.157  0.00  0.00    +0.000 C 
ENDBRANCH   5  15
BRANCH   6  18
ATOM     18  C   UNL     1       3.129   6.230  18.199  0.00  0.00    +0.000 C 
ATOM     19  C   UNL     1       2.294   7.472  18.373  0.00  0.00    +0.000 C 
ATOM     20  C   UNL     1       3.711   7.601  17.908  0.00  0.00    +0.000 C 
ENDBRANCH   6  18
TORSDOF 4
ENDMDL
MODEL 4
REMARK VINA RESULT:      -6.3      1.953      3.074
REMARK  Name = 
REMARK  5 active torsions:
REMARK  status: ('A' for Active; 'I' for Inactive)
REMARK    1  A    between atoms: C_1  and  S_2
REMARK    2  A    between atoms: S_2  and  C_5
REMARK    3  A    between atoms: C_5  and  C_6
REMARK    4  A    between atoms: C_10  and  C_11
REMARK    5  A    between atoms: C_14  and  C_15
REMARK                            x       y       z     vdW  Elec       q    Type
REMARK                         _______ _______ _______ _____ _____    ______ ____
ROOT
ATOM      1  C   UNL     1       4.391   4.921  19.117  0.00  0.00    +0.000 C 
ATOM      2  O   UNL     1       4.057   5.875  19.841  0.00  0.00    +0.000 OA
ATOM      3  N   UNL     1       5.716   4.826  18.746  0.00  0.00    +0.000 N 
ATOM      4  C   UNL     1       6.818   5.581  19.318  0.00  0.00    +0.000 C 
ATOM      5  C   UNL     1       7.470   5.564  17.929  0.00  0.00    +0.000 C 
ATOM      6  C   UNL     1       6.452   4.458  17.531  0.00  0.00    +0.000 C 
ENDROOT
BRANCH   1   7
ATOM      7  C   UNL     1       3.340   3.853  18.661  0.00  0.00    +0.000 C 
ATOM      8  C   UNL     1       2.887   3.871  17.167  0.00  0.00    +0.000 C 
ATOM      9  C   UNL     1       1.698   4.762  17.555  0.00  0.00    +0.000 C 
ATOM     10  C   UNL     1       1.842   4.257  18.993  0.00  0.00    +0.000 C 
BRANCH   7  12
ATOM     11  C   UNL     1       2.467   2.000  20.684  0.00  0.00    +0.000 C 
ATOM     12  S   UNL     1       3.717   2.259  19.459  0.00  0.00    +0.000 S 
ATOM     13  O   UNL     1       4.964   2.390  20.187  0.00  0.00    +0.000 OA
ATOM     14  O   UNL     1       3.550   1.144  18.552  0.00  0.00    +0.000 OA
ENDBRANCH   7  12
ENDBRANCH   1   7
BRANCH   5  15
ATOM     15  C   UNL     1       7.569   6.894  17.200  0.00  0.00    +0.000 C 
ATOM     16  C   UNL     1       6.591   8.011  17.480  0.00  0.00    +0.000 C 
ATOM     17  C   UNL     1       8.034   8.161  17.867  0.00  0.00    +0.000 C 
ENDBRANCH   5  15
BRANCH   6  18
ATOM     18  C   UNL     1       5.649   4.547  16.255  0.00  0.00    +0.000 C 
ATOM     19  C   UNL     1       6.177   5.081  14.949  0.00  0.00    +0.000 C 
ATOM     20  C   UNL     1       5.891   3.617  15.080  0.00  0.00    +0.000 C 
ENDBRANCH   6  18
TORSDOF 4
ENDMDL
MODEL 5
REMARK VINA RESULT:      -6.3      0.845      1.005
REMARK  Name = 
REMARK  5 active torsions:
REMARK  status: ('A' for Active; 'I' for Inactive)
REMARK    1  A    between atoms: C_1  and  S_2
REMARK    2  A    between atoms: S_2  and  C_5
REMARK    3  A    between atoms: C_5  and  C_6
REMARK    4  A    between atoms: C_10  and  C_11
REMARK    5  A    between atoms: C_14  and  C_15
REMARK                            x       y       z     vdW  Elec       q    Type
REMARK                         _______ _______ _______ _____ _____    ______ ____
ROOT
ATOM      1  C   UNL     1       4.086   3.658  19.278  0.00  0.00    +0.000 C 
ATOM      2  O   UNL     1       4.977   3.119  19.957  0.00  0.00    +0.000 OA
ATOM      3  N   UNL     1       4.470   4.378  18.166  0.00  0.00    +0.000 N 
ATOM      4  C   UNL     1       5.789   4.364  17.554  0.00  0.00    +0.000 C 
ATOM      5  C   UNL     1       5.568   5.838  17.190  0.00  0.00    +0.000 C 
ATOM      6  C   UNL     1       4.063   5.633  17.524  0.00  0.00    +0.000 C 
ENDROOT
BRANCH   1   7
ATOM      7  C   UNL     1       2.578   3.506  19.667  0.00  0.00    +0.000 C 
ATOM      8  C   UNL     1       1.906   4.678  20.448  0.00  0.00    +0.000 C 
ATOM      9  C   UNL     1       2.238   3.968  21.768  0.00  0.00    +0.000 C 
ATOM     10  C   UNL     1       2.347   2.656  20.987  0.00  0.00    +0.000 C 
BRANCH   7  12
ATOM     11  C   UNL     1       1.097   4.030  17.253  0.00  0.00    +0.000 C 
ATOM     12  S   UNL     1       1.678   2.721  18.291  0.00  0.00    +0.000 S 
ATOM     13  O   UNL     1       0.491   2.078  18.822  0.00  0.00    +0.000 OA
ATOM     14  O   UNL     1       2.558   1.960  17.429  0.00  0.00    +0.000 OA
ENDBRANCH   7  12
ENDBRANCH   1   7
BRANCH   5  15
ATOM     15  C   UNL     1       6.438   6.860  17.904  0.00  0.00    +0.000 C 
ATOM     16  C   UNL     1       7.831   6.507  18.372  0.00  0.00    +0.000 C 
ATOM     17  C   UNL     1       7.640   7.502  17.265  0.00  0.00    +0.000 C 
ENDBRANCH   5  15
BRANCH   6  18
ATOM     18  C   UNL     1       3.316   6.589  18.423  0.00  0.00    +0.000 C 
ATOM     19  C   UNL     1       3.089   8.047  18.119  0.00  0.00    +0.000 C 
ATOM     20  C   UNL     1       1.928   7.102  18.085  0.00  0.00    +0.000 C 
ENDBRANCH   6  18
TORSDOF 4
ENDMDL
MODEL 6
REMARK VINA RESULT:      -6.3      2.095      3.131
REMARK  Name = 
REMARK  5 active torsions:
REMARK  status: ('A' for Active; 'I' for Inactive)
REMARK    1  A    between atoms: C_1  and  S_2
REMARK    2  A    between atoms: S_2  and  C_5
REMARK    3  A    between atoms: C_5  and  C_6
REMARK    4  A    between atoms: C_10  and  C_11
REMARK    5  A    between atoms: C_14  and  C_15
REMARK                            x       y       z     vdW  Elec       q    Type
REMARK                         _______ _______ _______ _____ _____    ______ ____
ROOT
ATOM      1  C   UNL     1       4.313   4.989  19.166  0.00  0.00    +0.000 C 
ATOM      2  O   UNL     1       4.000   5.968  19.865  0.00  0.00    +0.000 OA
ATOM      3  N   UNL     1       5.638   4.850  18.808  0.00  0.00    +0.000 N 
ATOM      4  C   UNL     1       6.756   5.589  19.372  0.00  0.00    +0.000 C 
ATOM      5  C   UNL     1       7.418   5.521  17.989  0.00  0.00    +0.000 C 
ATOM      6  C   UNL     1       6.374   4.434  17.608  0.00  0.00    +0.000 C 
ENDROOT
BRANCH   1   7
ATOM      7  C   UNL     1       3.238   3.939  18.727  0.00  0.00    +0.000 C 
ATOM      8  C   UNL     1       2.765   3.962  17.239  0.00  0.00    +0.000 C 
ATOM      9  C   UNL     1       1.598   4.874  17.642  0.00  0.00    +0.000 C 
ATOM     10  C   UNL     1       1.752   4.369  19.078  0.00  0.00    +0.000 C 
BRANCH   7  12
ATOM     11  C   UNL     1       3.827   1.166  18.221  0.00  0.00    +0.000 C 
ATOM     12  S   UNL     1       3.597   2.340  19.523  0.00  0.00    +0.000 S 
ATOM     13  O   UNL     1       2.415   1.907  20.244  0.00  0.00    +0.000 OA
ATOM     14  O   UNL     1       4.871   2.349  20.211  0.00  0.00    +0.000 OA
ENDBRANCH   7  12
ENDBRANCH   1   7
BRANCH   5  15
ATOM     15  C   UNL     1       7.558   6.831  17.230  0.00  0.00    +0.000 C 
ATOM     16  C   UNL     1       6.600   7.975  17.467  0.00  0.00    +0.000 C 
ATOM     17  C   UNL     1       8.040   8.104  17.873  0.00  0.00    +0.000 C 
ENDBRANCH   5  15
BRANCH   6  18
ATOM     18  C   UNL     1       5.583   4.514  16.324  0.00  0.00    +0.000 C 
ATOM     19  C   UNL     1       6.142   4.976  15.004  0.00  0.00    +0.000 C 
ATOM     20  C   UNL     1       5.788   3.532  15.185  0.00  0.00    +0.000 C 
ENDBRANCH   6  18
TORSDOF 4
ENDMDL
MODEL 7
REMARK VINA RESULT:      -6.2      2.453      5.865
REMARK  Name = 
REMARK  5 active torsions:
REMARK  status: ('A' for Active; 'I' for Inactive)
REMARK    1  A    between atoms: C_1  and  S_2
REMARK    2  A    between atoms: S_2  and  C_5
REMARK    3  A    between atoms: C_5  and  C_6
REMARK    4  A    between atoms: C_10  and  C_11
REMARK    5  A    between atoms: C_14  and  C_15
REMARK                            x       y       z     vdW  Elec       q    Type
REMARK                         _______ _______ _______ _____ _____    ______ ____
ROOT
ATOM      1  C   UNL     1       4.515   5.606  17.239  0.00  0.00    +0.000 C 
ATOM      2  O   UNL     1       4.461   6.752  17.719  0.00  0.00    +0.000 OA
ATOM      3  N   UNL     1       3.393   4.810  17.342  0.00  0.00    +0.000 N 
ATOM      4  C   UNL     1       2.064   5.255  17.728  0.00  0.00    +0.000 C 
ATOM      5  C   UNL     1       1.865   3.886  18.391  0.00  0.00    +0.000 C 
ATOM      6  C   UNL     1       3.119   3.394  17.615  0.00  0.00    +0.000 C 
ENDROOT
BRANCH   1   7
ATOM      7  C   UNL     1       5.810   5.095  16.524  0.00  0.00    +0.000 C 
ATOM      8  C   UNL     1       6.119   5.649  15.097  0.00  0.00    +0.000 C 
ATOM      9  C   UNL     1       5.399   4.437  14.489  0.00  0.00    +0.000 C 
ATOM     10  C   UNL     1       5.626   3.692  15.807  0.00  0.00    +0.000 C 
BRANCH   7  12
ATOM     11  C   UNL     1       7.791   6.603  17.972  0.00  0.00    +0.000 C 
ATOM     12  S   UNL     1       7.160   4.967  17.742  0.00  0.00    +0.000 S 
ATOM     13  O   UNL     1       8.242   4.203  17.153  0.00  0.00    +0.000 OA
ATOM     14  O   UNL     1       6.674   4.595  19.054  0.00  0.00    +0.000 OA
ENDBRANCH   7  12
ENDBRANCH   1   7
BRANCH   5  15
ATOM     15  C   UNL     1       1.774   3.864  19.908  0.00  0.00    +0.000 C 
ATOM     16  C   UNL     1       0.605   4.495  20.628  0.00  0.00    +0.000 C 
ATOM     17  C   UNL     1       0.791   3.006  20.659  0.00  0.00    +0.000 C 
ENDBRANCH   5  15
BRANCH   6  18
ATOM     18  C   UNL     1       4.240   2.658  18.310  0.00  0.00    +0.000 C 
ATOM     19  C   UNL     1       4.200   2.200  19.745  0.00  0.00    +0.000 C 
ATOM     20  C   UNL     1       4.151   1.181  18.649  0.00  0.00    +0.000 C 
ENDBRANCH   6  18
TORSDOF 4
ENDMDL
MODEL 8
REMARK VINA RESULT:      -6.1      1.430      2.254
REMARK  Name = 
REMARK  5 active torsions:
REMARK  status: ('A' for Active; 'I' for Inactive)
REMARK    1  A    between atoms: C_1  and  S_2
REMARK    2  A    between atoms: S_2  and  C_5
REMARK    3  A    between atoms: C_5  and  C_6
REMARK    4  A    between atoms: C_10  and  C_11
REMARK    5  A    between atoms: C_14  and  C_15
REMARK                            x       y       z     vdW  Elec       q    Type
REMARK                         _______ _______ _______ _____ _____    ______ ____
ROOT
ATOM      1  C   UNL     1       4.407   3.632  18.877  0.00  0.00    +0.000 C 
ATOM      2  O   UNL     1       5.251   3.136  19.644  0.00  0.00    +0.000 OA
ATOM      3  N   UNL     1       4.859   4.448  17.861  0.00  0.00    +0.000 N 
ATOM      4  C   UNL     1       6.241   4.590  17.433  0.00  0.00    +0.000 C 
ATOM      5  C   UNL     1       5.925   6.057  17.111  0.00  0.00    +0.000 C 
ATOM      6  C   UNL     1       4.418   5.696  17.229  0.00  0.00    +0.000 C 
ENDROOT
BRANCH   1   7
ATOM      7  C   UNL     1       2.883   3.319  19.051  0.00  0.00    +0.000 C 
ATOM      8  C   UNL     1       2.421   1.837  18.885  0.00  0.00    +0.000 C 
ATOM      9  C   UNL     1       2.116   2.116  17.406  0.00  0.00    +0.000 C 
ATOM     10  C   UNL     1       2.025   3.605  17.747  0.00  0.00    +0.000 C 
BRANCH   7  12
ATOM     11  C   UNL     1       2.263   3.279  21.863  0.00  0.00    +0.000 C 
ATOM     12  S   UNL     1       2.218   4.311  20.428  0.00  0.00    +0.000 S 
ATOM     13  O   UNL     1       0.815   4.574  20.172  0.00  0.00    +0.000 OA
ATOM     14  O   UNL     1       3.086   5.418  20.769  0.00  0.00    +0.000 OA
ENDBRANCH   7  12
ENDBRANCH   1   7
BRANCH   5  15
ATOM     15  C   UNL     1       6.591   7.110  17.982  0.00  0.00    +0.000 C 
ATOM     16  C   UNL     1       8.017   6.943  18.453  0.00  0.00    +0.000 C 
ATOM     17  C   UNL     1       7.670   8.029  17.476  0.00  0.00    +0.000 C 
ENDBRANCH   5  15
BRANCH   6  18
ATOM     18  C   UNL     1       3.470   6.525  18.063  0.00  0.00    +0.000 C 
ATOM     19  C   UNL     1       3.112   7.960  17.775  0.00  0.00    +0.000 C 
ATOM     20  C   UNL     1       2.078   6.893  17.581  0.00  0.00    +0.000 C 
ENDBRANCH   6  18
TORSDOF 4
ENDMDL
MODEL 9
REMARK VINA RESULT:      -5.9      2.701      5.583
REMARK  Name = 
REMARK  5 active torsions:
REMARK  status: ('A' for Active; 'I' for Inactive)
REMARK    1  A    between atoms: C_1  and  S_2
REMARK    2  A    between atoms: S_2  and  C_5
REMARK    3  A    between atoms: C_5  and  C_6
REMARK    4  A    between atoms: C_10  and  C_11
REMARK    5  A    between atoms: C_14  and  C_15
REMARK                            x       y       z     vdW  Elec       q    Type
REMARK                         _______ _______ _______ _____ _____    ______ ____
ROOT
ATOM      1  C   UNL     1       4.941   6.055  17.732  0.00  0.00    +0.000 C 
ATOM      2  O   UNL     1       4.715   7.196  18.172  0.00  0.00    +0.000 OA
ATOM      3  N   UNL     1       3.884   5.173  17.652  0.00  0.00    +0.000 N 
ATOM      4  C   UNL     1       2.477   5.513  17.789  0.00  0.00    +0.000 C 
ATOM      5  C   UNL     1       2.271   4.136  18.434  0.00  0.00    +0.000 C 
ATOM      6  C   UNL     1       3.676   3.742  17.901  0.00  0.00    +0.000 C 
ENDROOT
BRANCH   1   7
ATOM      7  C   UNL     1       6.378   5.645  17.266  0.00  0.00    +0.000 C 
ATOM      8  C   UNL     1       7.186   4.666  18.175  0.00  0.00    +0.000 C 
ATOM      9  C   UNL     1       7.838   5.871  18.867  0.00  0.00    +0.000 C 
ATOM     10  C   UNL     1       7.493   6.713  17.636  0.00  0.00    +0.000 C 
BRANCH   7  12
ATOM     11  C   UNL     1       5.982   3.687  15.192  0.00  0.00    +0.000 C 
ATOM     12  S   UNL     1       6.377   5.390  15.462  0.00  0.00    +0.000 S 
ATOM     13  O   UNL     1       7.729   5.567  14.969  0.00  0.00    +0.000 OA
ATOM     14  O   UNL     1       5.297   6.103  14.813  0.00  0.00    +0.000 OA
ENDBRANCH   7  12
ENDBRANCH   1   7
BRANCH   5  15
ATOM     15  C   UNL     1       1.915   4.117  19.912  0.00  0.00    +0.000 C 
ATOM     16  C   UNL     1       0.528   4.486  20.385  0.00  0.00    +0.000 C 
ATOM     17  C   UNL     1       1.020   3.074  20.526  0.00  0.00    +0.000 C 
ENDBRANCH   5  15
BRANCH   6  18
ATOM     18  C   UNL     1       4.710   3.101  18.797  0.00  0.00    +0.000 C 
ATOM     19  C   UNL     1       4.487   2.755  20.245  0.00  0.00    +0.000 C 
ATOM     20  C   UNL     1       4.612   1.653  19.239  0.00  0.00    +0.000 C 
ENDBRANCH   6  18
TORSDOF 4
ENDMDL
