MODEL 1
REMARK VINA RESULT:      -8.0      0.000      0.000
REMARK  Name = 
REMARK  7 active torsions:
REMARK  status: ('A' for Active; 'I' for Inactive)
REMARK    1  A    between atoms: C_1  and  C_2
REMARK    2  A    between atoms: C_3  and  C_4
REMARK    3  A    between atoms: C_4  and  C_6
REMARK    4  A    between atoms: C_12  and  C_13
REMARK    5  A    between atoms: C_16  and  O_17
REMARK    6  A    between atoms: O_17  and  C_18
REMARK    7  A    between atoms: C_24  and  S_25
REMARK                            x       y       z     vdW  Elec       q    Type
REMARK                         _______ _______ _______ _____ _____    ______ ____
ROOT
ATOM      1  C   UNL     1       1.253   4.396  19.409  0.00  0.00    +0.000 C 
ATOM      2  C   UNL     1       2.759   4.302  19.291  0.00  0.00    +0.000 C 
ATOM      3  C   UNL     1       3.621   5.220  18.768  0.00  0.00    +0.000 C 
ATOM      4  C   UNL     1       5.080   4.840  18.633  0.00  0.00    +0.000 C 
ATOM      5  N   UNL     1       5.413   3.657  19.389  0.00  0.00    +0.000 N 
ATOM      6  C   UNL     1       4.439   2.823  19.809  0.00  0.00    +0.000 C 
ATOM      7  N   UNL     1       3.177   3.068  19.776  0.00  0.00    +0.000 NA
ATOM      8  H   UNL     1       6.349   3.296  19.281  0.00  0.00    +0.000 HD
ENDROOT
BRANCH   4   9
ATOM      9  C   UNL     1       5.560   4.646  17.205  0.00  0.00    +0.000 A 
ATOM     10  C   UNL     1       6.775   5.221  16.799  0.00  0.00    +0.000 A 
ATOM     11  C   UNL     1       7.206   5.108  15.478  0.00  0.00    +0.000 A 
ATOM     12  C   UNL     1       6.455   4.396  14.543  0.00  0.00    +0.000 A 
ATOM     13  C   UNL     1       5.263   3.790  14.943  0.00  0.00    +0.000 A 
ATOM     14  C   UNL     1       4.830   3.898  16.267  0.00  0.00    +0.000 A 
BRANCH  12  15
ATOM     15  O   UNL     1       6.970   4.397  13.279  0.00  0.00    +0.000 OA
BRANCH  15  16
ATOM     16  C   UNL     1       6.505   3.369  12.419  0.00  0.00    +0.000 C 
ATOM     17  F   UNL     1       5.338   3.761  11.851  0.00  0.00    +0.000 F 
ATOM     18  F   UNL     1       7.408   3.258  11.412  0.00  0.00    +0.000 F 
ENDBRANCH  15  16
ENDBRANCH  12  15
ENDBRANCH   4   9
BRANCH   3  19
ATOM     19  C   UNL     1       3.154   6.580  18.270  0.00  0.00    +0.000 C 
ATOM     20  O   UNL     1       3.446   6.982  17.144  0.00  0.00    +0.000 OA
BRANCH  19  21
ATOM     21  C   UNL     1       2.360   7.555  19.085  0.00  0.00    +0.000 A 
ATOM     22  C   UNL     1       1.831   8.673  18.412  0.00  0.00    +0.000 A 
ATOM     23  C   UNL     1       1.035   9.612  19.077  0.00  0.00    +0.000 A 
ATOM     24  C   UNL     1       0.777   9.465  20.435  0.00  0.00    +0.000 A 
ATOM     25  C   UNL     1       1.267   8.353  21.109  0.00  0.00    +0.000 A 
ATOM     26  C   UNL     1       2.004   7.377  20.425  0.00  0.00    +0.000 A 
ENDBRANCH  19  21
ENDBRANCH   3  19
BRANCH   6  27
ATOM     27  S   UNL     1       4.971   1.297  20.465  0.00  0.00    +0.000 S 
ATOM     28  H   UNL     1       5.819   1.785  21.375  0.00  0.00    +0.000 HD
ENDBRANCH   6  27
TORSDOF 6
ENDMDL
MODEL 2
REMARK VINA RESULT:      -8.0      0.343      1.004
REMARK  Name = 
REMARK  7 active torsions:
REMARK  status: ('A' for Active; 'I' for Inactive)
REMARK    1  A    between atoms: C_1  and  C_2
REMARK    2  A    between atoms: C_3  and  C_4
REMARK    3  A    between atoms: C_4  and  C_6
REMARK    4  A    between atoms: C_12  and  C_13
REMARK    5  A    between atoms: C_16  and  O_17
REMARK    6  A    between atoms: O_17  and  C_18
REMARK    7  A    between atoms: C_24  and  S_25
REMARK                            x       y       z     vdW  Elec       q    Type
REMARK                         _______ _______ _______ _____ _____    ______ ____
ROOT
ATOM      1  C   UNL     1       1.262   4.595  19.093  0.00  0.00    +0.000 C 
ATOM      2  C   UNL     1       2.770   4.485  19.020  0.00  0.00    +0.000 C 
ATOM      3  C   UNL     1       3.658   5.404  18.544  0.00  0.00    +0.000 C 
ATOM      4  C   UNL     1       5.116   5.009  18.446  0.00  0.00    +0.000 C 
ATOM      5  N   UNL     1       5.412   3.806  19.186  0.00  0.00    +0.000 N 
ATOM      6  C   UNL     1       4.415   2.975  19.556  0.00  0.00    +0.000 C 
ATOM      7  N   UNL     1       3.158   3.236  19.490  0.00  0.00    +0.000 NA
ATOM      8  H   UNL     1       6.347   3.436  19.099  0.00  0.00    +0.000 HD
ENDROOT
BRANCH   4   9
ATOM      9  C   UNL     1       5.639   4.841  17.030  0.00  0.00    +0.000 A 
ATOM     10  C   UNL     1       4.858   4.164  16.080  0.00  0.00    +0.000 A 
ATOM     11  C   UNL     1       5.343   3.943  14.792  0.00  0.00    +0.000 A 
ATOM     12  C   UNL     1       6.599   4.417  14.413  0.00  0.00    +0.000 A 
ATOM     13  C   UNL     1       7.370   5.122  15.338  0.00  0.00    +0.000 A 
ATOM     14  C   UNL     1       6.886   5.347  16.629  0.00  0.00    +0.000 A 
BRANCH  12  15
ATOM     15  O   UNL     1       6.967   4.099  13.138  0.00  0.00    +0.000 OA
BRANCH  15  16
ATOM     16  C   UNL     1       6.140   3.162  12.469  0.00  0.00    +0.000 C 
ATOM     17  F   UNL     1       5.220   3.830  11.730  0.00  0.00    +0.000 F 
ATOM     18  F   UNL     1       6.930   2.492  11.592  0.00  0.00    +0.000 F 
ENDBRANCH  15  16
ENDBRANCH  12  15
ENDBRANCH   4   9
BRANCH   3  19
ATOM     19  C   UNL     1       3.223   6.780  18.062  0.00  0.00    +0.000 C 
ATOM     20  O   UNL     1       3.597   7.224  16.977  0.00  0.00    +0.000 OA
BRANCH  19  21
ATOM     21  C   UNL     1       2.365   7.722  18.851  0.00  0.00    +0.000 A 
ATOM     22  C   UNL     1       1.741   8.767  18.142  0.00  0.00    +0.000 A 
ATOM     23  C   UNL     1       0.881   9.667  18.781  0.00  0.00    +0.000 A 
ATOM     24  C   UNL     1       0.653   9.556  20.148  0.00  0.00    +0.000 A 
ATOM     25  C   UNL     1       1.238   8.514  20.859  0.00  0.00    +0.000 A 
ATOM     26  C   UNL     1       2.041   7.572  20.202  0.00  0.00    +0.000 A 
ENDBRANCH  19  21
ENDBRANCH   3  19
BRANCH   6  27
ATOM     27  S   UNL     1       4.909   1.429  20.195  0.00  0.00    +0.000 S 
ATOM     28  H   UNL     1       6.226   1.654  20.200  0.00  0.00    +0.000 HD
ENDBRANCH   6  27
TORSDOF 6
ENDMDL
MODEL 3
REMARK VINA RESULT:      -7.7      4.477      6.881
REMARK  Name = 
REMARK  7 active torsions:
REMARK  status: ('A' for Active; 'I' for Inactive)
REMARK    1  A    between atoms: C_1  and  C_2
REMARK    2  A    between atoms: C_3  and  C_4
REMARK    3  A    between atoms: C_4  and  C_6
REMARK    4  A    between atoms: C_12  and  C_13
REMARK    5  A    between atoms: C_16  and  O_17
REMARK    6  A    between atoms: O_17  and  C_18
REMARK    7  A    between atoms: C_24  and  S_25
REMARK                            x       y       z     vdW  Elec       q    Type
REMARK                         _______ _______ _______ _____ _____    ______ ____
ROOT
ATOM      1  C   UNL     1       5.092   4.022  15.252  0.00  0.00    +0.000 C 
ATOM      2  C   UNL     1       5.138   4.856  16.514  0.00  0.00    +0.000 C 
ATOM      3  C   UNL     1       4.289   4.816  17.580  0.00  0.00    +0.000 C 
ATOM      4  C   UNL     1       4.457   5.851  18.672  0.00  0.00    +0.000 C 
ATOM      5  N   UNL     1       5.720   6.544  18.583  0.00  0.00    +0.000 N 
ATOM      6  C   UNL     1       6.430   6.516  17.436  0.00  0.00    +0.000 C 
ATOM      7  N   UNL     1       6.196   5.754  16.428  0.00  0.00    +0.000 NA
ATOM      8  H   UNL     1       5.868   7.306  19.228  0.00  0.00    +0.000 HD
ENDROOT
BRANCH   4   9
ATOM      9  C   UNL     1       3.348   6.886  18.749  0.00  0.00    +0.000 A 
ATOM     10  C   UNL     1       3.115   7.733  17.655  0.00  0.00    +0.000 A 
ATOM     11  C   UNL     1       2.144   8.731  17.726  0.00  0.00    +0.000 A 
ATOM     12  C   UNL     1       1.365   8.886  18.872  0.00  0.00    +0.000 A 
ATOM     13  C   UNL     1       1.563   8.026  19.953  0.00  0.00    +0.000 A 
ATOM     14  C   UNL     1       2.533   7.023  19.884  0.00  0.00    +0.000 A 
BRANCH  12  15
ATOM     15  O   UNL     1       0.480   9.924  18.823  0.00  0.00    +0.000 OA
BRANCH  15  16
ATOM     16  C   UNL     1       0.333  10.670  20.021  0.00  0.00    +0.000 C 
ATOM     17  F   UNL     1       0.077  11.964  19.708  0.00  0.00    +0.000 F 
ATOM     18  F   UNL     1      -0.774  10.196  20.648  0.00  0.00    +0.000 F 
ENDBRANCH  15  16
ENDBRANCH  12  15
ENDBRANCH   4   9
BRANCH   3  19
ATOM     19  C   UNL     1       3.153   3.807  17.675  0.00  0.00    +0.000 C 
ATOM     20  O   UNL     1       2.675   3.288  16.667  0.00  0.00    +0.000 OA
BRANCH  19  21
ATOM     21  C   UNL     1       2.492   3.394  18.954  0.00  0.00    +0.000 A 
ATOM     22  C   UNL     1       3.321   2.870  19.965  0.00  0.00    +0.000 A 
ATOM     23  C   UNL     1       2.804   2.503  21.212  0.00  0.00    +0.000 A 
ATOM     24  C   UNL     1       1.442   2.627  21.462  0.00  0.00    +0.000 A 
ATOM     25  C   UNL     1       0.613   3.168  20.487  0.00  0.00    +0.000 A 
ATOM     26  C   UNL     1       1.145   3.601  19.265  0.00  0.00    +0.000 A 
ENDBRANCH  19  21
ENDBRANCH   3  19
BRANCH   6  27
ATOM     27  S   UNL     1       7.789   7.607  17.354  0.00  0.00    +0.000 S 
ATOM     28  H   UNL     1       7.218   8.644  17.974  0.00  0.00    +0.000 HD
ENDBRANCH   6  27
TORSDOF 6
ENDMDL
MODEL 4
REMARK VINA RESULT:      -7.6      4.088      6.701
REMARK  Name = 
REMARK  7 active torsions:
REMARK  status: ('A' for Active; 'I' for Inactive)
REMARK    1  A    between atoms: C_1  and  C_2
REMARK    2  A    between atoms: C_3  and  C_4
REMARK    3  A    between atoms: C_4  and  C_6
REMARK    4  A    between atoms: C_12  and  C_13
REMARK    5  A    between atoms: C_16  and  O_17
REMARK    6  A    between atoms: O_17  and  C_18
REMARK    7  A    between atoms: C_24  and  S_25
REMARK                            x       y       z     vdW  Elec       q    Type
REMARK                         _______ _______ _______ _____ _____    ______ ____
ROOT
ATOM      1  C   UNL     1       4.934   4.096  15.164  0.00  0.00    +0.000 C 
ATOM      2  C   UNL     1       5.041   4.889  16.448  0.00  0.00    +0.000 C 
ATOM      3  C   UNL     1       4.234   4.826  17.545  0.00  0.00    +0.000 C 
ATOM      4  C   UNL     1       4.461   5.824  18.661  0.00  0.00    +0.000 C 
ATOM      5  N   UNL     1       5.729   6.502  18.544  0.00  0.00    +0.000 N 
ATOM      6  C   UNL     1       6.393   6.501  17.369  0.00  0.00    +0.000 C 
ATOM      7  N   UNL     1       6.108   5.774  16.348  0.00  0.00    +0.000 NA
ATOM      8  H   UNL     1       5.913   7.242  19.206  0.00  0.00    +0.000 HD
ENDROOT
BRANCH   4   9
ATOM      9  C   UNL     1       3.371   6.871  18.814  0.00  0.00    +0.000 A 
ATOM     10  C   UNL     1       2.631   6.931  20.005  0.00  0.00    +0.000 A 
ATOM     11  C   UNL     1       1.585   7.842  20.145  0.00  0.00    +0.000 A 
ATOM     12  C   UNL     1       1.274   8.731  19.117  0.00  0.00    +0.000 A 
ATOM     13  C   UNL     1       2.026   8.706  17.942  0.00  0.00    +0.000 A 
ATOM     14  C   UNL     1       3.076   7.796  17.800  0.00  0.00    +0.000 A 
BRANCH  12  15
ATOM     15  O   UNL     1       0.205   9.541  19.369  0.00  0.00    +0.000 OA
BRANCH  15  16
ATOM     16  C   UNL     1      -0.186  10.399  18.310  0.00  0.00    +0.000 C 
ATOM     17  F   UNL     1      -1.168   9.800  17.593  0.00  0.00    +0.000 F 
ATOM     18  F   UNL     1      -0.737  11.502  18.877  0.00  0.00    +0.000 F 
ENDBRANCH  15  16
ENDBRANCH  12  15
ENDBRANCH   4   9
BRANCH   3  19
ATOM     19  C   UNL     1       3.089   3.830  17.654  0.00  0.00    +0.000 C 
ATOM     20  O   UNL     1       2.584   3.326  16.652  0.00  0.00    +0.000 OA
BRANCH  19  21
ATOM     21  C   UNL     1       2.448   3.414  18.943  0.00  0.00    +0.000 A 
ATOM     22  C   UNL     1       3.294   2.887  19.938  0.00  0.00    +0.000 A 
ATOM     23  C   UNL     1       2.798   2.516  21.193  0.00  0.00    +0.000 A 
ATOM     24  C   UNL     1       1.440   2.639  21.465  0.00  0.00    +0.000 A 
ATOM     25  C   UNL     1       0.595   3.183  20.505  0.00  0.00    +0.000 A 
ATOM     26  C   UNL     1       1.107   3.619  19.276  0.00  0.00    +0.000 A 
ENDBRANCH  19  21
ENDBRANCH   3  19
BRANCH   6  27
ATOM     27  S   UNL     1       7.764   7.576  17.266  0.00  0.00    +0.000 S 
ATOM     28  H   UNL     1       8.480   7.041  18.260  0.00  0.00    +0.000 HD
ENDBRANCH   6  27
TORSDOF 6
ENDMDL
MODEL 5
REMARK VINA RESULT:      -7.6      0.540      1.121
REMARK  Name = 
REMARK  7 active torsions:
REMARK  status: ('A' for Active; 'I' for Inactive)
REMARK    1  A    between atoms: C_1  and  C_2
REMARK    2  A    between atoms: C_3  and  C_4
REMARK    3  A    between atoms: C_4  and  C_6
REMARK    4  A    between atoms: C_12  and  C_13
REMARK    5  A    between atoms: C_16  and  O_17
REMARK    6  A    between atoms: O_17  and  C_18
REMARK    7  A    between atoms: C_24  and  S_25
REMARK                            x       y       z     vdW  Elec       q    Type
REMARK                         _______ _______ _______ _____ _____    ______ ____
ROOT
ATOM      1  C   UNL     1       1.241   4.515  18.935  0.00  0.00    +0.000 C 
ATOM      2  C   UNL     1       2.751   4.414  18.959  0.00  0.00    +0.000 C 
ATOM      3  C   UNL     1       3.663   5.338  18.545  0.00  0.00    +0.000 C 
ATOM      4  C   UNL     1       5.126   4.952  18.540  0.00  0.00    +0.000 C 
ATOM      5  N   UNL     1       5.380   3.748  19.295  0.00  0.00    +0.000 N 
ATOM      6  C   UNL     1       4.366   2.911  19.598  0.00  0.00    +0.000 C 
ATOM      7  N   UNL     1       3.114   3.165  19.450  0.00  0.00    +0.000 NA
ATOM      8  H   UNL     1       6.320   3.383  19.268  0.00  0.00    +0.000 HD
ENDROOT
BRANCH   4   9
ATOM      9  C   UNL     1       5.740   4.789  17.160  0.00  0.00    +0.000 A 
ATOM     10  C   UNL     1       7.041   5.260  16.922  0.00  0.00    +0.000 A 
ATOM     11  C   UNL     1       7.602   5.178  15.649  0.00  0.00    +0.000 A 
ATOM     12  C   UNL     1       6.895   4.599  14.595  0.00  0.00    +0.000 A 
ATOM     13  C   UNL     1       5.615   4.095  14.828  0.00  0.00    +0.000 A 
ATOM     14  C   UNL     1       5.051   4.173  16.103  0.00  0.00    +0.000 A 
BRANCH  12  15
ATOM     15  O   UNL     1       7.544   4.618  13.395  0.00  0.00    +0.000 OA
BRANCH  15  16
ATOM     16  C   UNL     1       6.768   4.255  12.265  0.00  0.00    +0.000 C 
ATOM     17  F   UNL     1       7.275   4.865  11.165  0.00  0.00    +0.000 F 
ATOM     18  F   UNL     1       6.937   2.921  12.081  0.00  0.00    +0.000 F 
ENDBRANCH  15  16
ENDBRANCH  12  15
ENDBRANCH   4   9
BRANCH   3  19
ATOM     19  C   UNL     1       3.251   6.713  18.038  0.00  0.00    +0.000 C 
ATOM     20  O   UNL     1       3.691   7.161  16.980  0.00  0.00    +0.000 OA
BRANCH  19  21
ATOM     21  C   UNL     1       2.341   7.649  18.773  0.00  0.00    +0.000 A 
ATOM     22  C   UNL     1       2.161   7.419  20.150  0.00  0.00    +0.000 A 
ATOM     23  C   UNL     1       1.369   8.269  20.932  0.00  0.00    +0.000 A 
ATOM     24  C   UNL     1       0.720   9.348  20.343  0.00  0.00    +0.000 A 
ATOM     25  C   UNL     1       0.909   9.607  18.991  0.00  0.00    +0.000 A 
ATOM     26  C   UNL     1       1.759   8.796  18.226  0.00  0.00    +0.000 A 
ENDBRANCH  19  21
ENDBRANCH   3  19
BRANCH   6  27
ATOM     27  S   UNL     1       4.826   1.365  20.263  0.00  0.00    +0.000 S 
ATOM     28  H   UNL     1       4.188   0.597  19.375  0.00  0.00    +0.000 HD
ENDBRANCH   6  27
TORSDOF 6
ENDMDL
MODEL 6
REMARK VINA RESULT:      -7.6      4.375      5.455
REMARK  Name = 
REMARK  7 active torsions:
REMARK  status: ('A' for Active; 'I' for Inactive)
REMARK    1  A    between atoms: C_1  and  C_2
REMARK    2  A    between atoms: C_3  and  C_4
REMARK    3  A    between atoms: C_4  and  C_6
REMARK    4  A    between atoms: C_12  and  C_13
REMARK    5  A    between atoms: C_16  and  O_17
REMARK    6  A    between atoms: O_17  and  C_18
REMARK    7  A    between atoms: C_24  and  S_25
REMARK                            x       y       z     vdW  Elec       q    Type
REMARK                         _______ _______ _______ _____ _____    ______ ____
ROOT
ATOM      1  C   UNL     1       2.998   3.687  16.631  0.00  0.00    +0.000 C 
ATOM      2  C   UNL     1       4.489   3.940  16.574  0.00  0.00    +0.000 C 
ATOM      3  C   UNL     1       5.347   4.153  17.611  0.00  0.00    +0.000 C 
ATOM      4  C   UNL     1       6.780   4.523  17.295  0.00  0.00    +0.000 C 
ATOM      5  N   UNL     1       7.120   4.276  15.914  0.00  0.00    +0.000 N 
ATOM      6  C   UNL     1       6.146   4.120  14.993  0.00  0.00    +0.000 C 
ATOM      7  N   UNL     1       4.894   3.970  15.244  0.00  0.00    +0.000 NA
ATOM      8  H   UNL     1       8.034   4.576  15.609  0.00  0.00    +0.000 HD
ENDROOT
BRANCH   4   9
ATOM      9  C   UNL     1       7.161   5.954  17.632  0.00  0.00    +0.000 A 
ATOM     10  C   UNL     1       6.605   7.011  16.894  0.00  0.00    +0.000 A 
ATOM     11  C   UNL     1       6.986   8.328  17.145  0.00  0.00    +0.000 A 
ATOM     12  C   UNL     1       7.903   8.624  18.153  0.00  0.00    +0.000 A 
ATOM     13  C   UNL     1       8.435   7.585  18.918  0.00  0.00    +0.000 A 
ATOM     14  C   UNL     1       8.053   6.265  18.671  0.00  0.00    +0.000 A 
BRANCH  12  15
ATOM     15  O   UNL     1       8.217   9.947  18.267  0.00  0.00    +0.000 OA
BRANCH  15  16
ATOM     16  C   UNL     1       9.546  10.236  18.671  0.00  0.00    +0.000 C 
ATOM     17  F   UNL     1       9.898  11.456  18.197  0.00  0.00    +0.000 F 
ATOM     18  F   UNL     1       9.535  10.335  20.025  0.00  0.00    +0.000 F 
ENDBRANCH  15  16
ENDBRANCH  12  15
ENDBRANCH   4   9
BRANCH   3  19
ATOM     19  C   UNL     1       4.896   4.087  19.064  0.00  0.00    +0.000 C 
ATOM     20  O   UNL     1       5.461   3.352  19.874  0.00  0.00    +0.000 OA
BRANCH  19  21
ATOM     21  C   UNL     1       3.731   4.843  19.625  0.00  0.00    +0.000 A 
ATOM     22  C   UNL     1       3.611   6.198  19.262  0.00  0.00    +0.000 A 
ATOM     23  C   UNL     1       2.530   6.974  19.695  0.00  0.00    +0.000 A 
ATOM     24  C   UNL     1       1.563   6.415  20.522  0.00  0.00    +0.000 A 
ATOM     25  C   UNL     1       1.649   5.072  20.868  0.00  0.00    +0.000 A 
ATOM     26  C   UNL     1       2.695   4.279  20.375  0.00  0.00    +0.000 A 
ENDBRANCH  19  21
ENDBRANCH   3  19
BRANCH   6  27
ATOM     27  S   UNL     1       6.666   4.105  13.328  0.00  0.00    +0.000 S 
ATOM     28  H   UNL     1       7.981   4.173  13.555  0.00  0.00    +0.000 HD
ENDBRANCH   6  27
TORSDOF 6
ENDMDL
MODEL 7
REMARK VINA RESULT:      -7.6      4.539      5.889
REMARK  Name = 
REMARK  7 active torsions:
REMARK  status: ('A' for Active; 'I' for Inactive)
REMARK    1  A    between atoms: C_1  and  C_2
REMARK    2  A    between atoms: C_3  and  C_4
REMARK    3  A    between atoms: C_4  and  C_6
REMARK    4  A    between atoms: C_12  and  C_13
REMARK    5  A    between atoms: C_16  and  O_17
REMARK    6  A    between atoms: O_17  and  C_18
REMARK    7  A    between atoms: C_24  and  S_25
REMARK                            x       y       z     vdW  Elec       q    Type
REMARK                         _______ _______ _______ _____ _____    ______ ____
ROOT
ATOM      1  C   UNL     1       3.078   3.869  16.848  0.00  0.00    +0.000 C 
ATOM      2  C   UNL     1       4.572   4.094  16.751  0.00  0.00    +0.000 C 
ATOM      3  C   UNL     1       5.459   4.295  17.766  0.00  0.00    +0.000 C 
ATOM      4  C   UNL     1       6.891   4.637  17.411  0.00  0.00    +0.000 C 
ATOM      5  N   UNL     1       7.190   4.378  16.023  0.00  0.00    +0.000 N 
ATOM      6  C   UNL     1       6.191   4.237  15.128  0.00  0.00    +0.000 C 
ATOM      7  N   UNL     1       4.943   4.111  15.412  0.00  0.00    +0.000 NA
ATOM      8  H   UNL     1       8.102   4.660  15.693  0.00  0.00    +0.000 HD
ENDROOT
BRANCH   4   9
ATOM      9  C   UNL     1       7.307   6.062  17.733  0.00  0.00    +0.000 A 
ATOM     10  C   UNL     1       6.804   7.121  16.961  0.00  0.00    +0.000 A 
ATOM     11  C   UNL     1       7.219   8.430  17.198  0.00  0.00    +0.000 A 
ATOM     12  C   UNL     1       8.117   8.717  18.226  0.00  0.00    +0.000 A 
ATOM     13  C   UNL     1       8.597   7.677  19.023  0.00  0.00    +0.000 A 
ATOM     14  C   UNL     1       8.180   6.364  18.790  0.00  0.00    +0.000 A 
BRANCH  12  15
ATOM     15  O   UNL     1       8.470  10.031  18.324  0.00  0.00    +0.000 OA
BRANCH  15  16
ATOM     16  C   UNL     1       9.527  10.325  19.223  0.00  0.00    +0.000 C 
ATOM     17  F   UNL     1      10.319  11.281  18.680  0.00  0.00    +0.000 F 
ATOM     18  F   UNL     1       8.964  10.870  20.331  0.00  0.00    +0.000 F 
ENDBRANCH  15  16
ENDBRANCH  12  15
ENDBRANCH   4   9
BRANCH   3  19
ATOM     19  C   UNL     1       5.045   4.242  19.229  0.00  0.00    +0.000 C 
ATOM     20  O   UNL     1       5.881   4.286  20.131  0.00  0.00    +0.000 OA
BRANCH  19  21
ATOM     21  C   UNL     1       3.633   4.087  19.705  0.00  0.00    +0.000 A 
ATOM     22  C   UNL     1       3.156   2.774  19.881  0.00  0.00    +0.000 A 
ATOM     23  C   UNL     1       1.868   2.527  20.369  0.00  0.00    +0.000 A 
ATOM     24  C   UNL     1       1.023   3.591  20.663  0.00  0.00    +0.000 A 
ATOM     25  C   UNL     1       1.485   4.894  20.522  0.00  0.00    +0.000 A 
ATOM     26  C   UNL     1       2.800   5.137  20.101  0.00  0.00    +0.000 A 
ENDBRANCH  19  21
ENDBRANCH   3  19
BRANCH   6  27
ATOM     27  S   UNL     1       6.667   4.207  13.450  0.00  0.00    +0.000 S 
ATOM     28  H   UNL     1       7.890   4.722  13.607  0.00  0.00    +0.000 HD
ENDBRANCH   6  27
TORSDOF 6
ENDMDL
MODEL 8
REMARK VINA RESULT:      -7.6      3.883      7.303
REMARK  Name = 
REMARK  7 active torsions:
REMARK  status: ('A' for Active; 'I' for Inactive)
REMARK    1  A    between atoms: C_1  and  C_2
REMARK    2  A    between atoms: C_3  and  C_4
REMARK    3  A    between atoms: C_4  and  C_6
REMARK    4  A    between atoms: C_12  and  C_13
REMARK    5  A    between atoms: C_16  and  O_17
REMARK    6  A    between atoms: O_17  and  C_18
REMARK    7  A    between atoms: C_24  and  S_25
REMARK                            x       y       z     vdW  Elec       q    Type
REMARK                         _______ _______ _______ _____ _____    ______ ____
ROOT
ATOM      1  C   UNL     1       7.570   4.448  18.011  0.00  0.00    +0.000 C 
ATOM      2  C   UNL     1       6.059   4.412  18.087  0.00  0.00    +0.000 C 
ATOM      3  C   UNL     1       5.161   5.017  17.259  0.00  0.00    +0.000 C 
ATOM      4  C   UNL     1       3.693   4.950  17.621  0.00  0.00    +0.000 C 
ATOM      5  N   UNL     1       3.420   3.961  18.636  0.00  0.00    +0.000 N 
ATOM      6  C   UNL     1       4.422   3.483  19.404  0.00  0.00    +0.000 C 
ATOM      7  N   UNL     1       5.678   3.673  19.201  0.00  0.00    +0.000 NA
ATOM      8  H   UNL     1       2.475   3.917  18.988  0.00  0.00    +0.000 HD
ENDROOT
BRANCH   4   9
ATOM      9  C   UNL     1       3.081   6.269  18.061  0.00  0.00    +0.000 A 
ATOM     10  C   UNL     1       2.673   6.432  19.394  0.00  0.00    +0.000 A 
ATOM     11  C   UNL     1       2.054   7.611  19.806  0.00  0.00    +0.000 A 
ATOM     12  C   UNL     1       1.856   8.662  18.910  0.00  0.00    +0.000 A 
ATOM     13  C   UNL     1       2.289   8.525  17.591  0.00  0.00    +0.000 A 
ATOM     14  C   UNL     1       2.913   7.346  17.176  0.00  0.00    +0.000 A 
BRANCH  12  15
ATOM     15  O   UNL     1       1.204   9.740  19.433  0.00  0.00    +0.000 OA
BRANCH  15  16
ATOM     16  C   UNL     1       0.750   9.603  20.770  0.00  0.00    +0.000 C 
ATOM     17  F   UNL     1       1.055  10.729  21.460  0.00  0.00    +0.000 F 
ATOM     18  F   UNL     1      -0.605   9.533  20.722  0.00  0.00    +0.000 F 
ENDBRANCH  15  16
ENDBRANCH  12  15
ENDBRANCH   4   9
BRANCH   3  19
ATOM     19  C   UNL     1       5.592   5.797  16.025  0.00  0.00    +0.000 C 
ATOM     20  O   UNL     1       5.611   7.027  16.023  0.00  0.00    +0.000 OA
BRANCH  19  21
ATOM     21  C   UNL     1       5.976   5.172  14.719  0.00  0.00    +0.000 A 
ATOM     22  C   UNL     1       7.236   5.513  14.191  0.00  0.00    +0.000 A 
ATOM     23  C   UNL     1       7.704   4.943  13.002  0.00  0.00    +0.000 A 
ATOM     24  C   UNL     1       6.908   4.043  12.304  0.00  0.00    +0.000 A 
ATOM     25  C   UNL     1       5.673   3.673  12.824  0.00  0.00    +0.000 A 
ATOM     26  C   UNL     1       5.238   4.191  14.051  0.00  0.00    +0.000 A 
ENDBRANCH  19  21
ENDBRANCH   3  19
BRANCH   6  27
ATOM     27  S   UNL     1       3.940   2.513  20.770  0.00  0.00    +0.000 S 
ATOM     28  H   UNL     1       2.621   2.695  20.657  0.00  0.00    +0.000 HD
ENDBRANCH   6  27
TORSDOF 6
ENDMDL
MODEL 9
REMARK VINA RESULT:      -7.6      4.322      6.821
REMARK  Name = 
REMARK  7 active torsions:
REMARK  status: ('A' for Active; 'I' for Inactive)
REMARK    1  A    between atoms: C_1  and  C_2
REMARK    2  A    between atoms: C_3  and  C_4
REMARK    3  A    between atoms: C_4  and  C_6
REMARK    4  A    between atoms: C_12  and  C_13
REMARK    5  A    between atoms: C_16  and  O_17
REMARK    6  A    between atoms: O_17  and  C_18
REMARK    7  A    between atoms: C_24  and  S_25
REMARK                            x       y       z     vdW  Elec       q    Type
REMARK                         _______ _______ _______ _____ _____    ______ ____
ROOT
ATOM      1  C   UNL     1       5.027   4.039  15.358  0.00  0.00    +0.000 C 
ATOM      2  C   UNL     1       5.088   4.927  16.582  0.00  0.00    +0.000 C 
ATOM      3  C   UNL     1       4.253   4.932  17.660  0.00  0.00    +0.000 C 
ATOM      4  C   UNL     1       4.435   6.013  18.703  0.00  0.00    +0.000 C 
ATOM      5  N   UNL     1       5.695   6.703  18.568  0.00  0.00    +0.000 N 
ATOM      6  C   UNL     1       6.391   6.626  17.414  0.00  0.00    +0.000 C 
ATOM      7  N   UNL     1       6.144   5.820  16.443  0.00  0.00    +0.000 NA
ATOM      8  H   UNL     1       5.851   7.492  19.178  0.00  0.00    +0.000 HD
ENDROOT
BRANCH   4   9
ATOM      9  C   UNL     1       3.325   7.049  18.750  0.00  0.00    +0.000 A 
ATOM     10  C   UNL     1       3.152   7.928  17.669  0.00  0.00    +0.000 A 
ATOM     11  C   UNL     1       2.181   8.926  17.716  0.00  0.00    +0.000 A 
ATOM     12  C   UNL     1       1.343   9.053  18.824  0.00  0.00    +0.000 A 
ATOM     13  C   UNL     1       1.482   8.163  19.890  0.00  0.00    +0.000 A 
ATOM     14  C   UNL     1       2.452   7.159  19.844  0.00  0.00    +0.000 A 
BRANCH  12  15
ATOM     15  O   UNL     1       0.464  10.095  18.757  0.00  0.00    +0.000 OA
BRANCH  15  16
ATOM     16  C   UNL     1      -0.723   9.954  19.520  0.00  0.00    +0.000 C 
ATOM     17  F   UNL     1      -0.945  11.100  20.210  0.00  0.00    +0.000 F 
ATOM     18  F   UNL     1      -1.747   9.828  18.639  0.00  0.00    +0.000 F 
ENDBRANCH  15  16
ENDBRANCH  12  15
ENDBRANCH   4   9
BRANCH   3  19
ATOM     19  C   UNL     1       3.120   3.927  17.814  0.00  0.00    +0.000 C 
ATOM     20  O   UNL     1       2.557   3.446  16.832  0.00  0.00    +0.000 OA
BRANCH  19  21
ATOM     21  C   UNL     1       2.562   3.475  19.128  0.00  0.00    +0.000 A 
ATOM     22  C   UNL     1       1.171   3.592  19.309  0.00  0.00    +0.000 A 
ATOM     23  C   UNL     1       0.550   3.150  20.482  0.00  0.00    +0.000 A 
ATOM     24  C   UNL     1       1.314   2.608  21.509  0.00  0.00    +0.000 A 
ATOM     25  C   UNL     1       2.685   2.458  21.338  0.00  0.00    +0.000 A 
ATOM     26  C   UNL     1       3.294   2.836  20.133  0.00  0.00    +0.000 A 
ENDBRANCH  19  21
ENDBRANCH   3  19
BRANCH   6  27
ATOM     27  S   UNL     1       7.746   7.713  17.266  0.00  0.00    +0.000 S 
ATOM     28  H   UNL     1       8.311   7.143  16.198  0.00  0.00    +0.000 HD
ENDBRANCH   6  27
TORSDOF 6
ENDMDL
