MODEL 1
REMARK VINA RESULT:      -7.3      0.000      0.000
REMARK  Name = 
REMARK  17 active torsions:
REMARK  status: ('A' for Active; 'I' for Inactive)
REMARK    1  A    between atoms: C_1  and  C_2
REMARK    2  A    between atoms: C_2  and  C_3
REMARK    3  A    between atoms: C_3  and  C_4
REMARK    4  A    between atoms: C_4  and  C_5
REMARK    5  A    between atoms: C_5  and  C_6
REMARK    6  A    between atoms: C_8  and  O_9
REMARK    7  A    between atoms: C_10  and  C_11
REMARK    8  A    between atoms: C_11  and  C_12
REMARK    9  A    between atoms: C_13  and  C_14
REMARK   10  A    between atoms: C_13  and  C_15
REMARK   11  A    between atoms: C_15  and  C_16
REMARK   12  A    between atoms: C_16  and  C_17
REMARK   13  A    between atoms: C_18  and  C_19
REMARK   14  A    between atoms: C_18  and  C_20
REMARK   15  A    between atoms: C_21  and  O_22
REMARK   16  A    between atoms: C_23  and  C_24
REMARK   17  A    between atoms: C_24  and  O_26
REMARK                            x       y       z     vdW  Elec       q    Type
REMARK                         _______ _______ _______ _____ _____    ______ ____
ROOT
ATOM      1  C   UNL     1       3.221   5.232  17.859  0.00  0.00    +0.000 A 
ATOM      2  C   UNL     1       3.952   6.350  17.417  0.00  0.00    +0.000 A 
ATOM      3  C   UNL     1       5.074   6.203  16.599  0.00  0.00    +0.000 A 
ATOM      4  C   UNL     1       5.533   4.942  16.209  0.00  0.00    +0.000 A 
ATOM      5  C   UNL     1       4.819   3.819  16.668  0.00  0.00    +0.000 A 
ATOM      6  C   UNL     1       3.667   3.944  17.481  0.00  0.00    +0.000 A 
ENDROOT
BRANCH   3   7
ATOM      7  O   UNL     1       5.742   7.310  16.169  0.00  0.00    +0.000 OA
ATOM      8  H   UNL     1       5.485   8.077  16.707  0.00  0.00    +0.000 HD
ENDBRANCH   3   7
BRANCH   5   9
ATOM      9  O   UNL     1       5.253   2.549  16.351  0.00  0.00    +0.000 OA
ATOM     10  H   UNL     1       5.930   2.280  16.999  0.00  0.00    +0.000 HD
ENDBRANCH   5   9
BRANCH   6  11
ATOM     11  C   UNL     1       2.903   2.722  17.879  0.00  0.00    +0.000 C 
ATOM     12  O   UNL     1       1.758   2.492  17.528  0.00  0.00    +0.000 OA
BRANCH  11  13
ATOM     13  O   UNL     1       3.573   1.905  18.724  0.00  0.00    +0.000 OA
ATOM     14  H   UNL     1       4.546   2.006  18.628  0.00  0.00    +0.000 HD
ENDBRANCH  11  13
ENDBRANCH   6  11
BRANCH   1  15
ATOM     15  C   UNL     1       1.984   5.504  18.696  0.00  0.00    +0.000 C 
BRANCH  15  16
ATOM     16  C   UNL     1       2.213   6.100  20.090  0.00  0.00    +0.000 C 
BRANCH  16  17
ATOM     17  C   UNL     1       2.029   5.087  21.220  0.00  0.00    +0.000 C 
BRANCH  17  19
ATOM     18  C   UNL     1       1.590   2.624  21.461  0.00  0.00    +0.000 C 
ATOM     19  C   UNL     1       1.175   3.906  20.758  0.00  0.00    +0.000 C 
ENDBRANCH  17  19
ENDBRANCH  16  17
ENDBRANCH  15  16
ENDBRANCH   1  15
BRANCH   4  20
ATOM     20  C   UNL     1       6.751   4.827  15.316  0.00  0.00    +0.000 C 
BRANCH  20  21
ATOM     21  C   UNL     1       6.509   3.980  14.089  0.00  0.00    +0.000 C 
ATOM     22  C   UNL     1       6.953   4.195  12.831  0.00  0.00    +0.000 C 
ATOM     23  C   UNL     1       7.840   5.352  12.448  0.00  0.00    +0.000 C 
BRANCH  22  24
ATOM     24  C   UNL     1       6.477   3.265  11.709  0.00  0.00    +0.000 C 
BRANCH  24  25
ATOM     25  C   UNL     1       4.957   3.029  11.650  0.00  0.00    +0.000 C 
BRANCH  25  26
ATOM     26  C   UNL     1       4.184   4.039  10.844  0.00  0.00    +0.000 C 
ATOM     27  C   UNL     1       3.173   3.715  10.011  0.00  0.00    +0.000 C 
ATOM     28  C   UNL     1       2.686   2.306   9.785  0.00  0.00    +0.000 C 
ATOM     29  C   UNL     1       2.433   4.760   9.223  0.00  0.00    +0.000 C 
ENDBRANCH  25  26
ENDBRANCH  24  25
ENDBRANCH  22  24
ENDBRANCH  20  21
ENDBRANCH   4  20
TORSDOF 13
ENDMDL
MODEL 2
REMARK VINA RESULT:      -7.2      1.927      2.760
REMARK  Name = 
REMARK  17 active torsions:
REMARK  status: ('A' for Active; 'I' for Inactive)
REMARK    1  A    between atoms: C_1  and  C_2
REMARK    2  A    between atoms: C_2  and  C_3
REMARK    3  A    between atoms: C_3  and  C_4
REMARK    4  A    between atoms: C_4  and  C_5
REMARK    5  A    between atoms: C_5  and  C_6
REMARK    6  A    between atoms: C_8  and  O_9
REMARK    7  A    between atoms: C_10  and  C_11
REMARK    8  A    between atoms: C_11  and  C_12
REMARK    9  A    between atoms: C_13  and  C_14
REMARK   10  A    between atoms: C_13  and  C_15
REMARK   11  A    between atoms: C_15  and  C_16
REMARK   12  A    between atoms: C_16  and  C_17
REMARK   13  A    between atoms: C_18  and  C_19
REMARK   14  A    between atoms: C_18  and  C_20
REMARK   15  A    between atoms: C_21  and  O_22
REMARK   16  A    between atoms: C_23  and  C_24
REMARK   17  A    between atoms: C_24  and  O_26
REMARK                            x       y       z     vdW  Elec       q    Type
REMARK                         _______ _______ _______ _____ _____    ______ ____
ROOT
ATOM      1  C   UNL     1       3.272   6.414  17.826  0.00  0.00    +0.000 A 
ATOM      2  C   UNL     1       4.418   7.028  17.287  0.00  0.00    +0.000 A 
ATOM      3  C   UNL     1       5.443   6.271  16.717  0.00  0.00    +0.000 A 
ATOM      4  C   UNL     1       5.388   4.875  16.681  0.00  0.00    +0.000 A 
ATOM      5  C   UNL     1       4.254   4.255  17.238  0.00  0.00    +0.000 A 
ATOM      6  C   UNL     1       3.193   5.001  17.804  0.00  0.00    +0.000 A 
ENDROOT
BRANCH   3   7
ATOM      7  O   UNL     1       6.527   6.902  16.182  0.00  0.00    +0.000 OA
ATOM      8  H   UNL     1       6.240   7.705  15.716  0.00  0.00    +0.000 HD
ENDBRANCH   3   7
BRANCH   5   9
ATOM      9  O   UNL     1       4.166   2.879  17.271  0.00  0.00    +0.000 OA
ATOM     10  H   UNL     1       3.538   2.590  16.583  0.00  0.00    +0.000 HD
ENDBRANCH   5   9
BRANCH   6  11
ATOM     11  C   UNL     1       1.978   4.295  18.316  0.00  0.00    +0.000 C 
ATOM     12  O   UNL     1       1.750   4.107  19.500  0.00  0.00    +0.000 OA
BRANCH  11  13
ATOM     13  O   UNL     1       1.167   3.820  17.343  0.00  0.00    +0.000 OA
ATOM     14  H   UNL     1       0.774   2.954  17.593  0.00  0.00    +0.000 HD
ENDBRANCH  11  13
ENDBRANCH   6  11
BRANCH   1  15
ATOM     15  C   UNL     1       2.190   7.329  18.369  0.00  0.00    +0.000 C 
BRANCH  15  16
ATOM     16  C   UNL     1       2.219   8.787  17.894  0.00  0.00    +0.000 C 
BRANCH  16  17
ATOM     17  C   UNL     1       0.848   9.460  17.919  0.00  0.00    +0.000 C 
BRANCH  17  19
ATOM     18  C   UNL     1       1.098  11.302  19.610  0.00  0.00    +0.000 C 
ATOM     19  C   UNL     1       0.500   9.934  19.330  0.00  0.00    +0.000 C 
ENDBRANCH  17  19
ENDBRANCH  16  17
ENDBRANCH  15  16
ENDBRANCH   1  15
BRANCH   4  20
ATOM     20  C   UNL     1       6.519   4.092  16.047  0.00  0.00    +0.000 C 
BRANCH  20  21
ATOM     21  C   UNL     1       6.194   3.599  14.657  0.00  0.00    +0.000 C 
ATOM     22  C   UNL     1       6.702   4.032  13.482  0.00  0.00    +0.000 C 
ATOM     23  C   UNL     1       7.758   5.103  13.377  0.00  0.00    +0.000 C 
BRANCH  22  24
ATOM     24  C   UNL     1       6.130   3.470  12.176  0.00  0.00    +0.000 C 
BRANCH  24  25
ATOM     25  C   UNL     1       4.595   3.376  12.116  0.00  0.00    +0.000 C 
BRANCH  25  26
ATOM     26  C   UNL     1       3.941   4.253  11.081  0.00  0.00    +0.000 C 
ATOM     27  C   UNL     1       3.155   3.782  10.091  0.00  0.00    +0.000 C 
ATOM     28  C   UNL     1       2.830   2.324   9.895  0.00  0.00    +0.000 C 
ATOM     29  C   UNL     1       2.527   4.699   9.077  0.00  0.00    +0.000 C 
ENDBRANCH  25  26
ENDBRANCH  24  25
ENDBRANCH  22  24
ENDBRANCH  20  21
ENDBRANCH   4  20
TORSDOF 13
ENDMDL
MODEL 3
REMARK VINA RESULT:      -7.2      2.037      7.737
REMARK  Name = 
REMARK  17 active torsions:
REMARK  status: ('A' for Active; 'I' for Inactive)
REMARK    1  A    between atoms: C_1  and  C_2
REMARK    2  A    between atoms: C_2  and  C_3
REMARK    3  A    between atoms: C_3  and  C_4
REMARK    4  A    between atoms: C_4  and  C_5
REMARK    5  A    between atoms: C_5  and  C_6
REMARK    6  A    between atoms: C_8  and  O_9
REMARK    7  A    between atoms: C_10  and  C_11
REMARK    8  A    between atoms: C_11  and  C_12
REMARK    9  A    between atoms: C_13  and  C_14
REMARK   10  A    between atoms: C_13  and  C_15
REMARK   11  A    between atoms: C_15  and  C_16
REMARK   12  A    between atoms: C_16  and  C_17
REMARK   13  A    between atoms: C_18  and  C_19
REMARK   14  A    between atoms: C_18  and  C_20
REMARK   15  A    between atoms: C_21  and  O_22
REMARK   16  A    between atoms: C_23  and  C_24
REMARK   17  A    between atoms: C_24  and  O_26
REMARK                            x       y       z     vdW  Elec       q    Type
REMARK                         _______ _______ _______ _____ _____    ______ ____
ROOT
ATOM      1  C   UNL     1       5.584   4.112  16.031  0.00  0.00    +0.000 A 
ATOM      2  C   UNL     1       4.303   3.529  16.031  0.00  0.00    +0.000 A 
ATOM      3  C   UNL     1       3.626   3.273  17.225  0.00  0.00    +0.000 A 
ATOM      4  C   UNL     1       4.201   3.558  18.467  0.00  0.00    +0.000 A 
ATOM      5  C   UNL     1       5.491   4.119  18.472  0.00  0.00    +0.000 A 
ATOM      6  C   UNL     1       6.189   4.407  17.275  0.00  0.00    +0.000 A 
ENDROOT
BRANCH   3   7
ATOM      7  O   UNL     1       2.375   2.732  17.186  0.00  0.00    +0.000 OA
ATOM      8  H   UNL     1       1.824   3.229  16.560  0.00  0.00    +0.000 HD
ENDBRANCH   3   7
BRANCH   5   9
ATOM      9  O   UNL     1       6.125   4.379  19.669  0.00  0.00    +0.000 OA
ATOM     10  H   UNL     1       6.100   5.341  19.833  0.00  0.00    +0.000 HD
ENDBRANCH   5   9
BRANCH   6  11
ATOM     11  C   UNL     1       7.527   5.071  17.336  0.00  0.00    +0.000 C 
ATOM     12  O   UNL     1       7.727   6.228  17.006  0.00  0.00    +0.000 OA
BRANCH  11  13
ATOM     13  O   UNL     1       8.529   4.255  17.738  0.00  0.00    +0.000 OA
ATOM     14  H   UNL     1       8.264   3.713  18.513  0.00  0.00    +0.000 HD
ENDBRANCH  11  13
ENDBRANCH   6  11
BRANCH   1  15
ATOM     15  C   UNL     1       6.209   4.402  14.678  0.00  0.00    +0.000 C 
BRANCH  15  16
ATOM     16  C   UNL     1       5.371   4.051  13.443  0.00  0.00    +0.000 C 
BRANCH  16  17
ATOM     17  C   UNL     1       6.198   3.484  12.290  0.00  0.00    +0.000 C 
BRANCH  17  19
ATOM     18  C   UNL     1       6.554   1.352  11.008  0.00  0.00    +0.000 C 
ATOM     19  C   UNL     1       5.535   2.234  11.709  0.00  0.00    +0.000 C 
ENDBRANCH  17  19
ENDBRANCH  16  17
ENDBRANCH  15  16
ENDBRANCH   1  15
BRANCH   4  20
ATOM     20  C   UNL     1       3.429   3.270  19.738  0.00  0.00    +0.000 C 
BRANCH  20  21
ATOM     21  C   UNL     1       2.737   4.488  20.302  0.00  0.00    +0.000 C 
ATOM     22  C   UNL     1       1.410   4.706  20.428  0.00  0.00    +0.000 C 
ATOM     23  C   UNL     1       0.361   3.694  20.042  0.00  0.00    +0.000 C 
BRANCH  22  24
ATOM     24  C   UNL     1       0.927   6.077  20.915  0.00  0.00    +0.000 C 
BRANCH  24  25
ATOM     25  C   UNL     1       1.970   7.207  20.840  0.00  0.00    +0.000 C 
BRANCH  25  26
ATOM     26  C   UNL     1       1.636   8.323  19.887  0.00  0.00    +0.000 C 
ATOM     27  C   UNL     1       2.085   8.380  18.616  0.00  0.00    +0.000 C 
ATOM     28  C   UNL     1       2.972   7.335  17.988  0.00  0.00    +0.000 C 
ATOM     29  C   UNL     1       1.727   9.520  17.702  0.00  0.00    +0.000 C 
ENDBRANCH  25  26
ENDBRANCH  24  25
ENDBRANCH  22  24
ENDBRANCH  20  21
ENDBRANCH   4  20
TORSDOF 13
ENDMDL
MODEL 4
REMARK VINA RESULT:      -7.1      3.535      6.257
REMARK  Name = 
REMARK  17 active torsions:
REMARK  status: ('A' for Active; 'I' for Inactive)
REMARK    1  A    between atoms: C_1  and  C_2
REMARK    2  A    between atoms: C_2  and  C_3
REMARK    3  A    between atoms: C_3  and  C_4
REMARK    4  A    between atoms: C_4  and  C_5
REMARK    5  A    between atoms: C_5  and  C_6
REMARK    6  A    between atoms: C_8  and  O_9
REMARK    7  A    between atoms: C_10  and  C_11
REMARK    8  A    between atoms: C_11  and  C_12
REMARK    9  A    between atoms: C_13  and  C_14
REMARK   10  A    between atoms: C_13  and  C_15
REMARK   11  A    between atoms: C_15  and  C_16
REMARK   12  A    between atoms: C_16  and  C_17
REMARK   13  A    between atoms: C_18  and  C_19
REMARK   14  A    between atoms: C_18  and  C_20
REMARK   15  A    between atoms: C_21  and  O_22
REMARK   16  A    between atoms: C_23  and  C_24
REMARK   17  A    between atoms: C_24  and  O_26
REMARK                            x       y       z     vdW  Elec       q    Type
REMARK                         _______ _______ _______ _____ _____    ______ ____
ROOT
ATOM      1  C   UNL     1       2.630   4.640  18.328  0.00  0.00    +0.000 A 
ATOM      2  C   UNL     1       2.869   6.012  18.123  0.00  0.00    +0.000 A 
ATOM      3  C   UNL     1       3.978   6.451  17.396  0.00  0.00    +0.000 A 
ATOM      4  C   UNL     1       4.908   5.552  16.867  0.00  0.00    +0.000 A 
ATOM      5  C   UNL     1       4.685   4.180  17.089  0.00  0.00    +0.000 A 
ATOM      6  C   UNL     1       3.559   3.710  17.805  0.00  0.00    +0.000 A 
ENDROOT
BRANCH   3   7
ATOM      7  O   UNL     1       4.163   7.787  17.195  0.00  0.00    +0.000 OA
ATOM      8  H   UNL     1       4.076   8.259  18.040  0.00  0.00    +0.000 HD
ENDBRANCH   3   7
BRANCH   5   9
ATOM      9  O   UNL     1       5.594   3.251  16.628  0.00  0.00    +0.000 OA
ATOM     10  H   UNL     1       6.446   3.699  16.473  0.00  0.00    +0.000 HD
ENDBRANCH   5   9
BRANCH   6  11
ATOM     11  C   UNL     1       3.331   2.239  17.949  0.00  0.00    +0.000 C 
ATOM     12  O   UNL     1       2.314   1.670  17.589  0.00  0.00    +0.000 OA
BRANCH  11  13
ATOM     13  O   UNL     1       4.337   1.585  18.576  0.00  0.00    +0.000 OA
ATOM     14  H   UNL     1       4.799   2.166  19.219  0.00  0.00    +0.000 HD
ENDBRANCH  11  13
ENDBRANCH   6  11
BRANCH   1  15
ATOM     15  C   UNL     1       1.367   4.266  19.082  0.00  0.00    +0.000 C 
BRANCH  15  16
ATOM     16  C   UNL     1       1.234   4.800  20.512  0.00  0.00    +0.000 C 
BRANCH  16  17
ATOM     17  C   UNL     1       2.398   4.402  21.419  0.00  0.00    +0.000 C 
BRANCH  17  19
ATOM     18  C   UNL     1       1.369   2.205  22.075  0.00  0.00    +0.000 C 
ATOM     19  C   UNL     1       2.573   2.883  21.444  0.00  0.00    +0.000 C 
ENDBRANCH  17  19
ENDBRANCH  16  17
ENDBRANCH  15  16
ENDBRANCH   1  15
BRANCH   4  20
ATOM     20  C   UNL     1       6.093   6.071  16.080  0.00  0.00    +0.000 C 
BRANCH  20  21
ATOM     21  C   UNL     1       6.952   7.033  16.866  0.00  0.00    +0.000 C 
ATOM     22  C   UNL     1       7.673   6.782  17.981  0.00  0.00    +0.000 C 
ATOM     23  C   UNL     1       7.768   5.420  18.621  0.00  0.00    +0.000 C 
BRANCH  22  24
ATOM     24  C   UNL     1       8.375   7.948  18.687  0.00  0.00    +0.000 C 
BRANCH  24  25
ATOM     25  C   UNL     1       8.070   9.344  18.114  0.00  0.00    +0.000 C 
BRANCH  25  26
ATOM     26  C   UNL     1       9.261  10.254  17.980  0.00  0.00    +0.000 C 
ATOM     27  C   UNL     1       9.818  10.915  19.016  0.00  0.00    +0.000 C 
ATOM     28  C   UNL     1       9.322  10.825  20.436  0.00  0.00    +0.000 C 
ATOM     29  C   UNL     1      11.007  11.818  18.831  0.00  0.00    +0.000 C 
ENDBRANCH  25  26
ENDBRANCH  24  25
ENDBRANCH  22  24
ENDBRANCH  20  21
ENDBRANCH   4  20
TORSDOF 13
ENDMDL
MODEL 5
REMARK VINA RESULT:      -7.0      4.271      7.078
REMARK  Name = 
REMARK  17 active torsions:
REMARK  status: ('A' for Active; 'I' for Inactive)
REMARK    1  A    between atoms: C_1  and  C_2
REMARK    2  A    between atoms: C_2  and  C_3
REMARK    3  A    between atoms: C_3  and  C_4
REMARK    4  A    between atoms: C_4  and  C_5
REMARK    5  A    between atoms: C_5  and  C_6
REMARK    6  A    between atoms: C_8  and  O_9
REMARK    7  A    between atoms: C_10  and  C_11
REMARK    8  A    between atoms: C_11  and  C_12
REMARK    9  A    between atoms: C_13  and  C_14
REMARK   10  A    between atoms: C_13  and  C_15
REMARK   11  A    between atoms: C_15  and  C_16
REMARK   12  A    between atoms: C_16  and  C_17
REMARK   13  A    between atoms: C_18  and  C_19
REMARK   14  A    between atoms: C_18  and  C_20
REMARK   15  A    between atoms: C_21  and  O_22
REMARK   16  A    between atoms: C_23  and  C_24
REMARK   17  A    between atoms: C_24  and  O_26
REMARK                            x       y       z     vdW  Elec       q    Type
REMARK                         _______ _______ _______ _____ _____    ______ ____
ROOT
ATOM      1  C   UNL     1       0.999   9.487  20.647  0.00  0.00    +0.000 A 
ATOM      2  C   UNL     1       1.246   8.222  21.213  0.00  0.00    +0.000 A 
ATOM      3  C   UNL     1       1.802   7.188  20.458  0.00  0.00    +0.000 A 
ATOM      4  C   UNL     1       2.113   7.357  19.105  0.00  0.00    +0.000 A 
ATOM      5  C   UNL     1       1.848   8.613  18.529  0.00  0.00    +0.000 A 
ATOM      6  C   UNL     1       1.302   9.682  19.279  0.00  0.00    +0.000 A 
ENDROOT
BRANCH   3   7
ATOM      7  O   UNL     1       2.051   5.984  21.046  0.00  0.00    +0.000 OA
ATOM      8  H   UNL     1       3.010   5.838  21.099  0.00  0.00    +0.000 HD
ENDBRANCH   3   7
BRANCH   5   9
ATOM      9  O   UNL     1       2.092   8.822  17.188  0.00  0.00    +0.000 OA
ATOM     10  H   UNL     1       2.965   8.446  16.968  0.00  0.00    +0.000 HD
ENDBRANCH   5   9
BRANCH   6  11
ATOM     11  C   UNL     1       1.109  11.018  18.636  0.00  0.00    +0.000 C 
ATOM     12  O   UNL     1       0.038  11.600  18.588  0.00  0.00    +0.000 OA
BRANCH  11  13
ATOM     13  O   UNL     1       2.223  11.512  18.048  0.00  0.00    +0.000 OA
ATOM     14  H   UNL     1       2.032  11.859  17.148  0.00  0.00    +0.000 HD
ENDBRANCH  11  13
ENDBRANCH   6  11
BRANCH   1  15
ATOM     15  C   UNL     1       0.446  10.558  21.569  0.00  0.00    +0.000 C 
BRANCH  15  16
ATOM     16  C   UNL     1      -0.368  10.076  22.775  0.00  0.00    +0.000 C 
BRANCH  16  17
ATOM     17  C   UNL     1      -1.446  11.067  23.214  0.00  0.00    +0.000 C 
BRANCH  17  19
ATOM     18  C   UNL     1      -1.347  13.575  23.338  0.00  0.00    +0.000 C 
ATOM     19  C   UNL     1      -1.347  12.367  22.416  0.00  0.00    +0.000 C 
ENDBRANCH  17  19
ENDBRANCH  16  17
ENDBRANCH  15  16
ENDBRANCH   1  15
BRANCH   4  20
ATOM     20  C   UNL     1       2.722   6.211  18.324  0.00  0.00    +0.000 C 
BRANCH  20  21
ATOM     21  C   UNL     1       4.228   6.163  18.416  0.00  0.00    +0.000 C 
ATOM     22  C   UNL     1       5.002   5.153  18.871  0.00  0.00    +0.000 C 
ATOM     23  C   UNL     1       4.450   3.832  19.343  0.00  0.00    +0.000 C 
BRANCH  22  24
ATOM     24  C   UNL     1       6.514   5.374  18.992  0.00  0.00    +0.000 C 
BRANCH  24  25
ATOM     25  C   UNL     1       7.230   5.753  17.683  0.00  0.00    +0.000 C 
BRANCH  25  26
ATOM     26  C   UNL     1       7.135   4.730  16.583  0.00  0.00    +0.000 C 
ATOM     27  C   UNL     1       6.343   4.867  15.500  0.00  0.00    +0.000 C 
ATOM     28  C   UNL     1       5.457   6.061  15.251  0.00  0.00    +0.000 C 
ATOM     29  C   UNL     1       6.279   3.814  14.429  0.00  0.00    +0.000 C 
ENDBRANCH  25  26
ENDBRANCH  24  25
ENDBRANCH  22  24
ENDBRANCH  20  21
ENDBRANCH   4  20
TORSDOF 13
ENDMDL
MODEL 6
REMARK VINA RESULT:      -7.0      1.939      7.605
REMARK  Name = 
REMARK  17 active torsions:
REMARK  status: ('A' for Active; 'I' for Inactive)
REMARK    1  A    between atoms: C_1  and  C_2
REMARK    2  A    between atoms: C_2  and  C_3
REMARK    3  A    between atoms: C_3  and  C_4
REMARK    4  A    between atoms: C_4  and  C_5
REMARK    5  A    between atoms: C_5  and  C_6
REMARK    6  A    between atoms: C_8  and  O_9
REMARK    7  A    between atoms: C_10  and  C_11
REMARK    8  A    between atoms: C_11  and  C_12
REMARK    9  A    between atoms: C_13  and  C_14
REMARK   10  A    between atoms: C_13  and  C_15
REMARK   11  A    between atoms: C_15  and  C_16
REMARK   12  A    between atoms: C_16  and  C_17
REMARK   13  A    between atoms: C_18  and  C_19
REMARK   14  A    between atoms: C_18  and  C_20
REMARK   15  A    between atoms: C_21  and  O_22
REMARK   16  A    between atoms: C_23  and  C_24
REMARK   17  A    between atoms: C_24  and  O_26
REMARK                            x       y       z     vdW  Elec       q    Type
REMARK                         _______ _______ _______ _____ _____    ______ ____
ROOT
ATOM      1  C   UNL     1       5.868   4.465  16.255  0.00  0.00    +0.000 A 
ATOM      2  C   UNL     1       4.953   3.397  16.313  0.00  0.00    +0.000 A 
ATOM      3  C   UNL     1       4.342   3.034  17.515  0.00  0.00    +0.000 A 
ATOM      4  C   UNL     1       4.631   3.696  18.711  0.00  0.00    +0.000 A 
ATOM      5  C   UNL     1       5.563   4.750  18.662  0.00  0.00    +0.000 A 
ATOM      6  C   UNL     1       6.180   5.149  17.453  0.00  0.00    +0.000 A 
ENDROOT
BRANCH   3   7
ATOM      7  O   UNL     1       3.442   2.011  17.528  0.00  0.00    +0.000 OA
ATOM      8  H   UNL     1       3.865   1.207  17.872  0.00  0.00    +0.000 HD
ENDBRANCH   3   7
BRANCH   5   9
ATOM      9  O   UNL     1       5.920   5.409  19.820  0.00  0.00    +0.000 OA
ATOM     10  H   UNL     1       6.718   5.940  19.642  0.00  0.00    +0.000 HD
ENDBRANCH   5   9
BRANCH   6  11
ATOM     11  C   UNL     1       7.107   6.323  17.444  0.00  0.00    +0.000 C 
ATOM     12  O   UNL     1       7.057   7.222  16.621  0.00  0.00    +0.000 OA
BRANCH  11  13
ATOM     13  O   UNL     1       8.060   6.279  18.403  0.00  0.00    +0.000 OA
ATOM     14  H   UNL     1       7.826   5.643  19.115  0.00  0.00    +0.000 HD
ENDBRANCH  11  13
ENDBRANCH   6  11
BRANCH   1  15
ATOM     15  C   UNL     1       6.432   4.816  14.890  0.00  0.00    +0.000 C 
BRANCH  15  16
ATOM     16  C   UNL     1       6.289   3.755  13.792  0.00  0.00    +0.000 C 
BRANCH  16  17
ATOM     17  C   UNL     1       5.259   4.122  12.725  0.00  0.00    +0.000 C 
BRANCH  17  19
ATOM     18  C   UNL     1       3.785   3.096  10.966  0.00  0.00    +0.000 C 
ATOM     19  C   UNL     1       5.110   2.995  11.702  0.00  0.00    +0.000 C 
ENDBRANCH  17  19
ENDBRANCH  16  17
ENDBRANCH  15  16
ENDBRANCH   1  15
BRANCH   4  20
ATOM     20  C   UNL     1       3.941   3.274  19.992  0.00  0.00    +0.000 C 
BRANCH  20  21
ATOM     21  C   UNL     1       3.001   4.325  20.533  0.00  0.00    +0.000 C 
ATOM     22  C   UNL     1       1.761   4.636  20.094  0.00  0.00    +0.000 C 
ATOM     23  C   UNL     1       1.074   3.913  18.963  0.00  0.00    +0.000 C 
BRANCH  22  24
ATOM     24  C   UNL     1       1.032   5.831  20.718  0.00  0.00    +0.000 C 
BRANCH  24  25
ATOM     25  C   UNL     1       1.874   7.112  20.862  0.00  0.00    +0.000 C 
BRANCH  25  26
ATOM     26  C   UNL     1       1.523   8.219  19.904  0.00  0.00    +0.000 C 
ATOM     27  C   UNL     1       2.042   8.326  18.663  0.00  0.00    +0.000 C 
ATOM     28  C   UNL     1       3.033   7.354  18.078  0.00  0.00    +0.000 C 
ATOM     29  C   UNL     1       1.662   9.454  17.743  0.00  0.00    +0.000 C 
ENDBRANCH  25  26
ENDBRANCH  24  25
ENDBRANCH  22  24
ENDBRANCH  20  21
ENDBRANCH   4  20
TORSDOF 13
ENDMDL
MODEL 7
REMARK VINA RESULT:      -6.9      3.606      7.529
REMARK  Name = 
REMARK  17 active torsions:
REMARK  status: ('A' for Active; 'I' for Inactive)
REMARK    1  A    between atoms: C_1  and  C_2
REMARK    2  A    between atoms: C_2  and  C_3
REMARK    3  A    between atoms: C_3  and  C_4
REMARK    4  A    between atoms: C_4  and  C_5
REMARK    5  A    between atoms: C_5  and  C_6
REMARK    6  A    between atoms: C_8  and  O_9
REMARK    7  A    between atoms: C_10  and  C_11
REMARK    8  A    between atoms: C_11  and  C_12
REMARK    9  A    between atoms: C_13  and  C_14
REMARK   10  A    between atoms: C_13  and  C_15
REMARK   11  A    between atoms: C_15  and  C_16
REMARK   12  A    between atoms: C_16  and  C_17
REMARK   13  A    between atoms: C_18  and  C_19
REMARK   14  A    between atoms: C_18  and  C_20
REMARK   15  A    between atoms: C_21  and  O_22
REMARK   16  A    between atoms: C_23  and  C_24
REMARK   17  A    between atoms: C_24  and  O_26
REMARK                            x       y       z     vdW  Elec       q    Type
REMARK                         _______ _______ _______ _____ _____    ______ ____
ROOT
ATOM      1  C   UNL     1       7.518   7.036  17.936  0.00  0.00    +0.000 A 
ATOM      2  C   UNL     1       6.660   7.416  16.886  0.00  0.00    +0.000 A 
ATOM      3  C   UNL     1       5.696   6.538  16.387  0.00  0.00    +0.000 A 
ATOM      4  C   UNL     1       5.559   5.241  16.888  0.00  0.00    +0.000 A 
ATOM      5  C   UNL     1       6.429   4.849  17.923  0.00  0.00    +0.000 A 
ATOM      6  C   UNL     1       7.401   5.727  18.459  0.00  0.00    +0.000 A 
ENDROOT
BRANCH   3   7
ATOM      7  O   UNL     1       4.866   6.950  15.387  0.00  0.00    +0.000 OA
ATOM      8  H   UNL     1       5.390   7.331  14.663  0.00  0.00    +0.000 HD
ENDBRANCH   3   7
BRANCH   5   9
ATOM      9  O   UNL     1       6.370   3.566  18.425  0.00  0.00    +0.000 OA
ATOM     10  H   UNL     1       5.877   3.007  17.795  0.00  0.00    +0.000 HD
ENDBRANCH   5   9
BRANCH   6  11
ATOM     11  C   UNL     1       8.250   5.284  19.607  0.00  0.00    +0.000 C 
ATOM     12  O   UNL     1       9.237   4.576  19.489  0.00  0.00    +0.000 OA
BRANCH  11  13
ATOM     13  O   UNL     1       7.796   5.688  20.816  0.00  0.00    +0.000 OA
ATOM     14  H   UNL     1       6.841   5.915  20.784  0.00  0.00    +0.000 HD
ENDBRANCH  11  13
ENDBRANCH   6  11
BRANCH   1  15
ATOM     15  C   UNL     1       8.491   8.084  18.444  0.00  0.00    +0.000 C 
BRANCH  15  16
ATOM     16  C   UNL     1       8.286   9.517  17.939  0.00  0.00    +0.000 C 
BRANCH  16  17
ATOM     17  C   UNL     1       8.981  10.569  18.802  0.00  0.00    +0.000 C 
BRANCH  17  19
ATOM     18  C   UNL     1      10.908  11.737  17.687  0.00  0.00    +0.000 C 
ATOM     19  C   UNL     1       9.413  11.768  17.955  0.00  0.00    +0.000 C 
ENDBRANCH  17  19
ENDBRANCH  16  17
ENDBRANCH  15  16
ENDBRANCH   1  15
BRANCH   4  20
ATOM     20  C   UNL     1       4.496   4.323  16.322  0.00  0.00    +0.000 C 
BRANCH  20  21
ATOM     21  C   UNL     1       3.263   4.236  17.191  0.00  0.00    +0.000 C 
ATOM     22  C   UNL     1       2.775   3.154  17.834  0.00  0.00    +0.000 C 
ATOM     23  C   UNL     1       3.445   1.803  17.817  0.00  0.00    +0.000 C 
BRANCH  22  24
ATOM     24  C   UNL     1       1.430   3.268  18.562  0.00  0.00    +0.000 C 
BRANCH  24  25
ATOM     25  C   UNL     1       1.521   3.555  20.072  0.00  0.00    +0.000 C 
BRANCH  25  26
ATOM     26  C   UNL     1       1.107   4.942  20.485  0.00  0.00    +0.000 C 
ATOM     27  C   UNL     1       1.919   6.017  20.414  0.00  0.00    +0.000 C 
ATOM     28  C   UNL     1       3.338   5.969  19.910  0.00  0.00    +0.000 C 
ATOM     29  C   UNL     1       1.459   7.384  20.843  0.00  0.00    +0.000 C 
ENDBRANCH  25  26
ENDBRANCH  24  25
ENDBRANCH  22  24
ENDBRANCH  20  21
ENDBRANCH   4  20
TORSDOF 13
ENDMDL
MODEL 8
REMARK VINA RESULT:      -6.9      4.731      7.615
REMARK  Name = 
REMARK  17 active torsions:
REMARK  status: ('A' for Active; 'I' for Inactive)
REMARK    1  A    between atoms: C_1  and  C_2
REMARK    2  A    between atoms: C_2  and  C_3
REMARK    3  A    between atoms: C_3  and  C_4
REMARK    4  A    between atoms: C_4  and  C_5
REMARK    5  A    between atoms: C_5  and  C_6
REMARK    6  A    between atoms: C_8  and  O_9
REMARK    7  A    between atoms: C_10  and  C_11
REMARK    8  A    between atoms: C_11  and  C_12
REMARK    9  A    between atoms: C_13  and  C_14
REMARK   10  A    between atoms: C_13  and  C_15
REMARK   11  A    between atoms: C_15  and  C_16
REMARK   12  A    between atoms: C_16  and  C_17
REMARK   13  A    between atoms: C_18  and  C_19
REMARK   14  A    between atoms: C_18  and  C_20
REMARK   15  A    between atoms: C_21  and  O_22
REMARK   16  A    between atoms: C_23  and  C_24
REMARK   17  A    between atoms: C_24  and  O_26
REMARK                            x       y       z     vdW  Elec       q    Type
REMARK                         _______ _______ _______ _____ _____    ______ ____
ROOT
ATOM      1  C   UNL     1       1.288   8.619  20.071  0.00  0.00    +0.000 A 
ATOM      2  C   UNL     1       1.637   7.392  20.668  0.00  0.00    +0.000 A 
ATOM      3  C   UNL     1       2.454   6.473  20.006  0.00  0.00    +0.000 A 
ATOM      4  C   UNL     1       2.936   6.720  18.717  0.00  0.00    +0.000 A 
ATOM      5  C   UNL     1       2.572   7.935  18.108  0.00  0.00    +0.000 A 
ATOM      6  C   UNL     1       1.761   8.890  18.766  0.00  0.00    +0.000 A 
ENDROOT
BRANCH   3   7
ATOM      7  O   UNL     1       2.792   5.307  20.625  0.00  0.00    +0.000 OA
ATOM      8  H   UNL     1       3.271   5.500  21.448  0.00  0.00    +0.000 HD
ENDBRANCH   3   7
BRANCH   5   9
ATOM      9  O   UNL     1       2.982   8.211  16.820  0.00  0.00    +0.000 OA
ATOM     10  H   UNL     1       2.197   8.431  16.284  0.00  0.00    +0.000 HD
ENDBRANCH   5   9
BRANCH   6  11
ATOM     11  C   UNL     1       1.465  10.196  18.102  0.00  0.00    +0.000 C 
ATOM     12  O   UNL     1       2.271  11.107  18.003  0.00  0.00    +0.000 OA
BRANCH  11  13
ATOM     13  O   UNL     1       0.190  10.314  17.663  0.00  0.00    +0.000 OA
ATOM     14  H   UNL     1      -0.235  11.131  18.006  0.00  0.00    +0.000 HD
ENDBRANCH  11  13
ENDBRANCH   6  11
BRANCH   1  15
ATOM     15  C   UNL     1       0.444   9.571  20.898  0.00  0.00    +0.000 C 
BRANCH  15  16
ATOM     16  C   UNL     1      -0.316   8.966  22.083  0.00  0.00    +0.000 C 
BRANCH  16  17
ATOM     17  C   UNL     1      -0.493   9.937  23.250  0.00  0.00    +0.000 C 
BRANCH  17  19
ATOM     18  C   UNL     1      -2.244  11.733  23.095  0.00  0.00    +0.000 C 
ATOM     19  C   UNL     1      -0.819  11.342  22.743  0.00  0.00    +0.000 C 
ENDBRANCH  17  19
ENDBRANCH  16  17
ENDBRANCH  15  16
ENDBRANCH   1  15
BRANCH   4  20
ATOM     20  C   UNL     1       3.825   5.698  18.037  0.00  0.00    +0.000 C 
BRANCH  20  21
ATOM     21  C   UNL     1       5.105   6.291  17.498  0.00  0.00    +0.000 C 
ATOM     22  C   UNL     1       6.349   6.191  18.015  0.00  0.00    +0.000 C 
ATOM     23  C   UNL     1       6.674   5.396  19.254  0.00  0.00    +0.000 C 
BRANCH  22  24
ATOM     24  C   UNL     1       7.488   6.985  17.364  0.00  0.00    +0.000 C 
BRANCH  24  25
ATOM     25  C   UNL     1       8.189   8.004  18.281  0.00  0.00    +0.000 C 
BRANCH  25  26
ATOM     26  C   UNL     1       8.244   9.411  17.749  0.00  0.00    +0.000 C 
ATOM     27  C   UNL     1       8.836  10.434  18.400  0.00  0.00    +0.000 C 
ATOM     28  C   UNL     1       9.517  10.299  19.737  0.00  0.00    +0.000 C 
ATOM     29  C   UNL     1       8.861  11.825  17.828  0.00  0.00    +0.000 C 
ENDBRANCH  25  26
ENDBRANCH  24  25
ENDBRANCH  22  24
ENDBRANCH  20  21
ENDBRANCH   4  20
TORSDOF 13
ENDMDL
MODEL 9
REMARK VINA RESULT:      -6.8      4.455      7.552
REMARK  Name = 
REMARK  17 active torsions:
REMARK  status: ('A' for Active; 'I' for Inactive)
REMARK    1  A    between atoms: C_1  and  C_2
REMARK    2  A    between atoms: C_2  and  C_3
REMARK    3  A    between atoms: C_3  and  C_4
REMARK    4  A    between atoms: C_4  and  C_5
REMARK    5  A    between atoms: C_5  and  C_6
REMARK    6  A    between atoms: C_8  and  O_9
REMARK    7  A    between atoms: C_10  and  C_11
REMARK    8  A    between atoms: C_11  and  C_12
REMARK    9  A    between atoms: C_13  and  C_14
REMARK   10  A    between atoms: C_13  and  C_15
REMARK   11  A    between atoms: C_15  and  C_16
REMARK   12  A    between atoms: C_16  and  C_17
REMARK   13  A    between atoms: C_18  and  C_19
REMARK   14  A    between atoms: C_18  and  C_20
REMARK   15  A    between atoms: C_21  and  O_22
REMARK   16  A    between atoms: C_23  and  C_24
REMARK   17  A    between atoms: C_24  and  O_26
REMARK                            x       y       z     vdW  Elec       q    Type
REMARK                         _______ _______ _______ _____ _____    ______ ____
ROOT
ATOM      1  C   UNL     1       0.428   9.804  19.588  0.00  0.00    +0.000 A 
ATOM      2  C   UNL     1       1.062   9.711  18.335  0.00  0.00    +0.000 A 
ATOM      3  C   UNL     1       2.013   8.722  18.077  0.00  0.00    +0.000 A 
ATOM      4  C   UNL     1       2.394   7.801  19.057  0.00  0.00    +0.000 A 
ATOM      5  C   UNL     1       1.780   7.904  20.319  0.00  0.00    +0.000 A 
ATOM      6  C   UNL     1       0.799   8.885  20.598  0.00  0.00    +0.000 A 
ENDROOT
BRANCH   3   7
ATOM      7  O   UNL     1       2.587   8.647  16.843  0.00  0.00    +0.000 OA
ATOM      8  H   UNL     1       3.438   8.183  16.906  0.00  0.00    +0.000 HD
ENDBRANCH   3   7
BRANCH   5   9
ATOM      9  O   UNL     1       2.150   7.050  21.338  0.00  0.00    +0.000 OA
ATOM     10  H   UNL     1       1.343   6.682  21.744  0.00  0.00    +0.000 HD
ENDBRANCH   5   9
BRANCH   6  11
ATOM     11  C   UNL     1       0.125   8.903  21.933  0.00  0.00    +0.000 C 
ATOM     12  O   UNL     1      -0.979   8.428  22.143  0.00  0.00    +0.000 OA
BRANCH  11  13
ATOM     13  O   UNL     1       0.823   9.552  22.894  0.00  0.00    +0.000 OA
ATOM     14  H   UNL     1       1.493  10.156  22.506  0.00  0.00    +0.000 HD
ENDBRANCH  11  13
ENDBRANCH   6  11
BRANCH   1  15
ATOM     15  C   UNL     1      -0.632  10.878  19.747  0.00  0.00    +0.000 C 
BRANCH  15  16
ATOM     16  C   UNL     1      -0.661  11.979  18.681  0.00  0.00    +0.000 C 
BRANCH  16  17
ATOM     17  C   UNL     1      -1.800  11.820  17.675  0.00  0.00    +0.000 C 
BRANCH  17  19
ATOM     18  C   UNL     1      -3.088   9.735  17.119  0.00  0.00    +0.000 C 
ATOM     19  C   UNL     1      -2.825  10.800  18.171  0.00  0.00    +0.000 C 
ENDBRANCH  17  19
ENDBRANCH  16  17
ENDBRANCH  15  16
ENDBRANCH   1  15
BRANCH   4  20
ATOM     20  C   UNL     1       3.425   6.740  18.734  0.00  0.00    +0.000 C 
BRANCH  20  21
ATOM     21  C   UNL     1       2.815   5.454  18.229  0.00  0.00    +0.000 C 
ATOM     22  C   UNL     1       3.447   4.395  17.677  0.00  0.00    +0.000 C 
ATOM     23  C   UNL     1       4.943   4.314  17.509  0.00  0.00    +0.000 C 
BRANCH  22  24
ATOM     24  C   UNL     1       2.608   3.241  17.117  0.00  0.00    +0.000 C 
BRANCH  24  25
ATOM     25  C   UNL     1       1.450   2.772  18.018  0.00  0.00    +0.000 C 
BRANCH  25  26
ATOM     26  C   UNL     1       1.860   2.274  19.378  0.00  0.00    +0.000 C 
ATOM     27  C   UNL     1       1.552   2.906  20.530  0.00  0.00    +0.000 C 
ATOM     28  C   UNL     1       0.760   4.186  20.602  0.00  0.00    +0.000 C 
ATOM     29  C   UNL     1       1.989   2.371  21.866  0.00  0.00    +0.000 C 
ENDBRANCH  25  26
ENDBRANCH  24  25
ENDBRANCH  22  24
ENDBRANCH  20  21
ENDBRANCH   4  20
TORSDOF 13
ENDMDL
