MODEL 1
REMARK VINA RESULT:      -8.3      0.000      0.000
REMARK  Name = 
REMARK  5 active torsions:
REMARK  status: ('A' for Active; 'I' for Inactive)
REMARK    1  A    between atoms: C_1  and  C_2
REMARK    2  A    between atoms: C_2  and  C_3
REMARK    3  A    between atoms: N_5  and  C_6
REMARK    4  A    between atoms: C_16  and  C_17
REMARK    5  A    between atoms: C_20  and  C_21
REMARK                            x       y       z     vdW  Elec       q    Type
REMARK                         _______ _______ _______ _____ _____    ______ ____
ROOT
ATOM      1  C   UNL     1       3.149   4.045  20.357  0.00  0.00    +0.000 A 
ATOM      2  N   UNL     1       4.157   3.872  19.481  0.00  0.00    +0.000 NA
ATOM      3  N   UNL     1       4.149   4.995  18.715  0.00  0.00    +0.000 N 
ATOM      4  C   UNL     1       3.159   5.854  19.086  0.00  0.00    +0.000 A 
ATOM      5  C   UNL     1       2.513   5.285  20.161  0.00  0.00    +0.000 A 
ATOM      6  C   UNL     1       1.355   5.956  20.817  0.00  0.00    +0.000 C 
ATOM      7  C   UNL     1       1.425   7.487  20.615  0.00  0.00    +0.000 C 
ATOM      8  N   UNL     1       1.910   7.892  19.299  0.00  0.00    +0.000 N 
ATOM      9  C   UNL     1       1.705   9.034  18.575  0.00  0.00    +0.000 A 
ATOM     10  N   UNL     1       2.376   8.909  17.434  0.00  0.00    +0.000 NA
ATOM     11  N   UNL     1       3.067   7.709  17.446  0.00  0.00    +0.000 NA
ATOM     12  C   UNL     1       2.781   7.116  18.575  0.00  0.00    +0.000 A 
ENDROOT
BRANCH   9  13
ATOM     13  C   UNL     1       0.905  10.192  18.984  0.00  0.00    +0.000 A 
ATOM     14  C   UNL     1      -0.489  10.222  18.838  0.00  0.00    +0.000 A 
ATOM     15  C   UNL     1      -1.241  11.320  19.255  0.00  0.00    +0.000 A 
ATOM     16  C   UNL     1      -0.621  12.407  19.877  0.00  0.00    +0.000 A 
ATOM     17  C   UNL     1       0.774  12.392  20.029  0.00  0.00    +0.000 A 
ATOM     18  C   UNL     1       1.527  11.296  19.584  0.00  0.00    +0.000 A 
BRANCH  16  19
ATOM     19  C   UNL     1      -1.445  13.548  20.420  0.00  0.00    +0.000 C 
ATOM     20  F   UNL     1      -2.769  13.454  20.111  0.00  0.00    +0.000 F 
ATOM     21  F   UNL     1      -1.385  13.630  21.778  0.00  0.00    +0.000 F 
ATOM     22  F   UNL     1      -1.038  14.760  19.952  0.00  0.00    +0.000 F 
ENDBRANCH  16  19
ENDBRANCH   9  13
BRANCH   3  23
ATOM     23  C   UNL     1       5.129   5.203  17.671  0.00  0.00    +0.000 C 
ATOM     24  C   UNL     1       6.564   4.774  17.987  0.00  0.00    +0.000 C 
ATOM     25  C   UNL     1       7.242   4.797  16.622  0.00  0.00    +0.000 C 
ATOM     26  C   UNL     1       6.148   4.458  15.608  0.00  0.00    +0.000 C 
ATOM     27  C   UNL     1       4.831   4.435  16.385  0.00  0.00    +0.000 C 
ENDBRANCH   3  23
BRANCH   1  29
ATOM     28  C   UNL     1       1.311   2.700  21.429  0.00  0.00    +0.000 C 
ATOM     29  C   UNL     1       2.801   2.987  21.353  0.00  0.00    +0.000 C 
ENDBRANCH   1  29
TORSDOF 4
ENDMDL
MODEL 2
REMARK VINA RESULT:      -8.3      0.603      1.253
REMARK  Name = 
REMARK  5 active torsions:
REMARK  status: ('A' for Active; 'I' for Inactive)
REMARK    1  A    between atoms: C_1  and  C_2
REMARK    2  A    between atoms: C_2  and  C_3
REMARK    3  A    between atoms: N_5  and  C_6
REMARK    4  A    between atoms: C_16  and  C_17
REMARK    5  A    between atoms: C_20  and  C_21
REMARK                            x       y       z     vdW  Elec       q    Type
REMARK                         _______ _______ _______ _____ _____    ______ ____
ROOT
ATOM      1  C   UNL     1       2.969   4.399  20.183  0.00  0.00    +0.000 A 
ATOM      2  N   UNL     1       3.920   4.279  19.238  0.00  0.00    +0.000 NA
ATOM      3  N   UNL     1       3.869   5.446  18.543  0.00  0.00    +0.000 N 
ATOM      4  C   UNL     1       2.907   6.281  19.025  0.00  0.00    +0.000 A 
ATOM      5  C   UNL     1       2.327   5.648  20.102  0.00  0.00    +0.000 A 
ATOM      6  C   UNL     1       1.214   6.278  20.868  0.00  0.00    +0.000 C 
ATOM      7  C   UNL     1       1.277   7.819  20.755  0.00  0.00    +0.000 C 
ATOM      8  N   UNL     1       1.681   8.303  19.439  0.00  0.00    +0.000 N 
ATOM      9  C   UNL     1       1.436   9.486  18.798  0.00  0.00    +0.000 A 
ATOM     10  N   UNL     1       2.035   9.430  17.613  0.00  0.00    +0.000 NA
ATOM     11  N   UNL     1       2.720   8.232  17.510  0.00  0.00    +0.000 NA
ATOM     12  C   UNL     1       2.503   7.571  18.616  0.00  0.00    +0.000 A 
ENDROOT
BRANCH   9  13
ATOM     13  C   UNL     1       0.666  10.618  19.325  0.00  0.00    +0.000 A 
ATOM     14  C   UNL     1       1.287  11.745  19.879  0.00  0.00    +0.000 A 
ATOM     15  C   UNL     1       0.543  12.826  20.353  0.00  0.00    +0.000 A 
ATOM     16  C   UNL     1      -0.850  12.830  20.242  0.00  0.00    +0.000 A 
ATOM     17  C   UNL     1      -1.485  11.706  19.689  0.00  0.00    +0.000 A 
ATOM     18  C   UNL     1      -0.733  10.612  19.238  0.00  0.00    +0.000 A 
BRANCH  16  19
ATOM     19  C   UNL     1      -1.647  14.040  20.660  0.00  0.00    +0.000 C 
ATOM     20  F   UNL     1      -1.388  15.145  19.905  0.00  0.00    +0.000 F 
ATOM     21  F   UNL     1      -2.989  13.833  20.567  0.00  0.00    +0.000 F 
ATOM     22  F   UNL     1      -1.411  14.405  21.949  0.00  0.00    +0.000 F 
ENDBRANCH  16  19
ENDBRANCH   9  13
BRANCH   3  23
ATOM     23  C   UNL     1       4.783   5.717  17.454  0.00  0.00    +0.000 C 
ATOM     24  C   UNL     1       6.252   5.926  17.833  0.00  0.00    +0.000 C 
ATOM     25  C   UNL     1       6.971   5.842  16.492  0.00  0.00    +0.000 C 
ATOM     26  C   UNL     1       6.140   4.886  15.634  0.00  0.00    +0.000 C 
ATOM     27  C   UNL     1       4.866   4.592  16.425  0.00  0.00    +0.000 C 
ENDBRANCH   3  23
BRANCH   1  29
ATOM     28  C   UNL     1       1.242   2.794  21.067  0.00  0.00    +0.000 C 
ATOM     29  C   UNL     1       2.680   3.283  21.133  0.00  0.00    +0.000 C 
ENDBRANCH   1  29
TORSDOF 4
ENDMDL
MODEL 3
REMARK VINA RESULT:      -8.2      0.945      1.013
REMARK  Name = 
REMARK  5 active torsions:
REMARK  status: ('A' for Active; 'I' for Inactive)
REMARK    1  A    between atoms: C_1  and  C_2
REMARK    2  A    between atoms: C_2  and  C_3
REMARK    3  A    between atoms: N_5  and  C_6
REMARK    4  A    between atoms: C_16  and  C_17
REMARK    5  A    between atoms: C_20  and  C_21
REMARK                            x       y       z     vdW  Elec       q    Type
REMARK                         _______ _______ _______ _____ _____    ______ ____
ROOT
ATOM      1  C   UNL     1       2.623   4.813  20.480  0.00  0.00    +0.000 A 
ATOM      2  N   UNL     1       3.491   4.501  19.500  0.00  0.00    +0.000 NA
ATOM      3  N   UNL     1       3.491   5.583  18.677  0.00  0.00    +0.000 N 
ATOM      4  C   UNL     1       2.640   6.552  19.115  0.00  0.00    +0.000 A 
ATOM      5  C   UNL     1       2.085   6.100  20.291  0.00  0.00    +0.000 A 
ATOM      6  C   UNL     1       1.086   6.912  21.044  0.00  0.00    +0.000 C 
ATOM      7  C   UNL     1       1.272   8.418  20.746  0.00  0.00    +0.000 C 
ATOM      8  N   UNL     1       1.622   8.712  19.360  0.00  0.00    +0.000 N 
ATOM      9  C   UNL     1       1.434   9.834  18.601  0.00  0.00    +0.000 A 
ATOM     10  N   UNL     1       1.941   9.591  17.397  0.00  0.00    +0.000 NA
ATOM     11  N   UNL     1       2.513   8.331  17.394  0.00  0.00    +0.000 NA
ATOM     12  C   UNL     1       2.318   7.820  18.581  0.00  0.00    +0.000 A 
ENDROOT
BRANCH   9  13
ATOM     13  C   UNL     1       0.802  11.084  19.037  0.00  0.00    +0.000 A 
ATOM     14  C   UNL     1      -0.568  11.165  19.319  0.00  0.00    +0.000 A 
ATOM     15  C   UNL     1      -1.151  12.354  19.758  0.00  0.00    +0.000 A 
ATOM     16  C   UNL     1      -0.366  13.490  19.973  0.00  0.00    +0.000 A 
ATOM     17  C   UNL     1       1.008  13.423  19.693  0.00  0.00    +0.000 A 
ATOM     18  C   UNL     1       1.583  12.232  19.228  0.00  0.00    +0.000 A 
BRANCH  16  19
ATOM     19  C   UNL     1      -0.978  14.745  20.544  0.00  0.00    +0.000 C 
ATOM     20  F   UNL     1      -2.341  14.743  20.514  0.00  0.00    +0.000 F 
ATOM     21  F   UNL     1      -0.636  14.941  21.847  0.00  0.00    +0.000 F 
ATOM     22  F   UNL     1      -0.591  15.868  19.880  0.00  0.00    +0.000 F 
ENDBRANCH  16  19
ENDBRANCH   9  13
BRANCH   3  23
ATOM     23  C   UNL     1       4.346   5.645  17.510  0.00  0.00    +0.000 C 
ATOM     24  C   UNL     1       5.814   6.001  17.760  0.00  0.00    +0.000 C 
ATOM     25  C   UNL     1       6.484   5.651  16.437  0.00  0.00    +0.000 C 
ATOM     26  C   UNL     1       5.676   4.491  15.854  0.00  0.00    +0.000 C 
ATOM     27  C   UNL     1       4.451   4.323  16.753  0.00  0.00    +0.000 C 
ENDBRANCH   3  23
BRANCH   1  29
ATOM     28  C   UNL     1       1.490   2.652  21.096  0.00  0.00    +0.000 C 
ATOM     29  C   UNL     1       2.308   3.842  21.570  0.00  0.00    +0.000 C 
ENDBRANCH   1  29
TORSDOF 4
ENDMDL
MODEL 4
REMARK VINA RESULT:      -8.0      1.471      1.665
REMARK  Name = 
REMARK  5 active torsions:
REMARK  status: ('A' for Active; 'I' for Inactive)
REMARK    1  A    between atoms: C_1  and  C_2
REMARK    2  A    between atoms: C_2  and  C_3
REMARK    3  A    between atoms: N_5  and  C_6
REMARK    4  A    between atoms: C_16  and  C_17
REMARK    5  A    between atoms: C_20  and  C_21
REMARK                            x       y       z     vdW  Elec       q    Type
REMARK                         _______ _______ _______ _____ _____    ______ ____
ROOT
ATOM      1  C   UNL     1       3.110   3.561  19.431  0.00  0.00    +0.000 A 
ATOM      2  N   UNL     1       4.079   3.726  18.512  0.00  0.00    +0.000 NA
ATOM      3  N   UNL     1       4.014   5.040  18.169  0.00  0.00    +0.000 N 
ATOM      4  C   UNL     1       3.025   5.690  18.842  0.00  0.00    +0.000 A 
ATOM      5  C   UNL     1       2.441   4.772  19.687  0.00  0.00    +0.000 A 
ATOM      6  C   UNL     1       1.301   5.144  20.572  0.00  0.00    +0.000 C 
ATOM      7  C   UNL     1       1.330   6.656  20.894  0.00  0.00    +0.000 C 
ATOM      8  N   UNL     1       1.746   7.495  19.774  0.00  0.00    +0.000 N 
ATOM      9  C   UNL     1       1.485   8.806  19.484  0.00  0.00    +0.000 A 
ATOM     10  N   UNL     1       2.105   9.093  18.344  0.00  0.00    +0.000 NA
ATOM     11  N   UNL     1       2.820   7.983  17.927  0.00  0.00    +0.000 NA
ATOM     12  C   UNL     1       2.598   7.036  18.799  0.00  0.00    +0.000 A 
ENDROOT
BRANCH   9  13
ATOM     13  C   UNL     1       0.681   9.732  20.287  0.00  0.00    +0.000 A 
ATOM     14  C   UNL     1      -0.144  10.701  19.701  0.00  0.00    +0.000 A 
ATOM     15  C   UNL     1      -0.924  11.559  20.477  0.00  0.00    +0.000 A 
ATOM     16  C   UNL     1      -0.937  11.439  21.869  0.00  0.00    +0.000 A 
ATOM     17  C   UNL     1      -0.115  10.472  22.470  0.00  0.00    +0.000 A 
ATOM     18  C   UNL     1       0.686   9.630  21.685  0.00  0.00    +0.000 A 
BRANCH  16  19
ATOM     19  C   UNL     1      -1.856  12.297  22.702  0.00  0.00    +0.000 C 
ATOM     20  F   UNL     1      -2.664  11.577  23.531  0.00  0.00    +0.000 F 
ATOM     21  F   UNL     1      -1.173  13.159  23.505  0.00  0.00    +0.000 F 
ATOM     22  F   UNL     1      -2.686  13.065  21.946  0.00  0.00    +0.000 F 
ENDBRANCH  16  19
ENDBRANCH   9  13
BRANCH   3  23
ATOM     23  C   UNL     1       4.940   5.619  17.220  0.00  0.00    +0.000 C 
ATOM     24  C   UNL     1       6.297   6.061  17.775  0.00  0.00    +0.000 C 
ATOM     25  C   UNL     1       7.128   6.288  16.518  0.00  0.00    +0.000 C 
ATOM     26  C   UNL     1       6.587   5.306  15.477  0.00  0.00    +0.000 C 
ATOM     27  C   UNL     1       5.339   4.672  16.090  0.00  0.00    +0.000 C 
ENDBRANCH   3  23
BRANCH   1  29
ATOM     28  C   UNL     1       2.677   2.251  21.537  0.00  0.00    +0.000 C 
ATOM     29  C   UNL     1       2.830   2.219  20.025  0.00  0.00    +0.000 C 
ENDBRANCH   1  29
TORSDOF 4
ENDMDL
MODEL 5
REMARK VINA RESULT:      -8.0      1.697      2.116
REMARK  Name = 
REMARK  5 active torsions:
REMARK  status: ('A' for Active; 'I' for Inactive)
REMARK    1  A    between atoms: C_1  and  C_2
REMARK    2  A    between atoms: C_2  and  C_3
REMARK    3  A    between atoms: N_5  and  C_6
REMARK    4  A    between atoms: C_16  and  C_17
REMARK    5  A    between atoms: C_20  and  C_21
REMARK                            x       y       z     vdW  Elec       q    Type
REMARK                         _______ _______ _______ _____ _____    ______ ____
ROOT
ATOM      1  C   UNL     1       3.339   3.488  19.216  0.00  0.00    +0.000 A 
ATOM      2  N   UNL     1       4.332   3.749  18.347  0.00  0.00    +0.000 NA
ATOM      3  N   UNL     1       4.227   5.079  18.086  0.00  0.00    +0.000 N 
ATOM      4  C   UNL     1       3.190   5.647  18.762  0.00  0.00    +0.000 A 
ATOM      5  C   UNL     1       2.613   4.655  19.523  0.00  0.00    +0.000 A 
ATOM      6  C   UNL     1       1.429   4.925  20.388  0.00  0.00    +0.000 C 
ATOM      7  C   UNL     1       1.387   6.413  20.806  0.00  0.00    +0.000 C 
ATOM      8  N   UNL     1       1.808   7.338  19.758  0.00  0.00    +0.000 N 
ATOM      9  C   UNL     1       1.506   8.654  19.542  0.00  0.00    +0.000 A 
ATOM     10  N   UNL     1       2.153   9.038  18.447  0.00  0.00    +0.000 NA
ATOM     11  N   UNL     1       2.925   7.986  17.987  0.00  0.00    +0.000 NA
ATOM     12  C   UNL     1       2.711   6.976  18.789  0.00  0.00    +0.000 A 
ENDROOT
BRANCH   9  13
ATOM     13  C   UNL     1       0.638   9.495  20.372  0.00  0.00    +0.000 A 
ATOM     14  C   UNL     1       0.652   9.425  21.772  0.00  0.00    +0.000 A 
ATOM     15  C   UNL     1      -0.161  10.250  22.550  0.00  0.00    +0.000 A 
ATOM     16  C   UNL     1      -0.981  11.208  21.947  0.00  0.00    +0.000 A 
ATOM     17  C   UNL     1      -1.006  11.289  20.546  0.00  0.00    +0.000 A 
ATOM     18  C   UNL     1      -0.206  10.439  19.769  0.00  0.00    +0.000 A 
BRANCH  16  19
ATOM     19  C   UNL     1      -1.782  12.167  22.791  0.00  0.00    +0.000 C 
ATOM     20  F   UNL     1      -1.009  12.997  23.547  0.00  0.00    +0.000 F 
ATOM     21  F   UNL     1      -2.575  12.980  22.040  0.00  0.00    +0.000 F 
ATOM     22  F   UNL     1      -2.613  11.534  23.663  0.00  0.00    +0.000 F 
ENDBRANCH  16  19
ENDBRANCH   9  13
BRANCH   3  23
ATOM     23  C   UNL     1       5.162   5.754  17.211  0.00  0.00    +0.000 C 
ATOM     24  C   UNL     1       6.431   6.306  17.866  0.00  0.00    +0.000 C 
ATOM     25  C   UNL     1       7.324   6.626  16.674  0.00  0.00    +0.000 C 
ATOM     26  C   UNL     1       6.949   5.615  15.589  0.00  0.00    +0.000 C 
ATOM     27  C   UNL     1       5.723   4.863  16.105  0.00  0.00    +0.000 C 
ENDBRANCH   3  23
BRANCH   1  29
ATOM     28  C   UNL     1       3.679   1.027  18.813  0.00  0.00    +0.000 C 
ATOM     29  C   UNL     1       3.092   2.101  19.713  0.00  0.00    +0.000 C 
ENDBRANCH   1  29
TORSDOF 4
ENDMDL
MODEL 6
REMARK VINA RESULT:      -7.9      1.040      1.223
REMARK  Name = 
REMARK  5 active torsions:
REMARK  status: ('A' for Active; 'I' for Inactive)
REMARK    1  A    between atoms: C_1  and  C_2
REMARK    2  A    between atoms: C_2  and  C_3
REMARK    3  A    between atoms: N_5  and  C_6
REMARK    4  A    between atoms: C_16  and  C_17
REMARK    5  A    between atoms: C_20  and  C_21
REMARK                            x       y       z     vdW  Elec       q    Type
REMARK                         _______ _______ _______ _____ _____    ______ ____
ROOT
ATOM      1  C   UNL     1       3.752   3.696  19.769  0.00  0.00    +0.000 A 
ATOM      2  N   UNL     1       4.710   3.751  18.826  0.00  0.00    +0.000 NA
ATOM      3  N   UNL     1       4.538   4.958  18.224  0.00  0.00    +0.000 N 
ATOM      4  C   UNL     1       3.493   5.647  18.762  0.00  0.00    +0.000 A 
ATOM      5  C   UNL     1       2.982   4.874  19.780  0.00  0.00    +0.000 A 
ATOM      6  C   UNL     1       1.808   5.321  20.584  0.00  0.00    +0.000 C 
ATOM      7  C   UNL     1       1.709   6.864  20.591  0.00  0.00    +0.000 C 
ATOM      8  N   UNL     1       2.061   7.490  19.321  0.00  0.00    +0.000 N 
ATOM      9  C   UNL     1       1.693   8.688  18.773  0.00  0.00    +0.000 A 
ATOM     10  N   UNL     1       2.295   8.789  17.592  0.00  0.00    +0.000 NA
ATOM     11  N   UNL     1       3.103   7.681  17.402  0.00  0.00    +0.000 NA
ATOM     12  C   UNL     1       2.955   6.916  18.451  0.00  0.00    +0.000 A 
ENDROOT
BRANCH   9  13
ATOM     13  C   UNL     1       0.809   9.688  19.380  0.00  0.00    +0.000 A 
ATOM     14  C   UNL     1      -0.328  10.172  18.721  0.00  0.00    +0.000 A 
ATOM     15  C   UNL     1      -1.176  11.104  19.321  0.00  0.00    +0.000 A 
ATOM     16  C   UNL     1      -0.933  11.545  20.625  0.00  0.00    +0.000 A 
ATOM     17  C   UNL     1       0.204  11.069  21.297  0.00  0.00    +0.000 A 
ATOM     18  C   UNL     1       1.065  10.152  20.678  0.00  0.00    +0.000 A 
BRANCH  16  19
ATOM     19  C   UNL     1      -1.904  12.474  21.310  0.00  0.00    +0.000 C 
ATOM     20  F   UNL     1      -2.986  12.786  20.543  0.00  0.00    +0.000 F 
ATOM     21  F   UNL     1      -2.404  11.942  22.460  0.00  0.00    +0.000 F 
ATOM     22  F   UNL     1      -1.339  13.661  21.659  0.00  0.00    +0.000 F 
ENDBRANCH  16  19
ENDBRANCH   9  13
BRANCH   3  23
ATOM     23  C   UNL     1       5.419   5.408  17.168  0.00  0.00    +0.000 C 
ATOM     24  C   UNL     1       6.849   4.862  17.195  0.00  0.00    +0.000 C 
ATOM     25  C   UNL     1       7.386   5.231  15.817  0.00  0.00    +0.000 C 
ATOM     26  C   UNL     1       6.177   5.214  14.880  0.00  0.00    +0.000 C 
ATOM     27  C   UNL     1       4.946   5.025  15.766  0.00  0.00    +0.000 C 
ENDBRANCH   3  23
BRANCH   1  29
ATOM     28  C   UNL     1       4.804   1.584  20.645  0.00  0.00    +0.000 C 
ATOM     29  C   UNL     1       3.581   2.484  20.626  0.00  0.00    +0.000 C 
ENDBRANCH   1  29
TORSDOF 4
ENDMDL
MODEL 7
REMARK VINA RESULT:      -7.9      0.779      1.415
REMARK  Name = 
REMARK  5 active torsions:
REMARK  status: ('A' for Active; 'I' for Inactive)
REMARK    1  A    between atoms: C_1  and  C_2
REMARK    2  A    between atoms: C_2  and  C_3
REMARK    3  A    between atoms: N_5  and  C_6
REMARK    4  A    between atoms: C_16  and  C_17
REMARK    5  A    between atoms: C_20  and  C_21
REMARK                            x       y       z     vdW  Elec       q    Type
REMARK                         _______ _______ _______ _____ _____    ______ ____
ROOT
ATOM      1  C   UNL     1       3.573   3.834  19.845  0.00  0.00    +0.000 A 
ATOM      2  N   UNL     1       4.558   3.865  18.927  0.00  0.00    +0.000 NA
ATOM      3  N   UNL     1       4.422   5.068  18.310  0.00  0.00    +0.000 N 
ATOM      4  C   UNL     1       3.374   5.779  18.813  0.00  0.00    +0.000 A 
ATOM      5  C   UNL     1       2.823   5.025  19.824  0.00  0.00    +0.000 A 
ATOM      6  C   UNL     1       1.636   5.499  20.591  0.00  0.00    +0.000 C 
ATOM      7  C   UNL     1       1.562   7.044  20.582  0.00  0.00    +0.000 C 
ATOM      8  N   UNL     1       1.959   7.651  19.316  0.00  0.00    +0.000 N 
ATOM      9  C   UNL     1       1.626   8.850  18.748  0.00  0.00    +0.000 A 
ATOM     10  N   UNL     1       2.261   8.929  17.583  0.00  0.00    +0.000 NA
ATOM     11  N   UNL     1       3.055   7.807  17.424  0.00  0.00    +0.000 NA
ATOM     12  C   UNL     1       2.867   7.054  18.476  0.00  0.00    +0.000 A 
ENDROOT
BRANCH   9  13
ATOM     13  C   UNL     1       0.742   9.870  19.321  0.00  0.00    +0.000 A 
ATOM     14  C   UNL     1       1.108  10.624  20.444  0.00  0.00    +0.000 A 
ATOM     15  C   UNL     1       0.267  11.609  20.963  0.00  0.00    +0.000 A 
ATOM     16  C   UNL     1      -0.949  11.902  20.341  0.00  0.00    +0.000 A 
ATOM     17  C   UNL     1      -1.328  11.154  19.216  0.00  0.00    +0.000 A 
ATOM     18  C   UNL     1      -0.491  10.147  18.714  0.00  0.00    +0.000 A 
BRANCH  16  19
ATOM     19  C   UNL     1      -1.809  13.035  20.841  0.00  0.00    +0.000 C 
ATOM     20  F   UNL     1      -1.504  14.237  20.275  0.00  0.00    +0.000 F 
ATOM     21  F   UNL     1      -3.132  12.832  20.589  0.00  0.00    +0.000 F 
ATOM     22  F   UNL     1      -1.707  13.219  22.186  0.00  0.00    +0.000 F 
ENDBRANCH  16  19
ENDBRANCH   9  13
BRANCH   3  23
ATOM     23  C   UNL     1       5.339   5.494  17.274  0.00  0.00    +0.000 C 
ATOM     24  C   UNL     1       6.776   4.976  17.382  0.00  0.00    +0.000 C 
ATOM     25  C   UNL     1       7.364   5.302  16.014  0.00  0.00    +0.000 C 
ATOM     26  C   UNL     1       6.195   5.227  15.029  0.00  0.00    +0.000 C 
ATOM     27  C   UNL     1       4.932   5.049  15.871  0.00  0.00    +0.000 C 
ENDBRANCH   3  23
BRANCH   1  29
ATOM     28  C   UNL     1       4.565   1.710  20.763  0.00  0.00    +0.000 C 
ATOM     29  C   UNL     1       3.359   2.634  20.707  0.00  0.00    +0.000 C 
ENDBRANCH   1  29
TORSDOF 4
ENDMDL
MODEL 8
REMARK VINA RESULT:      -7.8      1.551      3.904
REMARK  Name = 
REMARK  5 active torsions:
REMARK  status: ('A' for Active; 'I' for Inactive)
REMARK    1  A    between atoms: C_1  and  C_2
REMARK    2  A    between atoms: C_2  and  C_3
REMARK    3  A    between atoms: N_5  and  C_6
REMARK    4  A    between atoms: C_16  and  C_17
REMARK    5  A    between atoms: C_20  and  C_21
REMARK                            x       y       z     vdW  Elec       q    Type
REMARK                         _______ _______ _______ _____ _____    ______ ____
ROOT
ATOM      1  C   UNL     1       3.766   6.642  17.581  0.00  0.00    +0.000 A 
ATOM      2  N   UNL     1       3.709   5.507  18.301  0.00  0.00    +0.000 NA
ATOM      3  N   UNL     1       2.901   5.801  19.354  0.00  0.00    +0.000 N 
ATOM      4  C   UNL     1       2.464   7.090  19.311  0.00  0.00    +0.000 A 
ATOM      5  C   UNL     1       2.979   7.653  18.165  0.00  0.00    +0.000 A 
ATOM      6  C   UNL     1       2.710   9.075  17.806  0.00  0.00    +0.000 C 
ATOM      7  C   UNL     1       1.378   9.552  18.431  0.00  0.00    +0.000 C 
ATOM      8  N   UNL     1       1.129   9.031  19.771  0.00  0.00    +0.000 N 
ATOM      9  C   UNL     1       0.375   9.520  20.802  0.00  0.00    +0.000 A 
ATOM     10  N   UNL     1       0.476   8.661  21.812  0.00  0.00    +0.000 NA
ATOM     11  N   UNL     1       1.248   7.583  21.413  0.00  0.00    +0.000 NA
ATOM     12  C   UNL     1       1.625   7.819  20.184  0.00  0.00    +0.000 A 
ENDROOT
BRANCH   9  13
ATOM     13  C   UNL     1      -0.413  10.756  20.795  0.00  0.00    +0.000 A 
ATOM     14  C   UNL     1      -1.272  11.084  19.738  0.00  0.00    +0.000 A 
ATOM     15  C   UNL     1      -2.036  12.252  19.756  0.00  0.00    +0.000 A 
ATOM     16  C   UNL     1      -1.997  13.105  20.862  0.00  0.00    +0.000 A 
ATOM     17  C   UNL     1      -1.141  12.789  21.928  0.00  0.00    +0.000 A 
ATOM     18  C   UNL     1      -0.357  11.627  21.892  0.00  0.00    +0.000 A 
BRANCH  16  19
ATOM     19  C   UNL     1      -2.898  14.313  20.926  0.00  0.00    +0.000 C 
ATOM     20  F   UNL     1      -3.116  14.758  22.196  0.00  0.00    +0.000 F 
ATOM     21  F   UNL     1      -2.390  15.375  20.242  0.00  0.00    +0.000 F 
ATOM     22  F   UNL     1      -4.130  14.079  20.396  0.00  0.00    +0.000 F 
ENDBRANCH  16  19
ENDBRANCH   9  13
BRANCH   3  23
ATOM     23  C   UNL     1       2.559   4.804  20.346  0.00  0.00    +0.000 C 
ATOM     24  C   UNL     1       1.131   4.252  20.293  0.00  0.00    +0.000 C 
ATOM     25  C   UNL     1       1.200   3.028  21.198  0.00  0.00    +0.000 C 
ATOM     26  C   UNL     1       2.631   2.500  21.077  0.00  0.00    +0.000 C 
ATOM     27  C   UNL     1       3.405   3.536  20.261  0.00  0.00    +0.000 C 
ENDBRANCH   3  23
BRANCH   1  29
ATOM     28  C   UNL     1       5.181   5.399  15.912  0.00  0.00    +0.000 C 
ATOM     29  C   UNL     1       4.609   6.736  16.352  0.00  0.00    +0.000 C 
ENDBRANCH   1  29
TORSDOF 4
ENDMDL
MODEL 9
REMARK VINA RESULT:      -7.7      1.024      1.357
REMARK  Name = 
REMARK  5 active torsions:
REMARK  status: ('A' for Active; 'I' for Inactive)
REMARK    1  A    between atoms: C_1  and  C_2
REMARK    2  A    between atoms: C_2  and  C_3
REMARK    3  A    between atoms: N_5  and  C_6
REMARK    4  A    between atoms: C_16  and  C_17
REMARK    5  A    between atoms: C_20  and  C_21
REMARK                            x       y       z     vdW  Elec       q    Type
REMARK                         _______ _______ _______ _____ _____    ______ ____
ROOT
ATOM      1  C   UNL     1       3.590   3.673  19.663  0.00  0.00    +0.000 A 
ATOM      2  N   UNL     1       4.468   3.649  18.644  0.00  0.00    +0.000 NA
ATOM      3  N   UNL     1       4.333   4.859  18.038  0.00  0.00    +0.000 N 
ATOM      4  C   UNL     1       3.388   5.627  18.649  0.00  0.00    +0.000 A 
ATOM      5  C   UNL     1       2.909   4.904  19.718  0.00  0.00    +0.000 A 
ATOM      6  C   UNL     1       1.841   5.443  20.607  0.00  0.00    +0.000 C 
ATOM      7  C   UNL     1       1.853   6.989  20.598  0.00  0.00    +0.000 C 
ATOM      8  N   UNL     1       2.142   7.575  19.293  0.00  0.00    +0.000 N 
ATOM      9  C   UNL     1       1.817   8.791  18.758  0.00  0.00    +0.000 A 
ATOM     10  N   UNL     1       2.325   8.836  17.531  0.00  0.00    +0.000 NA
ATOM     11  N   UNL     1       3.033   7.670  17.292  0.00  0.00    +0.000 NA
ATOM     12  C   UNL     1       2.919   6.929  18.362  0.00  0.00    +0.000 A 
ENDROOT
BRANCH   9  13
ATOM     13  C   UNL     1       1.059   9.858  19.419  0.00  0.00    +0.000 A 
ATOM     14  C   UNL     1       0.131   9.592  20.434  0.00  0.00    +0.000 A 
ATOM     15  C   UNL     1      -0.564  10.619  21.072  0.00  0.00    +0.000 A 
ATOM     16  C   UNL     1      -0.313  11.954  20.744  0.00  0.00    +0.000 A 
ATOM     17  C   UNL     1       0.614  12.236  19.728  0.00  0.00    +0.000 A 
ATOM     18  C   UNL     1       1.291  11.197  19.073  0.00  0.00    +0.000 A 
BRANCH  16  19
ATOM     19  C   UNL     1      -0.989  13.068  21.504  0.00  0.00    +0.000 C 
ATOM     20  F   UNL     1      -0.733  13.041  22.843  0.00  0.00    +0.000 F 
ATOM     21  F   UNL     1      -0.596  14.299  21.075  0.00  0.00    +0.000 F 
ATOM     22  F   UNL     1      -2.344  13.041  21.382  0.00  0.00    +0.000 F 
ENDBRANCH  16  19
ENDBRANCH   9  13
BRANCH   3  23
ATOM     23  C   UNL     1       5.154   5.233  16.907  0.00  0.00    +0.000 C 
ATOM     24  C   UNL     1       6.668   5.089  17.085  0.00  0.00    +0.000 C 
ATOM     25  C   UNL     1       7.198   5.220  15.663  0.00  0.00    +0.000 C 
ATOM     26  C   UNL     1       6.099   4.663  14.755  0.00  0.00    +0.000 C 
ATOM     27  C   UNL     1       4.889   4.403  15.653  0.00  0.00    +0.000 C 
ENDBRANCH   3  23
BRANCH   1  29
ATOM     28  C   UNL     1       4.685   1.703  20.783  0.00  0.00    +0.000 C 
ATOM     29  C   UNL     1       3.404   2.486  20.550  0.00  0.00    +0.000 C 
ENDBRANCH   1  29
TORSDOF 4
ENDMDL
