MODEL 1
REMARK VINA RESULT:      -6.6      0.000      0.000
REMARK  Name = 
REMARK  16 active torsions:
REMARK  status: ('A' for Active; 'I' for Inactive)
REMARK    1  A    between atoms: C_4  and  O_5
REMARK    2  A    between atoms: C_8  and  O_9
REMARK    3  A    between atoms: C_14  and  N_15
REMARK    4  A    between atoms: N_15  and  C_16
REMARK    5  A    between atoms: C_16  and  C_17
REMARK    6  A    between atoms: C_17  and  O_18
REMARK    7  A    between atoms: O_18  and  C_19
REMARK    8  A    between atoms: C_19  and  C_20
REMARK    9  A    between atoms: C_20  and  O_21
REMARK   10  A    between atoms: C_24  and  N_25
REMARK   11  A    between atoms: N_25  and  C_26
REMARK   12  A    between atoms: C_26  and  C_27
REMARK   13  A    between atoms: C_27  and  N_28
REMARK   14  A    between atoms: N_28  and  C_29
REMARK   15  A    between atoms: C_29  and  C_30
REMARK   16  A    between atoms: C_30  and  O_31
REMARK                            x       y       z     vdW  Elec       q    Type
REMARK                         _______ _______ _______ _____ _____    ______ ____
ROOT
ATOM      1  O   UNL     1       3.250   8.248  16.706  0.00  0.00    +0.000 OA
ATOM      2  C   UNL     1       3.024   7.819  17.839  0.00  0.00    +0.000 C 
ATOM      3  C   UNL     1       2.111   8.639  18.681  0.00  0.00    +0.000 A 
ATOM      4  C   UNL     1       1.702   9.921  18.258  0.00  0.00    +0.000 A 
ATOM      5  C   UNL     1       0.812  10.685  19.011  0.00  0.00    +0.000 A 
ATOM      6  C   UNL     1       0.309  10.180  20.202  0.00  0.00    +0.000 A 
ATOM      7  C   UNL     1       0.714   8.919  20.641  0.00  0.00    +0.000 A 
ATOM      8  C   UNL     1       1.618   8.134  19.880  0.00  0.00    +0.000 A 
ATOM      9  C   UNL     1       2.010   6.764  20.296  0.00  0.00    +0.000 C 
ATOM     10  O   UNL     1       1.447   6.225  21.246  0.00  0.00    +0.000 OA
ATOM     11  C   UNL     1       3.077   6.022  19.551  0.00  0.00    +0.000 A 
ATOM     12  C   UNL     1       3.539   4.773  20.059  0.00  0.00    +0.000 A 
ATOM     13  C   UNL     1       4.540   4.106  19.363  0.00  0.00    +0.000 A 
ATOM     14  C   UNL     1       5.071   4.625  18.200  0.00  0.00    +0.000 A 
ATOM     15  C   UNL     1       4.630   5.838  17.651  0.00  0.00    +0.000 A 
ATOM     16  C   UNL     1       3.613   6.552  18.356  0.00  0.00    +0.000 A 
ENDROOT
BRANCH   4  17
ATOM     17  O   UNL     1       2.129  10.503  17.095  0.00  0.00    +0.000 OA
ATOM     18  H   UNL     1       3.112  10.416  17.065  0.00  0.00    +0.000 HD
ENDBRANCH   4  17
BRANCH  15  19
ATOM     19  N   UNL     1       5.232   6.286  16.453  0.00  0.00    +0.000 N 
ATOM     20  H   UNL     1       5.677   7.196  16.574  0.00  0.00    +0.000 HD
BRANCH  19  21
ATOM     21  C   UNL     1       6.119   5.344  15.744  0.00  0.00    +0.000 C 
BRANCH  21  22
ATOM     22  C   UNL     1       5.429   4.612  14.587  0.00  0.00    +0.000 C 
BRANCH  22  23
ATOM     23  N   UNL     1       6.295   3.575  14.008  0.00  0.00    +0.000 NA
ATOM     24  H   UNL     1       5.864   2.671  14.188  0.00  0.00    +0.000 HD
BRANCH  23  25
ATOM     25  C   UNL     1       6.401   3.769  12.552  0.00  0.00    +0.000 C 
BRANCH  25  26
ATOM     26  C   UNL     1       5.823   2.557  11.822  0.00  0.00    +0.000 C 
BRANCH  26  27
ATOM     27  O   UNL     1       6.862   1.634  11.502  0.00  0.00    +0.000 OA
ATOM     28  H   UNL     1       6.615   1.248  10.644  0.00  0.00    +0.000 HD
ENDBRANCH  26  27
ENDBRANCH  25  26
ENDBRANCH  23  25
ENDBRANCH  22  23
ENDBRANCH  21  22
ENDBRANCH  19  21
ENDBRANCH  15  19
BRANCH  12  29
ATOM     29  N   UNL     1       3.047   4.203  21.221  0.00  0.00    +0.000 N 
ATOM     30  H   UNL     1       3.200   4.734  22.085  0.00  0.00    +0.000 HD
BRANCH  29  31
ATOM     31  C   UNL     1       2.626   2.816  21.340  0.00  0.00    +0.000 C 
BRANCH  31  32
ATOM     32  C   UNL     1       1.110   2.691  21.175  0.00  0.00    +0.000 C 
BRANCH  32  33
ATOM     33  O   UNL     1       0.719   3.266  19.923  0.00  0.00    +0.000 OA
BRANCH  33  34
ATOM     34  C   UNL     1       0.827   2.319  18.857  0.00  0.00    +0.000 C 
BRANCH  34  35
ATOM     35  C   UNL     1       1.718   2.909  17.770  0.00  0.00    +0.000 C 
BRANCH  35  36
ATOM     36  O   UNL     1       1.177   4.144  17.302  0.00  0.00    +0.000 OA
ATOM     37  H   UNL     1       1.424   4.186  16.358  0.00  0.00    +0.000 HD
ENDBRANCH  35  36
ENDBRANCH  34  35
ENDBRANCH  33  34
ENDBRANCH  32  33
ENDBRANCH  31  32
ENDBRANCH  29  31
ENDBRANCH  12  29
BRANCH   7  38
ATOM     38  O   UNL     1       0.206   8.478  21.833  0.00  0.00    +0.000 OA
ATOM     39  H   UNL     1      -0.400   7.741  21.698  0.00  0.00    +0.000 HD
ENDBRANCH   7  38
TORSDOF 16
ENDMDL
MODEL 2
REMARK VINA RESULT:      -6.4      1.156      1.290
REMARK  Name = 
REMARK  16 active torsions:
REMARK  status: ('A' for Active; 'I' for Inactive)
REMARK    1  A    between atoms: C_4  and  O_5
REMARK    2  A    between atoms: C_8  and  O_9
REMARK    3  A    between atoms: C_14  and  N_15
REMARK    4  A    between atoms: N_15  and  C_16
REMARK    5  A    between atoms: C_16  and  C_17
REMARK    6  A    between atoms: C_17  and  O_18
REMARK    7  A    between atoms: O_18  and  C_19
REMARK    8  A    between atoms: C_19  and  C_20
REMARK    9  A    between atoms: C_20  and  O_21
REMARK   10  A    between atoms: C_24  and  N_25
REMARK   11  A    between atoms: N_25  and  C_26
REMARK   12  A    between atoms: C_26  and  C_27
REMARK   13  A    between atoms: C_27  and  N_28
REMARK   14  A    between atoms: N_28  and  C_29
REMARK   15  A    between atoms: C_29  and  C_30
REMARK   16  A    between atoms: C_30  and  O_31
REMARK                            x       y       z     vdW  Elec       q    Type
REMARK                         _______ _______ _______ _____ _____    ______ ____
ROOT
ATOM      1  O   UNL     1       3.060   8.561  16.892  0.00  0.00    +0.000 OA
ATOM      2  C   UNL     1       2.773   8.144  18.016  0.00  0.00    +0.000 C 
ATOM      3  C   UNL     1       1.852   8.996  18.816  0.00  0.00    +0.000 A 
ATOM      4  C   UNL     1       1.504  10.289  18.373  0.00  0.00    +0.000 A 
ATOM      5  C   UNL     1       0.608  11.085  19.086  0.00  0.00    +0.000 A 
ATOM      6  C   UNL     1       0.038  10.602  20.255  0.00  0.00    +0.000 A 
ATOM      7  C   UNL     1       0.383   9.330  20.714  0.00  0.00    +0.000 A 
ATOM      8  C   UNL     1       1.293   8.512  19.994  0.00  0.00    +0.000 A 
ATOM      9  C   UNL     1       1.621   7.132  20.430  0.00  0.00    +0.000 C 
ATOM     10  O   UNL     1       1.001   6.616  21.357  0.00  0.00    +0.000 OA
ATOM     11  C   UNL     1       2.694   6.353  19.733  0.00  0.00    +0.000 A 
ATOM     12  C   UNL     1       3.093   5.092  20.263  0.00  0.00    +0.000 A 
ATOM     13  C   UNL     1       4.099   4.389  19.613  0.00  0.00    +0.000 A 
ATOM     14  C   UNL     1       4.696   4.886  18.472  0.00  0.00    +0.000 A 
ATOM     15  C   UNL     1       4.319   6.110  17.902  0.00  0.00    +0.000 A 
ATOM     16  C   UNL     1       3.297   6.860  18.561  0.00  0.00    +0.000 A 
ENDROOT
BRANCH   4  17
ATOM     17  O   UNL     1       1.998  10.853  17.227  0.00  0.00    +0.000 OA
ATOM     18  H   UNL     1       2.252  10.115  16.622  0.00  0.00    +0.000 HD
ENDBRANCH   4  17
BRANCH  15  19
ATOM     19  N   UNL     1       4.986   6.534  16.729  0.00  0.00    +0.000 N 
ATOM     20  H   UNL     1       4.689   7.468  16.445  0.00  0.00    +0.000 HD
BRANCH  19  21
ATOM     21  C   UNL     1       6.455   6.405  16.698  0.00  0.00    +0.000 C 
BRANCH  21  22
ATOM     22  C   UNL     1       6.940   5.119  16.017  0.00  0.00    +0.000 C 
BRANCH  22  23
ATOM     23  N   UNL     1       6.832   5.207  14.554  0.00  0.00    +0.000 NA
ATOM     24  H   UNL     1       7.775   5.221  14.171  0.00  0.00    +0.000 HD
BRANCH  23  25
ATOM     25  C   UNL     1       6.127   4.024  14.034  0.00  0.00    +0.000 C 
BRANCH  25  26
ATOM     26  C   UNL     1       6.541   3.765  12.586  0.00  0.00    +0.000 C 
BRANCH  26  27
ATOM     27  O   UNL     1       6.286   2.406  12.236  0.00  0.00    +0.000 OA
ATOM     28  H   UNL     1       6.527   1.884  13.020  0.00  0.00    +0.000 HD
ENDBRANCH  26  27
ENDBRANCH  25  26
ENDBRANCH  23  25
ENDBRANCH  22  23
ENDBRANCH  21  22
ENDBRANCH  19  21
ENDBRANCH  15  19
BRANCH  12  29
ATOM     29  N   UNL     1       2.533   4.542  21.405  0.00  0.00    +0.000 N 
ATOM     30  H   UNL     1       2.833   4.950  22.297  0.00  0.00    +0.000 HD
BRANCH  29  31
ATOM     31  C   UNL     1       1.822   3.274  21.442  0.00  0.00    +0.000 C 
BRANCH  31  32
ATOM     32  C   UNL     1       1.132   2.998  20.105  0.00  0.00    +0.000 C 
BRANCH  32  33
ATOM     33  O   UNL     1       1.732   1.854  19.487  0.00  0.00    +0.000 OA
BRANCH  33  34
ATOM     34  C   UNL     1       1.899   2.048  18.080  0.00  0.00    +0.000 C 
BRANCH  34  35
ATOM     35  C   UNL     1       3.358   1.786  17.724  0.00  0.00    +0.000 C 
BRANCH  35  36
ATOM     36  O   UNL     1       3.871   0.704  18.499  0.00  0.00    +0.000 OA
ATOM     37  H   UNL     1       3.326  -0.067  18.250  0.00  0.00    +0.000 HD
ENDBRANCH  35  36
ENDBRANCH  34  35
ENDBRANCH  33  34
ENDBRANCH  32  33
ENDBRANCH  31  32
ENDBRANCH  29  31
ENDBRANCH  12  29
BRANCH   7  38
ATOM     38  O   UNL     1      -0.190   8.910  21.885  0.00  0.00    +0.000 OA
ATOM     39  H   UNL     1      -0.458   7.987  21.826  0.00  0.00    +0.000 HD
ENDBRANCH   7  38
TORSDOF 16
ENDMDL
MODEL 3
REMARK VINA RESULT:      -6.2      1.394      1.623
REMARK  Name = 
REMARK  16 active torsions:
REMARK  status: ('A' for Active; 'I' for Inactive)
REMARK    1  A    between atoms: C_4  and  O_5
REMARK    2  A    between atoms: C_8  and  O_9
REMARK    3  A    between atoms: C_14  and  N_15
REMARK    4  A    between atoms: N_15  and  C_16
REMARK    5  A    between atoms: C_16  and  C_17
REMARK    6  A    between atoms: C_17  and  O_18
REMARK    7  A    between atoms: O_18  and  C_19
REMARK    8  A    between atoms: C_19  and  C_20
REMARK    9  A    between atoms: C_20  and  O_21
REMARK   10  A    between atoms: C_24  and  N_25
REMARK   11  A    between atoms: N_25  and  C_26
REMARK   12  A    between atoms: C_26  and  C_27
REMARK   13  A    between atoms: C_27  and  N_28
REMARK   14  A    between atoms: N_28  and  C_29
REMARK   15  A    between atoms: C_29  and  C_30
REMARK   16  A    between atoms: C_30  and  O_31
REMARK                            x       y       z     vdW  Elec       q    Type
REMARK                         _______ _______ _______ _____ _____    ______ ____
ROOT
ATOM      1  O   UNL     1       2.912   8.572  16.991  0.00  0.00    +0.000 OA
ATOM      2  C   UNL     1       2.645   8.169  18.125  0.00  0.00    +0.000 C 
ATOM      3  C   UNL     1       1.736   9.028  18.930  0.00  0.00    +0.000 A 
ATOM      4  C   UNL     1       1.376  10.314  18.476  0.00  0.00    +0.000 A 
ATOM      5  C   UNL     1       0.490  11.116  19.194  0.00  0.00    +0.000 A 
ATOM      6  C   UNL     1      -0.058  10.647  20.379  0.00  0.00    +0.000 A 
ATOM      7  C   UNL     1       0.300   9.382  20.849  0.00  0.00    +0.000 A 
ATOM      8  C   UNL     1       1.199   8.558  20.124  0.00  0.00    +0.000 A 
ATOM      9  C   UNL     1       1.540   7.184  20.571  0.00  0.00    +0.000 C 
ATOM     10  O   UNL     1       0.938   6.679  21.516  0.00  0.00    +0.000 OA
ATOM     11  C   UNL     1       2.602   6.400  19.866  0.00  0.00    +0.000 A 
ATOM     12  C   UNL     1       3.015   5.147  20.405  0.00  0.00    +0.000 A 
ATOM     13  C   UNL     1       4.012   4.439  19.746  0.00  0.00    +0.000 A 
ATOM     14  C   UNL     1       4.587   4.923  18.589  0.00  0.00    +0.000 A 
ATOM     15  C   UNL     1       4.196   6.139  18.009  0.00  0.00    +0.000 A 
ATOM     16  C   UNL     1       3.184   6.894  18.677  0.00  0.00    +0.000 A 
ENDROOT
BRANCH   4  17
ATOM     17  O   UNL     1       1.848  10.864  17.315  0.00  0.00    +0.000 OA
ATOM     18  H   UNL     1       2.830  10.760  17.318  0.00  0.00    +0.000 HD
ENDBRANCH   4  17
BRANCH  15  19
ATOM     19  N   UNL     1       4.841   6.549  16.820  0.00  0.00    +0.000 N 
ATOM     20  H   UNL     1       4.200   7.037  16.195  0.00  0.00    +0.000 HD
BRANCH  19  21
ATOM     21  C   UNL     1       6.117   7.277  16.955  0.00  0.00    +0.000 C 
BRANCH  21  22
ATOM     22  C   UNL     1       7.336   6.353  17.071  0.00  0.00    +0.000 C 
BRANCH  22  23
ATOM     23  N   UNL     1       7.591   5.631  15.817  0.00  0.00    +0.000 NA
ATOM     24  H   UNL     1       8.597   5.615  15.664  0.00  0.00    +0.000 HD
BRANCH  23  25
ATOM     25  C   UNL     1       7.107   4.245  15.932  0.00  0.00    +0.000 C 
BRANCH  25  26
ATOM     26  C   UNL     1       6.259   3.886  14.712  0.00  0.00    +0.000 C 
BRANCH  26  27
ATOM     27  O   UNL     1       5.262   4.883  14.495  0.00  0.00    +0.000 OA
ATOM     28  H   UNL     1       4.439   4.397  14.321  0.00  0.00    +0.000 HD
ENDBRANCH  26  27
ENDBRANCH  25  26
ENDBRANCH  23  25
ENDBRANCH  22  23
ENDBRANCH  21  22
ENDBRANCH  19  21
ENDBRANCH  15  19
BRANCH  12  29
ATOM     29  N   UNL     1       2.477   4.610  21.563  0.00  0.00    +0.000 N 
ATOM     30  H   UNL     1       2.621   5.153  22.422  0.00  0.00    +0.000 HD
BRANCH  29  31
ATOM     31  C   UNL     1       2.017   3.237  21.695  0.00  0.00    +0.000 C 
BRANCH  31  32
ATOM     32  C   UNL     1       1.007   2.893  20.599  0.00  0.00    +0.000 C 
BRANCH  32  33
ATOM     33  O   UNL     1       1.551   1.871  19.755  0.00  0.00    +0.000 OA
BRANCH  33  34
ATOM     34  C   UNL     1       1.029   1.959  18.427  0.00  0.00    +0.000 C 
BRANCH  34  35
ATOM     35  C   UNL     1       1.887   2.936  17.631  0.00  0.00    +0.000 C 
BRANCH  35  36
ATOM     36  O   UNL     1       1.200   4.175  17.462  0.00  0.00    +0.000 OA
ATOM     37  H   UNL     1       1.901   4.831  17.283  0.00  0.00    +0.000 HD
ENDBRANCH  35  36
ENDBRANCH  34  35
ENDBRANCH  33  34
ENDBRANCH  32  33
ENDBRANCH  31  32
ENDBRANCH  29  31
ENDBRANCH  12  29
BRANCH   7  38
ATOM     38  O   UNL     1      -0.251   8.976  22.035  0.00  0.00    +0.000 OA
ATOM     39  H   UNL     1      -0.316   8.015  22.074  0.00  0.00    +0.000 HD
ENDBRANCH   7  38
TORSDOF 16
ENDMDL
MODEL 4
REMARK VINA RESULT:      -6.2      2.050      5.467
REMARK  Name = 
REMARK  16 active torsions:
REMARK  status: ('A' for Active; 'I' for Inactive)
REMARK    1  A    between atoms: C_4  and  O_5
REMARK    2  A    between atoms: C_8  and  O_9
REMARK    3  A    between atoms: C_14  and  N_15
REMARK    4  A    between atoms: N_15  and  C_16
REMARK    5  A    between atoms: C_16  and  C_17
REMARK    6  A    between atoms: C_17  and  O_18
REMARK    7  A    between atoms: O_18  and  C_19
REMARK    8  A    between atoms: C_19  and  C_20
REMARK    9  A    between atoms: C_20  and  O_21
REMARK   10  A    between atoms: C_24  and  N_25
REMARK   11  A    between atoms: N_25  and  C_26
REMARK   12  A    between atoms: C_26  and  C_27
REMARK   13  A    between atoms: C_27  and  N_28
REMARK   14  A    between atoms: N_28  and  C_29
REMARK   15  A    between atoms: C_29  and  C_30
REMARK   16  A    between atoms: C_30  and  O_31
REMARK                            x       y       z     vdW  Elec       q    Type
REMARK                         _______ _______ _______ _____ _____    ______ ____
ROOT
ATOM      1  O   UNL     1       6.122   3.797  19.152  0.00  0.00    +0.000 OA
ATOM      2  C   UNL     1       5.016   4.329  19.035  0.00  0.00    +0.000 C 
ATOM      3  C   UNL     1       3.902   3.700  19.796  0.00  0.00    +0.000 A 
ATOM      4  C   UNL     1       4.085   2.460  20.442  0.00  0.00    +0.000 A 
ATOM      5  C   UNL     1       3.068   1.876  21.196  0.00  0.00    +0.000 A 
ATOM      6  C   UNL     1       1.848   2.524  21.323  0.00  0.00    +0.000 A 
ATOM      7  C   UNL     1       1.646   3.746  20.679  0.00  0.00    +0.000 A 
ATOM      8  C   UNL     1       2.676   4.348  19.911  0.00  0.00    +0.000 A 
ATOM      9  C   UNL     1       2.505   5.677  19.273  0.00  0.00    +0.000 C 
ATOM     10  O   UNL     1       1.506   6.351  19.514  0.00  0.00    +0.000 OA
ATOM     11  C   UNL     1       3.555   6.215  18.350  0.00  0.00    +0.000 A 
ATOM     12  C   UNL     1       3.299   7.421  17.635  0.00  0.00    +0.000 A 
ATOM     13  C   UNL     1       4.278   7.898  16.771  0.00  0.00    +0.000 A 
ATOM     14  C   UNL     1       5.477   7.234  16.612  0.00  0.00    +0.000 A 
ATOM     15  C   UNL     1       5.780   6.057  17.312  0.00  0.00    +0.000 A 
ATOM     16  C   UNL     1       4.784   5.537  18.194  0.00  0.00    +0.000 A 
ENDROOT
BRANCH   4  17
ATOM     17  O   UNL     1       5.253   1.747  20.390  0.00  0.00    +0.000 OA
ATOM     18  H   UNL     1       5.393   1.481  19.450  0.00  0.00    +0.000 HD
ENDBRANCH   4  17
BRANCH  15  19
ATOM     19  N   UNL     1       7.037   5.450  17.085  0.00  0.00    +0.000 N 
ATOM     20  H   UNL     1       7.524   5.257  17.960  0.00  0.00    +0.000 HD
BRANCH  19  21
ATOM     21  C   UNL     1       7.076   4.286  16.180  0.00  0.00    +0.000 C 
BRANCH  21  22
ATOM     22  C   UNL     1       6.952   4.661  14.699  0.00  0.00    +0.000 C 
BRANCH  22  23
ATOM     23  N   UNL     1       6.072   3.733  13.976  0.00  0.00    +0.000 NA
ATOM     24  H   UNL     1       5.121   4.092  14.035  0.00  0.00    +0.000 HD
BRANCH  23  25
ATOM     25  C   UNL     1       6.467   3.671  12.559  0.00  0.00    +0.000 C 
BRANCH  25  26
ATOM     26  C   UNL     1       5.549   2.711  11.803  0.00  0.00    +0.000 C 
BRANCH  26  27
ATOM     27  O   UNL     1       6.239   1.498  11.510  0.00  0.00    +0.000 OA
ATOM     28  H   UNL     1       7.175   1.675  11.705  0.00  0.00    +0.000 HD
ENDBRANCH  26  27
ENDBRANCH  25  26
ENDBRANCH  23  25
ENDBRANCH  22  23
ENDBRANCH  21  22
ENDBRANCH  19  21
ENDBRANCH  15  19
BRANCH  12  29
ATOM     29  N   UNL     1       2.116   8.131  17.752  0.00  0.00    +0.000 N 
ATOM     30  H   UNL     1       1.258   7.621  17.516  0.00  0.00    +0.000 HD
BRANCH  29  31
ATOM     31  C   UNL     1       2.035   9.578  17.874  0.00  0.00    +0.000 C 
BRANCH  31  32
ATOM     32  C   UNL     1       0.825   9.986  18.716  0.00  0.00    +0.000 C 
BRANCH  32  33
ATOM     33  O   UNL     1      -0.359   9.916  17.912  0.00  0.00    +0.000 OA
BRANCH  33  34
ATOM     34  C   UNL     1      -1.475  10.515  18.574  0.00  0.00    +0.000 C 
BRANCH  34  35
ATOM     35  C   UNL     1      -1.304  12.029  18.543  0.00  0.00    +0.000 C 
BRANCH  35  36
ATOM     36  O   UNL     1      -1.372  12.508  17.201  0.00  0.00    +0.000 OA
ATOM     37  H   UNL     1      -1.540  11.714  16.657  0.00  0.00    +0.000 HD
ENDBRANCH  35  36
ENDBRANCH  34  35
ENDBRANCH  33  34
ENDBRANCH  32  33
ENDBRANCH  31  32
ENDBRANCH  29  31
ENDBRANCH  12  29
BRANCH   7  38
ATOM     38  O   UNL     1       0.416   4.332  20.818  0.00  0.00    +0.000 OA
ATOM     39  H   UNL     1       0.481   5.290  20.738  0.00  0.00    +0.000 HD
ENDBRANCH   7  38
TORSDOF 16
ENDMDL
MODEL 5
REMARK VINA RESULT:      -6.2      1.894      5.350
REMARK  Name = 
REMARK  16 active torsions:
REMARK  status: ('A' for Active; 'I' for Inactive)
REMARK    1  A    between atoms: C_4  and  O_5
REMARK    2  A    between atoms: C_8  and  O_9
REMARK    3  A    between atoms: C_14  and  N_15
REMARK    4  A    between atoms: N_15  and  C_16
REMARK    5  A    between atoms: C_16  and  C_17
REMARK    6  A    between atoms: C_17  and  O_18
REMARK    7  A    between atoms: O_18  and  C_19
REMARK    8  A    between atoms: C_19  and  C_20
REMARK    9  A    between atoms: C_20  and  O_21
REMARK   10  A    between atoms: C_24  and  N_25
REMARK   11  A    between atoms: N_25  and  C_26
REMARK   12  A    between atoms: C_26  and  C_27
REMARK   13  A    between atoms: C_27  and  N_28
REMARK   14  A    between atoms: N_28  and  C_29
REMARK   15  A    between atoms: C_29  and  C_30
REMARK   16  A    between atoms: C_30  and  O_31
REMARK                            x       y       z     vdW  Elec       q    Type
REMARK                         _______ _______ _______ _____ _____    ______ ____
ROOT
ATOM      1  O   UNL     1       6.111   3.778  19.194  0.00  0.00    +0.000 OA
ATOM      2  C   UNL     1       5.006   4.313  19.087  0.00  0.00    +0.000 C 
ATOM      3  C   UNL     1       3.889   3.662  19.825  0.00  0.00    +0.000 A 
ATOM      4  C   UNL     1       4.069   2.404  20.437  0.00  0.00    +0.000 A 
ATOM      5  C   UNL     1       3.049   1.800  21.170  0.00  0.00    +0.000 A 
ATOM      6  C   UNL     1       1.828   2.444  21.310  0.00  0.00    +0.000 A 
ATOM      7  C   UNL     1       1.629   3.683  20.698  0.00  0.00    +0.000 A 
ATOM      8  C   UNL     1       2.662   4.306  19.952  0.00  0.00    +0.000 A 
ATOM      9  C   UNL     1       2.493   5.652  19.350  0.00  0.00    +0.000 C 
ATOM     10  O   UNL     1       1.492   6.318  19.605  0.00  0.00    +0.000 OA
ATOM     11  C   UNL     1       3.546   6.216  18.447  0.00  0.00    +0.000 A 
ATOM     12  C   UNL     1       3.294   7.441  17.764  0.00  0.00    +0.000 A 
ATOM     13  C   UNL     1       4.276   7.942  16.919  0.00  0.00    +0.000 A 
ATOM     14  C   UNL     1       5.476   7.283  16.747  0.00  0.00    +0.000 A 
ATOM     15  C   UNL     1       5.777   6.088  17.416  0.00  0.00    +0.000 A 
ATOM     16  C   UNL     1       4.777   5.543  18.279  0.00  0.00    +0.000 A 
ENDROOT
BRANCH   4  17
ATOM     17  O   UNL     1       5.238   1.694  20.372  0.00  0.00    +0.000 OA
ATOM     18  H   UNL     1       5.028   0.760  20.612  0.00  0.00    +0.000 HD
ENDBRANCH   4  17
BRANCH  15  19
ATOM     19  N   UNL     1       7.035   5.488  17.178  0.00  0.00    +0.000 N 
ATOM     20  H   UNL     1       7.324   4.900  17.959  0.00  0.00    +0.000 HD
BRANCH  19  21
ATOM     21  C   UNL     1       7.227   4.799  15.888  0.00  0.00    +0.000 C 
BRANCH  21  22
ATOM     22  C   UNL     1       6.112   3.799  15.559  0.00  0.00    +0.000 C 
BRANCH  22  23
ATOM     23  N   UNL     1       5.453   4.121  14.285  0.00  0.00    +0.000 NA
ATOM     24  H   UNL     1       5.211   5.109  14.299  0.00  0.00    +0.000 HD
BRANCH  23  25
ATOM     25  C   UNL     1       6.380   3.876  13.168  0.00  0.00    +0.000 C 
BRANCH  25  26
ATOM     26  C   UNL     1       5.632   3.230  12.002  0.00  0.00    +0.000 C 
BRANCH  26  27
ATOM     27  O   UNL     1       6.063   1.881  11.828  0.00  0.00    +0.000 OA
ATOM     28  H   UNL     1       5.282   1.396  11.510  0.00  0.00    +0.000 HD
ENDBRANCH  26  27
ENDBRANCH  25  26
ENDBRANCH  23  25
ENDBRANCH  22  23
ENDBRANCH  21  22
ENDBRANCH  19  21
ENDBRANCH  15  19
BRANCH  12  29
ATOM     29  N   UNL     1       2.109   8.147  17.895  0.00  0.00    +0.000 N 
ATOM     30  H   UNL     1       1.245   7.608  17.765  0.00  0.00    +0.000 HD
BRANCH  29  31
ATOM     31  C   UNL     1       2.013   9.598  17.889  0.00  0.00    +0.000 C 
BRANCH  31  32
ATOM     32  C   UNL     1       0.983  10.079  18.912  0.00  0.00    +0.000 C 
BRANCH  32  33
ATOM     33  O   UNL     1       1.181   9.385  20.149  0.00  0.00    +0.000 OA
BRANCH  33  34
ATOM     34  C   UNL     1      -0.003   9.397  20.950  0.00  0.00    +0.000 C 
BRANCH  34  35
ATOM     35  C   UNL     1       0.021  10.637  21.836  0.00  0.00    +0.000 C 
BRANCH  35  36
ATOM     36  O   UNL     1       0.030  10.263  23.213  0.00  0.00    +0.000 OA
ATOM     37  H   UNL     1       0.459   9.385  23.233  0.00  0.00    +0.000 HD
ENDBRANCH  35  36
ENDBRANCH  34  35
ENDBRANCH  33  34
ENDBRANCH  32  33
ENDBRANCH  31  32
ENDBRANCH  29  31
ENDBRANCH  12  29
BRANCH   7  38
ATOM     38  O   UNL     1       0.398   4.264  20.848  0.00  0.00    +0.000 OA
ATOM     39  H   UNL     1       0.371   4.814  21.639  0.00  0.00    +0.000 HD
ENDBRANCH   7  38
TORSDOF 16
ENDMDL
MODEL 6
REMARK VINA RESULT:      -6.1      2.165      2.771
REMARK  Name = 
REMARK  16 active torsions:
REMARK  status: ('A' for Active; 'I' for Inactive)
REMARK    1  A    between atoms: C_4  and  O_5
REMARK    2  A    between atoms: C_8  and  O_9
REMARK    3  A    between atoms: C_14  and  N_15
REMARK    4  A    between atoms: N_15  and  C_16
REMARK    5  A    between atoms: C_16  and  C_17
REMARK    6  A    between atoms: C_17  and  O_18
REMARK    7  A    between atoms: O_18  and  C_19
REMARK    8  A    between atoms: C_19  and  C_20
REMARK    9  A    between atoms: C_20  and  O_21
REMARK   10  A    between atoms: C_24  and  N_25
REMARK   11  A    between atoms: N_25  and  C_26
REMARK   12  A    between atoms: C_26  and  C_27
REMARK   13  A    between atoms: C_27  and  N_28
REMARK   14  A    between atoms: N_28  and  C_29
REMARK   15  A    between atoms: C_29  and  C_30
REMARK   16  A    between atoms: C_30  and  O_31
REMARK                            x       y       z     vdW  Elec       q    Type
REMARK                         _______ _______ _______ _____ _____    ______ ____
ROOT
ATOM      1  O   UNL     1       2.758   9.106  17.076  0.00  0.00    +0.000 OA
ATOM      2  C   UNL     1       2.492   8.641  18.186  0.00  0.00    +0.000 C 
ATOM      3  C   UNL     1       1.675   9.507  19.080  0.00  0.00    +0.000 A 
ATOM      4  C   UNL     1       1.405  10.846  18.732  0.00  0.00    +0.000 A 
ATOM      5  C   UNL     1       0.605  11.659  19.534  0.00  0.00    +0.000 A 
ATOM      6  C   UNL     1       0.055  11.147  20.700  0.00  0.00    +0.000 A 
ATOM      7  C   UNL     1       0.323   9.827  21.066  0.00  0.00    +0.000 A 
ATOM      8  C   UNL     1       1.135   8.992  20.254  0.00  0.00    +0.000 A 
ATOM      9  C   UNL     1       1.378   7.567  20.591  0.00  0.00    +0.000 C 
ATOM     10  O   UNL     1       0.764   7.041  21.516  0.00  0.00    +0.000 OA
ATOM     11  C   UNL     1       2.356   6.757  19.797  0.00  0.00    +0.000 A 
ATOM     12  C   UNL     1       2.683   5.440  20.232  0.00  0.00    +0.000 A 
ATOM     13  C   UNL     1       3.603   4.708  19.491  0.00  0.00    +0.000 A 
ATOM     14  C   UNL     1       4.183   5.230  18.354  0.00  0.00    +0.000 A 
ATOM     15  C   UNL     1       3.873   6.512  17.875  0.00  0.00    +0.000 A 
ATOM     16  C   UNL     1       2.942   7.291  18.628  0.00  0.00    +0.000 A 
ENDROOT
BRANCH   4  17
ATOM     17  O   UNL     1       1.888  11.443  17.598  0.00  0.00    +0.000 OA
ATOM     18  H   UNL     1       2.869  11.506  17.694  0.00  0.00    +0.000 HD
ENDBRANCH   4  17
BRANCH  15  19
ATOM     19  N   UNL     1       4.516   6.959  16.698  0.00  0.00    +0.000 N 
ATOM     20  H   UNL     1       4.164   7.868  16.400  0.00  0.00    +0.000 HD
BRANCH  19  21
ATOM     21  C   UNL     1       5.991   6.919  16.672  0.00  0.00    +0.000 C 
BRANCH  21  22
ATOM     22  C   UNL     1       6.555   5.615  16.096  0.00  0.00    +0.000 C 
BRANCH  22  23
ATOM     23  N   UNL     1       7.753   5.174  16.825  0.00  0.00    +0.000 NA
ATOM     24  H   UNL     1       8.419   5.943  16.826  0.00  0.00    +0.000 HD
BRANCH  23  25
ATOM     25  C   UNL     1       7.399   4.851  18.217  0.00  0.00    +0.000 C 
BRANCH  25  26
ATOM     26  C   UNL     1       8.005   5.887  19.162  0.00  0.00    +0.000 C 
BRANCH  26  27
ATOM     27  O   UNL     1       7.975   5.405  20.505  0.00  0.00    +0.000 OA
ATOM     28  H   UNL     1       8.387   6.103  21.043  0.00  0.00    +0.000 HD
ENDBRANCH  26  27
ENDBRANCH  25  26
ENDBRANCH  23  25
ENDBRANCH  22  23
ENDBRANCH  21  22
ENDBRANCH  19  21
ENDBRANCH  15  19
BRANCH  12  29
ATOM     29  N   UNL     1       2.136   4.862  21.366  0.00  0.00    +0.000 N 
ATOM     30  H   UNL     1       1.677   5.503  22.023  0.00  0.00    +0.000 HD
BRANCH  29  31
ATOM     31  C   UNL     1       2.430   3.513  21.823  0.00  0.00    +0.000 C 
BRANCH  31  32
ATOM     32  C   UNL     1       1.444   2.509  21.225  0.00  0.00    +0.000 C 
BRANCH  32  33
ATOM     33  O   UNL     1       0.672   3.151  20.203  0.00  0.00    +0.000 OA
BRANCH  33  34
ATOM     34  C   UNL     1       0.504   2.302  19.065  0.00  0.00    +0.000 C 
BRANCH  34  35
ATOM     35  C   UNL     1       1.587   2.635  18.045  0.00  0.00    +0.000 C 
BRANCH  35  36
ATOM     36  O   UNL     1       1.192   3.751  17.248  0.00  0.00    +0.000 OA
ATOM     37  H   UNL     1       0.976   3.372  16.374  0.00  0.00    +0.000 HD
ENDBRANCH  35  36
ENDBRANCH  34  35
ENDBRANCH  33  34
ENDBRANCH  32  33
ENDBRANCH  31  32
ENDBRANCH  29  31
ENDBRANCH  12  29
BRANCH   7  38
ATOM     38  O   UNL     1      -0.226   9.378  22.237  0.00  0.00    +0.000 OA
ATOM     39  H   UNL     1       0.100   8.498  22.455  0.00  0.00    +0.000 HD
ENDBRANCH   7  38
TORSDOF 16
ENDMDL
MODEL 7
REMARK VINA RESULT:      -6.0      8.523     10.705
REMARK  Name = 
REMARK  16 active torsions:
REMARK  status: ('A' for Active; 'I' for Inactive)
REMARK    1  A    between atoms: C_4  and  O_5
REMARK    2  A    between atoms: C_8  and  O_9
REMARK    3  A    between atoms: C_14  and  N_15
REMARK    4  A    between atoms: N_15  and  C_16
REMARK    5  A    between atoms: C_16  and  C_17
REMARK    6  A    between atoms: C_17  and  O_18
REMARK    7  A    between atoms: O_18  and  C_19
REMARK    8  A    between atoms: C_19  and  C_20
REMARK    9  A    between atoms: C_20  and  O_21
REMARK   10  A    between atoms: C_24  and  N_25
REMARK   11  A    between atoms: N_25  and  C_26
REMARK   12  A    between atoms: C_26  and  C_27
REMARK   13  A    between atoms: C_27  and  N_28
REMARK   14  A    between atoms: N_28  and  C_29
REMARK   15  A    between atoms: C_29  and  C_30
REMARK   16  A    between atoms: C_30  and  O_31
REMARK                            x       y       z     vdW  Elec       q    Type
REMARK                         _______ _______ _______ _____ _____    ______ ____
ROOT
ATOM      1  O   UNL     1       9.294  10.632  21.496  0.00  0.00    +0.000 OA
ATOM      2  C   UNL     1       9.476  11.815  21.204  0.00  0.00    +0.000 C 
ATOM      3  C   UNL     1       9.173  12.808  22.270  0.00  0.00    +0.000 A 
ATOM      4  C   UNL     1       8.531  12.408  23.461  0.00  0.00    +0.000 A 
ATOM      5  C   UNL     1       8.279  13.315  24.490  0.00  0.00    +0.000 A 
ATOM      6  C   UNL     1       8.668  14.639  24.350  0.00  0.00    +0.000 A 
ATOM      7  C   UNL     1       9.292  15.053  23.172  0.00  0.00    +0.000 A 
ATOM      8  C   UNL     1       9.554  14.137  22.121  0.00  0.00    +0.000 A 
ATOM      9  C   UNL     1      10.275  14.543  20.889  0.00  0.00    +0.000 C 
ATOM     10  O   UNL     1      10.785  15.658  20.813  0.00  0.00    +0.000 OA
ATOM     11  C   UNL     1      10.404  13.591  19.739  0.00  0.00    +0.000 A 
ATOM     12  C   UNL     1      10.968  14.053  18.514  0.00  0.00    +0.000 A 
ATOM     13  C   UNL     1      11.066  13.162  17.453  0.00  0.00    +0.000 A 
ATOM     14  C   UNL     1      10.643  11.854  17.576  0.00  0.00    +0.000 A 
ATOM     15  C   UNL     1      10.104  11.350  18.769  0.00  0.00    +0.000 A 
ATOM     16  C   UNL     1       9.977  12.251  19.870  0.00  0.00    +0.000 A 
ENDROOT
BRANCH   4  17
ATOM     17  O   UNL     1       8.120  11.125  23.703  0.00  0.00    +0.000 OA
ATOM     18  H   UNL     1       8.671  10.775  24.444  0.00  0.00    +0.000 HD
ENDBRANCH   4  17
BRANCH  15  19
ATOM     19  N   UNL     1       9.702   9.995  18.800  0.00  0.00    +0.000 N 
ATOM     20  H   UNL     1       9.695   9.627  19.750  0.00  0.00    +0.000 HD
BRANCH  19  21
ATOM     21  C   UNL     1       8.467   9.636  18.076  0.00  0.00    +0.000 C 
BRANCH  21  22
ATOM     22  C   UNL     1       8.112   8.148  18.177  0.00  0.00    +0.000 C 
BRANCH  22  23
ATOM     23  N   UNL     1       7.317   7.700  17.025  0.00  0.00    +0.000 NA
ATOM     24  H   UNL     1       7.911   7.741  16.200  0.00  0.00    +0.000 HD
BRANCH  23  25
ATOM     25  C   UNL     1       6.883   6.308  17.229  0.00  0.00    +0.000 C 
BRANCH  25  26
ATOM     26  C   UNL     1       7.586   5.717  18.450  0.00  0.00    +0.000 C 
BRANCH  26  27
ATOM     27  O   UNL     1       6.671   4.933  19.213  0.00  0.00    +0.000 OA
ATOM     28  H   UNL     1       5.790   5.135  18.854  0.00  0.00    +0.000 HD
ENDBRANCH  26  27
ENDBRANCH  25  26
ENDBRANCH  23  25
ENDBRANCH  22  23
ENDBRANCH  21  22
ENDBRANCH  19  21
ENDBRANCH  15  19
BRANCH  12  29
ATOM     29  N   UNL     1      11.408  15.353  18.330  0.00  0.00    +0.000 N 
ATOM     30  H   UNL     1      11.922  15.772  19.113  0.00  0.00    +0.000 HD
BRANCH  29  31
ATOM     31  C   UNL     1      10.939  16.237  17.274  0.00  0.00    +0.000 C 
BRANCH  31  32
ATOM     32  C   UNL     1       9.665  16.968  17.702  0.00  0.00    +0.000 C 
BRANCH  32  33
ATOM     33  O   UNL     1       8.526  16.151  17.405  0.00  0.00    +0.000 OA
BRANCH  33  34
ATOM     34  C   UNL     1       7.698  15.971  18.556  0.00  0.00    +0.000 C 
BRANCH  34  35
ATOM     35  C   UNL     1       7.117  14.562  18.522  0.00  0.00    +0.000 C 
BRANCH  35  36
ATOM     36  O   UNL     1       7.548  13.877  17.347  0.00  0.00    +0.000 OA
ATOM     37  H   UNL     1       7.859  14.580  16.744  0.00  0.00    +0.000 HD
ENDBRANCH  35  36
ENDBRANCH  34  35
ENDBRANCH  33  34
ENDBRANCH  32  33
ENDBRANCH  31  32
ENDBRANCH  29  31
ENDBRANCH  12  29
BRANCH   7  38
ATOM     38  O   UNL     1       9.635  16.376  23.077  0.00  0.00    +0.000 OA
ATOM     39  H   UNL     1      10.390  16.494  22.491  0.00  0.00    +0.000 HD
ENDBRANCH   7  38
TORSDOF 16
ENDMDL
MODEL 8
REMARK VINA RESULT:      -6.0      8.979     11.219
REMARK  Name = 
REMARK  16 active torsions:
REMARK  status: ('A' for Active; 'I' for Inactive)
REMARK    1  A    between atoms: C_4  and  O_5
REMARK    2  A    between atoms: C_8  and  O_9
REMARK    3  A    between atoms: C_14  and  N_15
REMARK    4  A    between atoms: N_15  and  C_16
REMARK    5  A    between atoms: C_16  and  C_17
REMARK    6  A    between atoms: C_17  and  O_18
REMARK    7  A    between atoms: O_18  and  C_19
REMARK    8  A    between atoms: C_19  and  C_20
REMARK    9  A    between atoms: C_20  and  O_21
REMARK   10  A    between atoms: C_24  and  N_25
REMARK   11  A    between atoms: N_25  and  C_26
REMARK   12  A    between atoms: C_26  and  C_27
REMARK   13  A    between atoms: C_27  and  N_28
REMARK   14  A    between atoms: N_28  and  C_29
REMARK   15  A    between atoms: C_29  and  C_30
REMARK   16  A    between atoms: C_30  and  O_31
REMARK                            x       y       z     vdW  Elec       q    Type
REMARK                         _______ _______ _______ _____ _____    ______ ____
ROOT
ATOM      1  O   UNL     1       8.927  10.832  21.716  0.00  0.00    +0.000 OA
ATOM      2  C   UNL     1       9.290  11.942  21.319  0.00  0.00    +0.000 C 
ATOM      3  C   UNL     1       9.131  13.066  22.281  0.00  0.00    +0.000 A 
ATOM      4  C   UNL     1       8.425  12.884  23.488  0.00  0.00    +0.000 A 
ATOM      5  C   UNL     1       8.304  13.912  24.422  0.00  0.00    +0.000 A 
ATOM      6  C   UNL     1       8.891  15.143  24.169  0.00  0.00    +0.000 A 
ATOM      7  C   UNL     1       9.581  15.344  22.973  0.00  0.00    +0.000 A 
ATOM      8  C   UNL     1       9.711  14.303  22.018  0.00  0.00    +0.000 A 
ATOM      9  C   UNL     1      10.497  14.475  20.771  0.00  0.00    +0.000 C 
ATOM     10  O   UNL     1      11.171  15.489  20.604  0.00  0.00    +0.000 OA
ATOM     11  C   UNL     1      10.490  13.410  19.718  0.00  0.00    +0.000 A 
ATOM     12  C   UNL     1      11.129  13.663  18.469  0.00  0.00    +0.000 A 
ATOM     13  C   UNL     1      11.101  12.669  17.498  0.00  0.00    +0.000 A 
ATOM     14  C   UNL     1      10.483  11.458  17.732  0.00  0.00    +0.000 A 
ATOM     15  C   UNL     1       9.863  11.156  18.954  0.00  0.00    +0.000 A 
ATOM     16  C   UNL     1       9.863  12.168  19.963  0.00  0.00    +0.000 A 
ENDROOT
BRANCH   4  17
ATOM     17  O   UNL     1       7.822  11.706  23.839  0.00  0.00    +0.000 OA
ATOM     18  H   UNL     1       8.428  11.239  24.463  0.00  0.00    +0.000 HD
ENDBRANCH   4  17
BRANCH  15  19
ATOM     19  N   UNL     1       9.259   9.887  19.101  0.00  0.00    +0.000 N 
ATOM     20  H   UNL     1       8.833   9.778  20.021  0.00  0.00    +0.000 HD
BRANCH  19  21
ATOM     21  C   UNL     1       8.347   9.439  18.031  0.00  0.00    +0.000 C 
BRANCH  21  22
ATOM     22  C   UNL     1       8.018   7.943  18.097  0.00  0.00    +0.000 C 
BRANCH  22  23
ATOM     23  N   UNL     1       7.513   7.442  16.811  0.00  0.00    +0.000 NA
ATOM     24  H   UNL     1       8.293   7.024  16.310  0.00  0.00    +0.000 HD
BRANCH  23  25
ATOM     25  C   UNL     1       6.491   6.408  17.045  0.00  0.00    +0.000 C 
BRANCH  25  26
ATOM     26  C   UNL     1       7.047   5.033  16.675  0.00  0.00    +0.000 C 
BRANCH  26  27
ATOM     27  O   UNL     1       6.556   4.045  17.579  0.00  0.00    +0.000 OA
ATOM     28  H   UNL     1       7.322   3.486  17.796  0.00  0.00    +0.000 HD
ENDBRANCH  26  27
ENDBRANCH  25  26
ENDBRANCH  23  25
ENDBRANCH  22  23
ENDBRANCH  21  22
ENDBRANCH  19  21
ENDBRANCH  15  19
BRANCH  12  29
ATOM     29  N   UNL     1      11.764  14.858  18.175  0.00  0.00    +0.000 N 
ATOM     30  H   UNL     1      12.157  15.370  18.973  0.00  0.00    +0.000 HD
BRANCH  29  31
ATOM     31  C   UNL     1      11.639  15.563  16.909  0.00  0.00    +0.000 C 
BRANCH  31  32
ATOM     32  C   UNL     1      10.415  16.481  16.916  0.00  0.00    +0.000 C 
BRANCH  32  33
ATOM     33  O   UNL     1      10.811  17.798  17.318  0.00  0.00    +0.000 OA
BRANCH  33  34
ATOM     34  C   UNL     1       9.739  18.491  17.963  0.00  0.00    +0.000 C 
BRANCH  34  35
ATOM     35  C   UNL     1       8.916  17.482  18.756  0.00  0.00    +0.000 C 
BRANCH  35  36
ATOM     36  O   UNL     1       9.140  17.649  20.155  0.00  0.00    +0.000 OA
ATOM     37  H   UNL     1       9.036  18.607  20.315  0.00  0.00    +0.000 HD
ENDBRANCH  35  36
ENDBRANCH  34  35
ENDBRANCH  33  34
ENDBRANCH  32  33
ENDBRANCH  31  32
ENDBRANCH  29  31
ENDBRANCH  12  29
BRANCH   7  38
ATOM     38  O   UNL     1      10.122  16.585  22.762  0.00  0.00    +0.000 OA
ATOM     39  H   UNL     1       9.855  17.198  23.456  0.00  0.00    +0.000 HD
ENDBRANCH   7  38
TORSDOF 16
ENDMDL
MODEL 9
REMARK VINA RESULT:      -6.0      2.384      5.954
REMARK  Name = 
REMARK  16 active torsions:
REMARK  status: ('A' for Active; 'I' for Inactive)
REMARK    1  A    between atoms: C_4  and  O_5
REMARK    2  A    between atoms: C_8  and  O_9
REMARK    3  A    between atoms: C_14  and  N_15
REMARK    4  A    between atoms: N_15  and  C_16
REMARK    5  A    between atoms: C_16  and  C_17
REMARK    6  A    between atoms: C_17  and  O_18
REMARK    7  A    between atoms: O_18  and  C_19
REMARK    8  A    between atoms: C_19  and  C_20
REMARK    9  A    between atoms: C_20  and  O_21
REMARK   10  A    between atoms: C_24  and  N_25
REMARK   11  A    between atoms: N_25  and  C_26
REMARK   12  A    between atoms: C_26  and  C_27
REMARK   13  A    between atoms: C_27  and  N_28
REMARK   14  A    between atoms: N_28  and  C_29
REMARK   15  A    between atoms: C_29  and  C_30
REMARK   16  A    between atoms: C_30  and  O_31
REMARK                            x       y       z     vdW  Elec       q    Type
REMARK                         _______ _______ _______ _____ _____    ______ ____
ROOT
ATOM      1  O   UNL     1       4.888   2.848  17.059  0.00  0.00    +0.000 OA
ATOM      2  C   UNL     1       4.094   3.682  17.497  0.00  0.00    +0.000 C 
ATOM      3  C   UNL     1       3.090   3.181  18.475  0.00  0.00    +0.000 A 
ATOM      4  C   UNL     1       2.951   1.799  18.716  0.00  0.00    +0.000 A 
ATOM      5  C   UNL     1       2.047   1.313  19.660  0.00  0.00    +0.000 A 
ATOM      6  C   UNL     1       1.267   2.201  20.386  0.00  0.00    +0.000 A 
ATOM      7  C   UNL     1       1.383   3.572  20.150  0.00  0.00    +0.000 A 
ATOM      8  C   UNL     1       2.301   4.075  19.192  0.00  0.00    +0.000 A 
ATOM      9  C   UNL     1       2.487   5.531  18.973  0.00  0.00    +0.000 C 
ATOM     10  O   UNL     1       1.942   6.340  19.721  0.00  0.00    +0.000 OA
ATOM     11  C   UNL     1       3.352   6.025  17.854  0.00  0.00    +0.000 A 
ATOM     12  C   UNL     1       3.395   7.421  17.572  0.00  0.00    +0.000 A 
ATOM     13  C   UNL     1       4.191   7.860  16.522  0.00  0.00    +0.000 A 
ATOM     14  C   UNL     1       4.938   6.974  15.772  0.00  0.00    +0.000 A 
ATOM     15  C   UNL     1       4.945   5.595  16.029  0.00  0.00    +0.000 A 
ATOM     16  C   UNL     1       4.121   5.116  17.093  0.00  0.00    +0.000 A 
ENDROOT
BRANCH   4  17
ATOM     17  O   UNL     1       3.682   0.842  18.064  0.00  0.00    +0.000 OA
ATOM     18  H   UNL     1       3.303  -0.036  18.310  0.00  0.00    +0.000 HD
ENDBRANCH   4  17
BRANCH  15  19
ATOM     19  N   UNL     1       5.745   4.767  15.208  0.00  0.00    +0.000 N 
ATOM     20  H   UNL     1       5.536   4.903  14.220  0.00  0.00    +0.000 HD
BRANCH  19  21
ATOM     21  C   UNL     1       7.200   4.768  15.454  0.00  0.00    +0.000 C 
BRANCH  21  22
ATOM     22  C   UNL     1       7.585   5.330  16.828  0.00  0.00    +0.000 C 
BRANCH  22  23
ATOM     23  N   UNL     1       7.542   4.294  17.869  0.00  0.00    +0.000 NA
ATOM     24  H   UNL     1       8.494   3.972  18.030  0.00  0.00    +0.000 HD
BRANCH  23  25
ATOM     25  C   UNL     1       7.017   4.866  19.121  0.00  0.00    +0.000 C 
BRANCH  25  26
ATOM     26  C   UNL     1       8.097   5.705  19.803  0.00  0.00    +0.000 C 
BRANCH  26  27
ATOM     27  O   UNL     1       8.329   5.227  21.126  0.00  0.00    +0.000 OA
ATOM     28  H   UNL     1       8.354   6.019  21.690  0.00  0.00    +0.000 HD
ENDBRANCH  26  27
ENDBRANCH  25  26
ENDBRANCH  23  25
ENDBRANCH  22  23
ENDBRANCH  21  22
ENDBRANCH  19  21
ENDBRANCH  15  19
BRANCH  12  29
ATOM     29  N   UNL     1       2.667   8.357  18.288  0.00  0.00    +0.000 N 
ATOM     30  H   UNL     1       2.521   8.152  19.282  0.00  0.00    +0.000 HD
BRANCH  29  31
ATOM     31  C   UNL     1       1.862   9.407  17.684  0.00  0.00    +0.000 C 
BRANCH  31  32
ATOM     32  C   UNL     1       1.284  10.334  18.755  0.00  0.00    +0.000 C 
BRANCH  32  33
ATOM     33  O   UNL     1       0.318   9.616  19.532  0.00  0.00    +0.000 OA
BRANCH  33  34
ATOM     34  C   UNL     1       0.312  10.056  20.893  0.00  0.00    +0.000 C 
BRANCH  34  35
ATOM     35  C   UNL     1       0.469   8.839  21.798  0.00  0.00    +0.000 C 
BRANCH  35  36
ATOM     36  O   UNL     1       1.810   8.355  21.748  0.00  0.00    +0.000 OA
ATOM     37  H   UNL     1       2.076   8.441  20.813  0.00  0.00    +0.000 HD
ENDBRANCH  35  36
ENDBRANCH  34  35
ENDBRANCH  33  34
ENDBRANCH  32  33
ENDBRANCH  31  32
ENDBRANCH  29  31
ENDBRANCH  12  29
BRANCH   7  38
ATOM     38  O   UNL     1       0.573   4.403  20.877  0.00  0.00    +0.000 OA
ATOM     39  H   UNL     1       0.995   4.657  21.705  0.00  0.00    +0.000 HD
ENDBRANCH   7  38
TORSDOF 16
ENDMDL
