MODEL 1
REMARK VINA RESULT:      -9.0      0.000      0.000
REMARK  Name = 
REMARK  5 active torsions:
REMARK  status: ('A' for Active; 'I' for Inactive)
REMARK    1  A    between atoms: C_1  and  S_2
REMARK    2  A    between atoms: S_2  and  C_3
REMARK    3  A    between atoms: N_5  and  C_6
REMARK    4  A    between atoms: C_14  and  C_15
REMARK    5  A    between atoms: C_15  and  C_17
REMARK                            x       y       z     vdW  Elec       q    Type
REMARK                         _______ _______ _______ _____ _____    ______ ____
ROOT
ATOM      1  C   UNL     1       7.089   6.276  17.455  0.00  0.00    +0.000 A 
ATOM      2  N   UNL     1       7.541   5.757  16.317  0.00  0.00    +0.000 NA
ATOM      3  N   UNL     1       6.454   5.155  15.764  0.00  0.00    +0.000 N 
ATOM      4  C   UNL     1       5.378   5.105  16.650  0.00  0.00    +0.000 A 
ATOM      5  C   UNL     1       4.140   4.427  16.631  0.00  0.00    +0.000 A 
ATOM      6  C   UNL     1       3.276   4.555  17.735  0.00  0.00    +0.000 A 
ATOM      7  C   UNL     1       3.628   5.393  18.797  0.00  0.00    +0.000 A 
ATOM      8  C   UNL     1       4.862   6.060  18.812  0.00  0.00    +0.000 A 
ATOM      9  C   UNL     1       5.765   5.879  17.746  0.00  0.00    +0.000 A 
ENDROOT
BRANCH   3  10
ATOM     10  C   UNL     1       6.534   4.679  14.429  0.00  0.00    +0.000 A 
ATOM     11  C   UNL     1       7.529   5.188  13.581  0.00  0.00    +0.000 A 
ATOM     12  C   UNL     1       7.627   4.737  12.265  0.00  0.00    +0.000 A 
ATOM     13  C   UNL     1       6.708   3.809  11.776  0.00  0.00    +0.000 A 
ATOM     14  C   UNL     1       5.694   3.329  12.604  0.00  0.00    +0.000 A 
ATOM     15  C   UNL     1       5.608   3.752  13.932  0.00  0.00    +0.000 A 
ENDBRANCH   3  10
BRANCH   1  17
ATOM     16  C   UNL     1       7.911   8.899  17.702  0.00  0.00    +0.000 C 
ATOM     17  S   UNL     1       8.091   7.279  18.481  0.00  0.00    +0.000 S 
ENDBRANCH   1  17
BRANCH   6  18
ATOM     18  C   UNL     1       2.001   3.768  17.718  0.00  0.00    +0.000 C 
ATOM     19  O   UNL     1       1.031   4.234  17.119  0.00  0.00    +0.000 OA
BRANCH  18  20
ATOM     20  C   UNL     1       1.935   2.407  18.441  0.00  0.00    +0.000 C 
ATOM     21  C   UNL     1       1.158   2.486  19.761  0.00  0.00    +0.000 C 
ATOM     22  C   UNL     1       1.989   3.012  20.934  0.00  0.00    +0.000 C 
ATOM     23  N   UNL     1       3.275   2.339  21.090  0.00  0.00    +0.000 NA
ATOM     24  C   UNL     1       4.064   2.380  19.861  0.00  0.00    +0.000 C 
ATOM     25  C   UNL     1       3.318   1.781  18.670  0.00  0.00    +0.000 C 
ATOM     26  H   UNL     1       3.135   1.373  21.380  0.00  0.00    +0.000 HD
ENDBRANCH  18  20
ENDBRANCH   6  18
TORSDOF 4
ENDMDL
MODEL 2
REMARK VINA RESULT:      -8.8      1.337      1.930
REMARK  Name = 
REMARK  5 active torsions:
REMARK  status: ('A' for Active; 'I' for Inactive)
REMARK    1  A    between atoms: C_1  and  S_2
REMARK    2  A    between atoms: S_2  and  C_3
REMARK    3  A    between atoms: N_5  and  C_6
REMARK    4  A    between atoms: C_14  and  C_15
REMARK    5  A    between atoms: C_15  and  C_17
REMARK                            x       y       z     vdW  Elec       q    Type
REMARK                         _______ _______ _______ _____ _____    ______ ____
ROOT
ATOM      1  C   UNL     1       7.302   6.207  17.554  0.00  0.00    +0.000 A 
ATOM      2  N   UNL     1       7.676   5.932  16.309  0.00  0.00    +0.000 NA
ATOM      3  N   UNL     1       6.735   5.062  15.856  0.00  0.00    +0.000 N 
ATOM      4  C   UNL     1       5.896   4.622  16.879  0.00  0.00    +0.000 A 
ATOM      5  C   UNL     1       4.929   3.596  16.963  0.00  0.00    +0.000 A 
ATOM      6  C   UNL     1       4.276   3.375  18.190  0.00  0.00    +0.000 A 
ATOM      7  C   UNL     1       4.548   4.206  19.280  0.00  0.00    +0.000 A 
ATOM      8  C   UNL     1       5.514   5.221  19.191  0.00  0.00    +0.000 A 
ATOM      9  C   UNL     1       6.226   5.401  17.989  0.00  0.00    +0.000 A 
ENDROOT
BRANCH   3  10
ATOM     10  C   UNL     1       6.714   4.726  14.476  0.00  0.00    +0.000 A 
ATOM     11  C   UNL     1       5.773   3.793  14.014  0.00  0.00    +0.000 A 
ATOM     12  C   UNL     1       5.735   3.446  12.664  0.00  0.00    +0.000 A 
ATOM     13  C   UNL     1       6.660   3.995  11.777  0.00  0.00    +0.000 A 
ATOM     14  C   UNL     1       7.621   4.894  12.238  0.00  0.00    +0.000 A 
ATOM     15  C   UNL     1       7.646   5.270  13.583  0.00  0.00    +0.000 A 
ENDBRANCH   3  10
BRANCH   1  17
ATOM     16  C   UNL     1       7.812   8.919  17.609  0.00  0.00    +0.000 C 
ATOM     17  S   UNL     1       8.130   7.399  18.532  0.00  0.00    +0.000 S 
ENDBRANCH   1  17
BRANCH   6  18
ATOM     18  C   UNL     1       3.307   2.235  18.269  0.00  0.00    +0.000 C 
ATOM     19  O   UNL     1       3.751   1.093  18.396  0.00  0.00    +0.000 OA
BRANCH  18  20
ATOM     20  C   UNL     1       1.792   2.515  18.192  0.00  0.00    +0.000 C 
ATOM     21  C   UNL     1       1.485   4.010  18.028  0.00  0.00    +0.000 C 
ATOM     22  C   UNL     1       1.511   4.792  19.344  0.00  0.00    +0.000 C 
ATOM     23  N   UNL     1       0.721   4.178  20.406  0.00  0.00    +0.000 NA
ATOM     24  C   UNL     1       1.109   2.790  20.643  0.00  0.00    +0.000 C 
ATOM     25  C   UNL     1       1.012   1.936  19.381  0.00  0.00    +0.000 C 
ATOM     26  H   UNL     1      -0.271   4.227  20.182  0.00  0.00    +0.000 HD
ENDBRANCH  18  20
ENDBRANCH   6  18
TORSDOF 4
ENDMDL
MODEL 3
REMARK VINA RESULT:      -8.3      4.484      6.273
REMARK  Name = 
REMARK  5 active torsions:
REMARK  status: ('A' for Active; 'I' for Inactive)
REMARK    1  A    between atoms: C_1  and  S_2
REMARK    2  A    between atoms: S_2  and  C_3
REMARK    3  A    between atoms: N_5  and  C_6
REMARK    4  A    between atoms: C_14  and  C_15
REMARK    5  A    between atoms: C_15  and  C_17
REMARK                            x       y       z     vdW  Elec       q    Type
REMARK                         _______ _______ _______ _____ _____    ______ ____
ROOT
ATOM      1  C   UNL     1       3.229   3.985  19.975  0.00  0.00    +0.000 A 
ATOM      2  N   UNL     1       3.960   3.692  18.903  0.00  0.00    +0.000 NA
ATOM      3  N   UNL     1       4.110   4.881  18.260  0.00  0.00    +0.000 N 
ATOM      4  C   UNL     1       3.298   5.875  18.804  0.00  0.00    +0.000 A 
ATOM      5  C   UNL     1       2.947   7.176  18.382  0.00  0.00    +0.000 A 
ATOM      6  C   UNL     1       2.039   7.922  19.158  0.00  0.00    +0.000 A 
ATOM      7  C   UNL     1       1.551   7.392  20.356  0.00  0.00    +0.000 A 
ATOM      8  C   UNL     1       1.901   6.096  20.767  0.00  0.00    +0.000 A 
ATOM      9  C   UNL     1       2.750   5.314  19.959  0.00  0.00    +0.000 A 
ENDROOT
BRANCH   3  10
ATOM     10  C   UNL     1       5.026   4.968  17.178  0.00  0.00    +0.000 A 
ATOM     11  C   UNL     1       4.800   4.195  16.029  0.00  0.00    +0.000 A 
ATOM     12  C   UNL     1       5.687   4.263  14.954  0.00  0.00    +0.000 A 
ATOM     13  C   UNL     1       6.822   5.067  15.036  0.00  0.00    +0.000 A 
ATOM     14  C   UNL     1       7.070   5.808  16.192  0.00  0.00    +0.000 A 
ATOM     15  C   UNL     1       6.171   5.770  17.260  0.00  0.00    +0.000 A 
ENDBRANCH   3  10
BRANCH   1  17
ATOM     16  C   UNL     1       1.065   2.726  21.136  0.00  0.00    +0.000 C 
ATOM     17  S   UNL     1       2.869   2.797  21.207  0.00  0.00    +0.000 S 
ENDBRANCH   1  17
BRANCH   6  18
ATOM     18  C   UNL     1       1.630   9.270  18.648  0.00  0.00    +0.000 C 
ATOM     19  O   UNL     1       1.973   9.597  17.511  0.00  0.00    +0.000 OA
BRANCH  18  20
ATOM     20  C   UNL     1       0.798  10.206  19.548  0.00  0.00    +0.000 C 
ATOM     21  C   UNL     1      -0.694  10.181  19.191  0.00  0.00    +0.000 C 
ATOM     22  C   UNL     1      -1.058  11.081  18.007  0.00  0.00    +0.000 C 
ATOM     23  N   UNL     1      -0.540  12.440  18.122  0.00  0.00    +0.000 NA
ATOM     24  C   UNL     1       0.906  12.457  18.335  0.00  0.00    +0.000 C 
ATOM     25  C   UNL     1       1.321  11.649  19.563  0.00  0.00    +0.000 C 
ATOM     26  H   UNL     1      -1.007  12.933  18.880  0.00  0.00    +0.000 HD
ENDBRANCH  18  20
ENDBRANCH   6  18
TORSDOF 4
ENDMDL
MODEL 4
REMARK VINA RESULT:      -8.1      3.550      7.245
REMARK  Name = 
REMARK  5 active torsions:
REMARK  status: ('A' for Active; 'I' for Inactive)
REMARK    1  A    between atoms: C_1  and  S_2
REMARK    2  A    between atoms: S_2  and  C_3
REMARK    3  A    between atoms: N_5  and  C_6
REMARK    4  A    between atoms: C_14  and  C_15
REMARK    5  A    between atoms: C_15  and  C_17
REMARK                            x       y       z     vdW  Elec       q    Type
REMARK                         _______ _______ _______ _____ _____    ______ ____
ROOT
ATOM      1  C   UNL     1       1.768   4.539  20.241  0.00  0.00    +0.000 A 
ATOM      2  N   UNL     1       1.449   5.726  20.746  0.00  0.00    +0.000 NA
ATOM      3  N   UNL     1       1.969   6.621  19.864  0.00  0.00    +0.000 N 
ATOM      4  C   UNL     1       2.799   6.007  18.926  0.00  0.00    +0.000 A 
ATOM      5  C   UNL     1       3.704   6.505  17.963  0.00  0.00    +0.000 A 
ATOM      6  C   UNL     1       4.443   5.591  17.187  0.00  0.00    +0.000 A 
ATOM      7  C   UNL     1       4.224   4.219  17.337  0.00  0.00    +0.000 A 
ATOM      8  C   UNL     1       3.326   3.731  18.299  0.00  0.00    +0.000 A 
ATOM      9  C   UNL     1       2.638   4.636  19.132  0.00  0.00    +0.000 A 
ENDROOT
BRANCH   3  10
ATOM     10  C   UNL     1       1.625   7.993  19.990  0.00  0.00    +0.000 A 
ATOM     11  C   UNL     1       1.274   8.496  21.251  0.00  0.00    +0.000 A 
ATOM     12  C   UNL     1       0.930   9.840  21.399  0.00  0.00    +0.000 A 
ATOM     13  C   UNL     1       0.894  10.677  20.285  0.00  0.00    +0.000 A 
ATOM     14  C   UNL     1       1.206  10.172  19.023  0.00  0.00    +0.000 A 
ATOM     15  C   UNL     1       1.580   8.835  18.871  0.00  0.00    +0.000 A 
ENDBRANCH   3  10
BRANCH   1  17
ATOM     16  C   UNL     1       2.732   2.355  21.625  0.00  0.00    +0.000 C 
ATOM     17  S   UNL     1       1.203   3.044  20.952  0.00  0.00    +0.000 S 
ENDBRANCH   1  17
BRANCH   6  18
ATOM     18  C   UNL     1       5.447   6.147  16.224  0.00  0.00    +0.000 C 
ATOM     19  O   UNL     1       5.045   6.854  15.299  0.00  0.00    +0.000 OA
BRANCH  18  20
ATOM     20  C   UNL     1       6.944   5.826  16.413  0.00  0.00    +0.000 C 
ATOM     21  C   UNL     1       7.189   4.866  17.585  0.00  0.00    +0.000 C 
ATOM     22  C   UNL     1       7.217   5.557  18.951  0.00  0.00    +0.000 C 
ATOM     23  N   UNL     1       8.091   6.725  19.000  0.00  0.00    +0.000 NA
ATOM     24  C   UNL     1       7.766   7.694  17.957  0.00  0.00    +0.000 C 
ATOM     25  C   UNL     1       7.814   7.082  16.558  0.00  0.00    +0.000 C 
ATOM     26  H   UNL     1       9.066   6.440  18.916  0.00  0.00    +0.000 HD
ENDBRANCH  18  20
ENDBRANCH   6  18
TORSDOF 4
ENDMDL
MODEL 5
REMARK VINA RESULT:      -8.1      4.785      7.288
REMARK  Name = 
REMARK  5 active torsions:
REMARK  status: ('A' for Active; 'I' for Inactive)
REMARK    1  A    between atoms: C_1  and  S_2
REMARK    2  A    between atoms: S_2  and  C_3
REMARK    3  A    between atoms: N_5  and  C_6
REMARK    4  A    between atoms: C_14  and  C_15
REMARK    5  A    between atoms: C_15  and  C_17
REMARK                            x       y       z     vdW  Elec       q    Type
REMARK                         _______ _______ _______ _____ _____    ______ ____
ROOT
ATOM      1  C   UNL     1       4.111   6.434  17.396  0.00  0.00    +0.000 A 
ATOM      2  N   UNL     1       3.989   5.366  18.179  0.00  0.00    +0.000 NA
ATOM      3  N   UNL     1       2.890   5.624  18.937  0.00  0.00    +0.000 N 
ATOM      4  C   UNL     1       2.452   6.939  18.788  0.00  0.00    +0.000 A 
ATOM      5  C   UNL     1       1.513   7.730  19.486  0.00  0.00    +0.000 A 
ATOM      6  C   UNL     1       1.336   9.073  19.104  0.00  0.00    +0.000 A 
ATOM      7  C   UNL     1       2.040   9.581  18.008  0.00  0.00    +0.000 A 
ATOM      8  C   UNL     1       2.975   8.790  17.322  0.00  0.00    +0.000 A 
ATOM      9  C   UNL     1       3.214   7.468  17.745  0.00  0.00    +0.000 A 
ENDROOT
BRANCH   3  10
ATOM     10  C   UNL     1       2.348   4.586  19.740  0.00  0.00    +0.000 A 
ATOM     11  C   UNL     1       1.351   3.758  19.204  0.00  0.00    +0.000 A 
ATOM     12  C   UNL     1       0.802   2.733  19.975  0.00  0.00    +0.000 A 
ATOM     13  C   UNL     1       1.213   2.557  21.295  0.00  0.00    +0.000 A 
ATOM     14  C   UNL     1       2.177   3.402  21.844  0.00  0.00    +0.000 A 
ATOM     15  C   UNL     1       2.754   4.411  21.069  0.00  0.00    +0.000 A 
ENDBRANCH   3  10
BRANCH   1  17
ATOM     16  C   UNL     1       5.412   4.808  15.587  0.00  0.00    +0.000 C 
ATOM     17  S   UNL     1       5.317   6.528  16.132  0.00  0.00    +0.000 S 
ENDBRANCH   1  17
BRANCH   6  18
ATOM     18  C   UNL     1       0.385   9.908  19.907  0.00  0.00    +0.000 C 
ATOM     19  O   UNL     1      -0.785   9.989  19.533  0.00  0.00    +0.000 OA
BRANCH  18  20
ATOM     20  C   UNL     1       0.889  10.634  21.171  0.00  0.00    +0.000 C 
ATOM     21  C   UNL     1       0.841   9.738  22.415  0.00  0.00    +0.000 C 
ATOM     22  C   UNL     1      -0.541   9.667  23.069  0.00  0.00    +0.000 C 
ATOM     23  N   UNL     1      -1.146  10.974  23.305  0.00  0.00    +0.000 NA
ATOM     24  C   UNL     1      -1.212  11.774  22.084  0.00  0.00    +0.000 C 
ATOM     25  C   UNL     1       0.158  11.958  21.435  0.00  0.00    +0.000 C 
ATOM     26  H   UNL     1      -0.627  11.479  24.022  0.00  0.00    +0.000 HD
ENDBRANCH  18  20
ENDBRANCH   6  18
TORSDOF 4
ENDMDL
MODEL 6
REMARK VINA RESULT:      -8.1      5.035      6.766
REMARK  Name = 
REMARK  5 active torsions:
REMARK  status: ('A' for Active; 'I' for Inactive)
REMARK    1  A    between atoms: C_1  and  S_2
REMARK    2  A    between atoms: S_2  and  C_3
REMARK    3  A    between atoms: N_5  and  C_6
REMARK    4  A    between atoms: C_14  and  C_15
REMARK    5  A    between atoms: C_15  and  C_17
REMARK                            x       y       z     vdW  Elec       q    Type
REMARK                         _______ _______ _______ _____ _____    ______ ____
ROOT
ATOM      1  C   UNL     1       2.538   4.684  20.259  0.00  0.00    +0.000 A 
ATOM      2  N   UNL     1       3.142   4.295  19.140  0.00  0.00    +0.000 NA
ATOM      3  N   UNL     1       3.333   5.445  18.440  0.00  0.00    +0.000 N 
ATOM      4  C   UNL     1       2.659   6.523  19.013  0.00  0.00    +0.000 A 
ATOM      5  C   UNL     1       2.382   7.835  18.572  0.00  0.00    +0.000 A 
ATOM      6  C   UNL     1       1.613   8.682  19.394  0.00  0.00    +0.000 A 
ATOM      7  C   UNL     1       1.194   8.235  20.650  0.00  0.00    +0.000 A 
ATOM      8  C   UNL     1       1.469   6.927  21.080  0.00  0.00    +0.000 A 
ATOM      9  C   UNL     1       2.173   6.049  20.233  0.00  0.00    +0.000 A 
ENDROOT
BRANCH   3  10
ATOM     10  C   UNL     1       4.151   5.418  17.279  0.00  0.00    +0.000 A 
ATOM     11  C   UNL     1       4.553   6.629  16.698  0.00  0.00    +0.000 A 
ATOM     12  C   UNL     1       5.354   6.627  15.556  0.00  0.00    +0.000 A 
ATOM     13  C   UNL     1       5.723   5.419  14.966  0.00  0.00    +0.000 A 
ATOM     14  C   UNL     1       5.294   4.213  15.519  0.00  0.00    +0.000 A 
ATOM     15  C   UNL     1       4.517   4.206  16.679  0.00  0.00    +0.000 A 
ENDBRANCH   3  10
BRANCH   1  17
ATOM     16  C   UNL     1       1.438   2.189  20.679  0.00  0.00    +0.000 C 
ATOM     17  S   UNL     1       2.192   3.572  21.564  0.00  0.00    +0.000 S 
ENDBRANCH   1  17
BRANCH   6  18
ATOM     18  C   UNL     1       1.275  10.044  18.869  0.00  0.00    +0.000 C 
ATOM     19  O   UNL     1       1.901  10.471  17.897  0.00  0.00    +0.000 OA
BRANCH  18  20
ATOM     20  C   UNL     1       0.163  10.868  19.548  0.00  0.00    +0.000 C 
ATOM     21  C   UNL     1      -1.219  10.593  18.940  0.00  0.00    +0.000 C 
ATOM     22  C   UNL     1      -1.493  11.378  17.655  0.00  0.00    +0.000 C 
ATOM     23  N   UNL     1      -1.213  12.805  17.768  0.00  0.00    +0.000 NA
ATOM     24  C   UNL     1       0.150  13.060  18.226  0.00  0.00    +0.000 C 
ATOM     25  C   UNL     1       0.453  12.376  19.558  0.00  0.00    +0.000 C 
ATOM     26  H   UNL     1      -1.879  13.247  18.400  0.00  0.00    +0.000 HD
ENDBRANCH  18  20
ENDBRANCH   6  18
TORSDOF 4
ENDMDL
MODEL 7
REMARK VINA RESULT:      -8.0      3.632      7.284
REMARK  Name = 
REMARK  5 active torsions:
REMARK  status: ('A' for Active; 'I' for Inactive)
REMARK    1  A    between atoms: C_1  and  S_2
REMARK    2  A    between atoms: S_2  and  C_3
REMARK    3  A    between atoms: N_5  and  C_6
REMARK    4  A    between atoms: C_14  and  C_15
REMARK    5  A    between atoms: C_15  and  C_17
REMARK                            x       y       z     vdW  Elec       q    Type
REMARK                         _______ _______ _______ _____ _____    ______ ____
ROOT
ATOM      1  C   UNL     1       1.739   4.639  20.130  0.00  0.00    +0.000 A 
ATOM      2  N   UNL     1       1.424   5.777  20.742  0.00  0.00    +0.000 NA
ATOM      3  N   UNL     1       1.905   6.748  19.921  0.00  0.00    +0.000 N 
ATOM      4  C   UNL     1       2.709   6.224  18.909  0.00  0.00    +0.000 A 
ATOM      5  C   UNL     1       3.577   6.812  17.963  0.00  0.00    +0.000 A 
ATOM      6  C   UNL     1       4.299   5.975  17.090  0.00  0.00    +0.000 A 
ATOM      7  C   UNL     1       4.101   4.592  17.133  0.00  0.00    +0.000 A 
ATOM      8  C   UNL     1       3.240   4.015  18.080  0.00  0.00    +0.000 A 
ATOM      9  C   UNL     1       2.571   4.839  19.006  0.00  0.00    +0.000 A 
ENDROOT
BRANCH   3  10
ATOM     10  C   UNL     1       1.551   8.100  20.171  0.00  0.00    +0.000 A 
ATOM     11  C   UNL     1       1.301   8.508  21.490  0.00  0.00    +0.000 A 
ATOM     12  C   UNL     1       0.949   9.831  21.760  0.00  0.00    +0.000 A 
ATOM     13  C   UNL     1       0.804  10.741  20.714  0.00  0.00    +0.000 A 
ATOM     14  C   UNL     1       1.014  10.330  19.398  0.00  0.00    +0.000 A 
ATOM     15  C   UNL     1       1.396   9.015  19.122  0.00  0.00    +0.000 A 
ENDBRANCH   3  10
BRANCH   1  17
ATOM     16  C   UNL     1       2.692   2.505  21.597  0.00  0.00    +0.000 C 
ATOM     17  S   UNL     1       1.214   3.083  20.734  0.00  0.00    +0.000 S 
ENDBRANCH   1  17
BRANCH   6  18
ATOM     18  C   UNL     1       5.265   6.622  16.145  0.00  0.00    +0.000 C 
ATOM     19  O   UNL     1       4.825   7.139  15.117  0.00  0.00    +0.000 OA
BRANCH  18  20
ATOM     20  C   UNL     1       6.771   6.626  16.478  0.00  0.00    +0.000 C 
ATOM     21  C   UNL     1       7.495   5.394  15.918  0.00  0.00    +0.000 C 
ATOM     22  C   UNL     1       7.356   4.148  16.796  0.00  0.00    +0.000 C 
ATOM     23  N   UNL     1       7.670   4.382  18.202  0.00  0.00    +0.000 NA
ATOM     24  C   UNL     1       6.882   5.477  18.762  0.00  0.00    +0.000 C 
ATOM     25  C   UNL     1       7.054   6.778  17.979  0.00  0.00    +0.000 C 
ATOM     26  H   UNL     1       8.664   4.578  18.314  0.00  0.00    +0.000 HD
ENDBRANCH  18  20
ENDBRANCH   6  18
TORSDOF 4
ENDMDL
MODEL 8
REMARK VINA RESULT:      -7.7      4.418      6.042
REMARK  Name = 
REMARK  5 active torsions:
REMARK  status: ('A' for Active; 'I' for Inactive)
REMARK    1  A    between atoms: C_1  and  S_2
REMARK    2  A    between atoms: S_2  and  C_3
REMARK    3  A    between atoms: N_5  and  C_6
REMARK    4  A    between atoms: C_14  and  C_15
REMARK    5  A    between atoms: C_15  and  C_17
REMARK                            x       y       z     vdW  Elec       q    Type
REMARK                         _______ _______ _______ _____ _____    ______ ____
ROOT
ATOM      1  C   UNL     1       3.276   3.837  19.727  0.00  0.00    +0.000 A 
ATOM      2  N   UNL     1       4.007   3.585  18.646  0.00  0.00    +0.000 NA
ATOM      3  N   UNL     1       4.164   4.799  18.052  0.00  0.00    +0.000 N 
ATOM      4  C   UNL     1       3.355   5.773  18.635  0.00  0.00    +0.000 A 
ATOM      5  C   UNL     1       3.010   7.091  18.266  0.00  0.00    +0.000 A 
ATOM      6  C   UNL     1       2.104   7.809  19.070  0.00  0.00    +0.000 A 
ATOM      7  C   UNL     1       1.612   7.232  20.244  0.00  0.00    +0.000 A 
ATOM      8  C   UNL     1       1.956   5.919  20.603  0.00  0.00    +0.000 A 
ATOM      9  C   UNL     1       2.803   5.167  19.765  0.00  0.00    +0.000 A 
ENDROOT
BRANCH   3  10
ATOM     10  C   UNL     1       5.082   4.926  16.975  0.00  0.00    +0.000 A 
ATOM     11  C   UNL     1       6.230   5.714  17.146  0.00  0.00    +0.000 A 
ATOM     12  C   UNL     1       7.144   5.855  16.102  0.00  0.00    +0.000 A 
ATOM     13  C   UNL     1       6.897   5.247  14.872  0.00  0.00    +0.000 A 
ATOM     14  C   UNL     1       5.738   4.494  14.686  0.00  0.00    +0.000 A 
ATOM     15  C   UNL     1       4.833   4.323  15.736  0.00  0.00    +0.000 A 
ENDBRANCH   3  10
BRANCH   1  17
ATOM     16  C   UNL     1       4.470   1.694  20.991  0.00  0.00    +0.000 C 
ATOM     17  S   UNL     1       2.909   2.601  20.910  0.00  0.00    +0.000 S 
ENDBRANCH   1  17
BRANCH   6  18
ATOM     18  C   UNL     1       1.702   9.179  18.615  0.00  0.00    +0.000 C 
ATOM     19  O   UNL     1       2.064   9.558  17.501  0.00  0.00    +0.000 OA
BRANCH  18  20
ATOM     20  C   UNL     1       0.851  10.071  19.542  0.00  0.00    +0.000 C 
ATOM     21  C   UNL     1      -0.640  10.028  19.182  0.00  0.00    +0.000 C 
ATOM     22  C   UNL     1      -1.020  10.956  18.025  0.00  0.00    +0.000 C 
ATOM     23  N   UNL     1      -0.528  12.321  18.181  0.00  0.00    +0.000 NA
ATOM     24  C   UNL     1       0.917  12.359  18.397  0.00  0.00    +0.000 C 
ATOM     25  C   UNL     1       1.347  11.522  19.601  0.00  0.00    +0.000 C 
ATOM     26  H   UNL     1      -1.005  12.782  18.954  0.00  0.00    +0.000 HD
ENDBRANCH  18  20
ENDBRANCH   6  18
TORSDOF 4
ENDMDL
MODEL 9
REMARK VINA RESULT:      -7.7      4.367      6.045
REMARK  Name = 
REMARK  5 active torsions:
REMARK  status: ('A' for Active; 'I' for Inactive)
REMARK    1  A    between atoms: C_1  and  S_2
REMARK    2  A    between atoms: S_2  and  C_3
REMARK    3  A    between atoms: N_5  and  C_6
REMARK    4  A    between atoms: C_14  and  C_15
REMARK    5  A    between atoms: C_15  and  C_17
REMARK                            x       y       z     vdW  Elec       q    Type
REMARK                         _______ _______ _______ _____ _____    ______ ____
ROOT
ATOM      1  C   UNL     1       3.380   3.926  19.929  0.00  0.00    +0.000 A 
ATOM      2  N   UNL     1       4.122   3.625  18.868  0.00  0.00    +0.000 NA
ATOM      3  N   UNL     1       4.239   4.800  18.192  0.00  0.00    +0.000 N 
ATOM      4  C   UNL     1       3.395   5.783  18.706  0.00  0.00    +0.000 A 
ATOM      5  C   UNL     1       3.007   7.061  18.246  0.00  0.00    +0.000 A 
ATOM      6  C   UNL     1       2.075   7.801  18.998  0.00  0.00    +0.000 A 
ATOM      7  C   UNL     1       1.600   7.291  20.209  0.00  0.00    +0.000 A 
ATOM      8  C   UNL     1       1.987   6.018  20.658  0.00  0.00    +0.000 A 
ATOM      9  C   UNL     1       2.861   5.239  19.875  0.00  0.00    +0.000 A 
ENDROOT
BRANCH   3  10
ATOM     10  C   UNL     1       5.155   4.883  17.109  0.00  0.00    +0.000 A 
ATOM     11  C   UNL     1       4.890   4.165  15.934  0.00  0.00    +0.000 A 
ATOM     12  C   UNL     1       5.776   4.230  14.858  0.00  0.00    +0.000 A 
ATOM     13  C   UNL     1       6.948   4.976  14.965  0.00  0.00    +0.000 A 
ATOM     14  C   UNL     1       7.234   5.662  16.146  0.00  0.00    +0.000 A 
ATOM     15  C   UNL     1       6.337   5.626  17.216  0.00  0.00    +0.000 A 
ENDBRANCH   3  10
BRANCH   1  17
ATOM     16  C   UNL     1       1.245   2.724  21.199  0.00  0.00    +0.000 C 
ATOM     17  S   UNL     1       3.052   2.763  21.194  0.00  0.00    +0.000 S 
ENDBRANCH   1  17
BRANCH   6  18
ATOM     18  C   UNL     1       1.628   9.122  18.449  0.00  0.00    +0.000 C 
ATOM     19  O   UNL     1       2.333   9.676  17.605  0.00  0.00    +0.000 OA
BRANCH  18  20
ATOM     20  C   UNL     1       0.309   9.747  18.946  0.00  0.00    +0.000 C 
ATOM     21  C   UNL     1       0.016  11.096  18.277  0.00  0.00    +0.000 C 
ATOM     22  C   UNL     1       0.755  12.274  18.916  0.00  0.00    +0.000 C 
ATOM     23  N   UNL     1       0.617  12.335  20.368  0.00  0.00    +0.000 NA
ATOM     24  C   UNL     1       1.021  11.086  21.008  0.00  0.00    +0.000 C 
ATOM     25  C   UNL     1       0.246   9.882  20.474  0.00  0.00    +0.000 C 
ATOM     26  H   UNL     1      -0.343  12.560  20.622  0.00  0.00    +0.000 HD
ENDBRANCH  18  20
ENDBRANCH   6  18
TORSDOF 4
ENDMDL
