MODEL 1
REMARK VINA RESULT:      -7.6      0.000      0.000
REMARK  Name = 
REMARK  15 active torsions:
REMARK  status: ('A' for Active; 'I' for Inactive)
REMARK    1  A    between atoms: C_1  and  C_2
REMARK    2  A    between atoms: C_2  and  C_3
REMARK    3  A    between atoms: C_3  and  C_4
REMARK    4  A    between atoms: C_4  and  N_5
REMARK    5  A    between atoms: C_6  and  C_8
REMARK    6  A    between atoms: C_11  and  C_12
REMARK    7  A    between atoms: C_12  and  S_13
REMARK    8  A    between atoms: S_13  and  C_14
REMARK    9  A    between atoms: C_18  and  O_19
REMARK   10  A    between atoms: O_19  and  C_20
REMARK   11  A    between atoms: C_22  and  C_23
REMARK   12  A    between atoms: N_25  and  C_26
REMARK   13  A    between atoms: C_26  and  C_27
REMARK   14  A    between atoms: C_27  and  C_28
REMARK   15  A    between atoms: C_28  and  C_29
REMARK                            x       y       z     vdW  Elec       q    Type
REMARK                         _______ _______ _______ _____ _____    ______ ____
ROOT
ATOM      1  C   UNL     1       5.713   4.305  16.210  0.00  0.00    +0.000 A 
ATOM      2  O   UNL     1       4.525   3.641  16.156  0.00  0.00    +0.000 OA
ATOM      3  N   UNL     1       3.959   3.576  17.407  0.00  0.00    +0.000 NA
ATOM      4  C   UNL     1       4.797   4.228  18.226  0.00  0.00    +0.000 A 
ATOM      5  C   UNL     1       5.941   4.726  17.510  0.00  0.00    +0.000 A 
ENDROOT
BRANCH   1   7
ATOM      6  N   UNL     1       5.989   3.678  13.924  0.00  0.00    +0.000 N 
ATOM      7  C   UNL     1       6.466   4.419  14.982  0.00  0.00    +0.000 C 
ATOM      8  O   UNL     1       7.447   5.150  14.866  0.00  0.00    +0.000 OA
ATOM      9  H   UNL     1       5.211   3.048  14.089  0.00  0.00    +0.000 HD
BRANCH   6  10
ATOM     10  C   UNL     1       6.634   3.683  12.628  0.00  0.00    +0.000 C 
BRANCH  10  11
ATOM     11  C   UNL     1       5.793   2.973  11.569  0.00  0.00    +0.000 C 
BRANCH  11  13
ATOM     12  C   UNL     1       3.646   3.599  10.407  0.00  0.00    +0.000 C 
ATOM     13  C   UNL     1       4.298   3.251  11.735  0.00  0.00    +0.000 C 
ENDBRANCH  11  13
ENDBRANCH  10  11
ENDBRANCH   6  10
ENDBRANCH   1   7
BRANCH   5  14
ATOM     14  C   UNL     1       7.039   5.515  18.059  0.00  0.00    +0.000 C 
ATOM     15  O   UNL     1       7.898   4.998  18.764  0.00  0.00    +0.000 OA
ATOM     16  N   UNL     1       7.070   6.860  17.761  0.00  0.00    +0.000 N 
ATOM     17  H   UNL     1       6.507   7.220  16.995  0.00  0.00    +0.000 HD
BRANCH  16  18
ATOM     18  C   UNL     1       8.117   7.724  18.263  0.00  0.00    +0.000 C 
BRANCH  18  19
ATOM     19  C   UNL     1       8.269   9.016  17.459  0.00  0.00    +0.000 C 
BRANCH  19  20
ATOM     20  C   UNL     1       8.359  10.274  18.328  0.00  0.00    +0.000 C 
ATOM     21  C   UNL     1       9.412  10.119  19.416  0.00  0.00    +0.000 C 
ENDBRANCH  19  20
ENDBRANCH  18  19
ENDBRANCH  16  18
ENDBRANCH   5  14
BRANCH   4  22
ATOM     22  C   UNL     1       4.454   4.345  19.688  0.00  0.00    +0.000 C 
BRANCH  22  23
ATOM     23  S   UNL     1       2.659   4.607  19.906  0.00  0.00    +0.000 S 
BRANCH  23  24
ATOM     24  C   UNL     1       2.414   6.317  19.441  0.00  0.00    +0.000 A 
ATOM     25  C   UNL     1       2.547   6.814  18.140  0.00  0.00    +0.000 A 
ATOM     26  C   UNL     1       2.189   8.141  17.862  0.00  0.00    +0.000 A 
ATOM     27  C   UNL     1       1.703   8.969  18.875  0.00  0.00    +0.000 A 
ATOM     28  C   UNL     1       1.578   8.489  20.178  0.00  0.00    +0.000 A 
ATOM     29  C   UNL     1       1.937   7.168  20.452  0.00  0.00    +0.000 A 
BRANCH  28  30
ATOM     30  O   UNL     1       1.082   9.385  21.086  0.00  0.00    +0.000 OA
ATOM     31  C   UNL     1      -0.328   9.580  21.080  0.00  0.00    +0.000 C 
ENDBRANCH  28  30
ENDBRANCH  23  24
ENDBRANCH  22  23
ENDBRANCH   4  22
TORSDOF 12
ENDMDL
MODEL 2
REMARK VINA RESULT:      -7.4      2.641      4.539
REMARK  Name = 
REMARK  15 active torsions:
REMARK  status: ('A' for Active; 'I' for Inactive)
REMARK    1  A    between atoms: C_1  and  C_2
REMARK    2  A    between atoms: C_2  and  C_3
REMARK    3  A    between atoms: C_3  and  C_4
REMARK    4  A    between atoms: C_4  and  N_5
REMARK    5  A    between atoms: C_6  and  C_8
REMARK    6  A    between atoms: C_11  and  C_12
REMARK    7  A    between atoms: C_12  and  S_13
REMARK    8  A    between atoms: S_13  and  C_14
REMARK    9  A    between atoms: C_18  and  O_19
REMARK   10  A    between atoms: O_19  and  C_20
REMARK   11  A    between atoms: C_22  and  C_23
REMARK   12  A    between atoms: N_25  and  C_26
REMARK   13  A    between atoms: C_26  and  C_27
REMARK   14  A    between atoms: C_27  and  C_28
REMARK   15  A    between atoms: C_28  and  C_29
REMARK                            x       y       z     vdW  Elec       q    Type
REMARK                         _______ _______ _______ _____ _____    ______ ____
ROOT
ATOM      1  C   UNL     1       5.360   5.541  16.159  0.00  0.00    +0.000 A 
ATOM      2  O   UNL     1       5.385   6.889  15.967  0.00  0.00    +0.000 OA
ATOM      3  N   UNL     1       4.445   7.501  16.762  0.00  0.00    +0.000 NA
ATOM      4  C   UNL     1       3.858   6.519  17.462  0.00  0.00    +0.000 A 
ATOM      5  C   UNL     1       4.411   5.235  17.122  0.00  0.00    +0.000 A 
ENDROOT
BRANCH   1   7
ATOM      6  N   UNL     1       5.858   4.526  14.057  0.00  0.00    +0.000 N 
ATOM      7  C   UNL     1       6.256   4.740  15.358  0.00  0.00    +0.000 C 
ATOM      8  O   UNL     1       7.322   4.301  15.786  0.00  0.00    +0.000 OA
ATOM      9  H   UNL     1       4.945   4.862  13.772  0.00  0.00    +0.000 HD
BRANCH   6  10
ATOM     10  C   UNL     1       6.646   3.741  13.130  0.00  0.00    +0.000 C 
BRANCH  10  11
ATOM     11  C   UNL     1       5.771   3.005  12.119  0.00  0.00    +0.000 C 
BRANCH  11  13
ATOM     12  C   UNL     1       3.684   3.197  10.719  0.00  0.00    +0.000 C 
ATOM     13  C   UNL     1       4.374   3.618  12.006  0.00  0.00    +0.000 C 
ENDBRANCH  11  13
ENDBRANCH  10  11
ENDBRANCH   6  10
ENDBRANCH   1   7
BRANCH   5  14
ATOM     14  C   UNL     1       4.052   3.947  17.706  0.00  0.00    +0.000 C 
ATOM     15  O   UNL     1       4.840   3.335  18.418  0.00  0.00    +0.000 OA
ATOM     16  N   UNL     1       2.801   3.443  17.423  0.00  0.00    +0.000 N 
ATOM     17  H   UNL     1       2.085   4.058  17.044  0.00  0.00    +0.000 HD
BRANCH  16  18
ATOM     18  C   UNL     1       2.357   2.172  17.953  0.00  0.00    +0.000 C 
BRANCH  18  19
ATOM     19  C   UNL     1       1.010   2.257  18.673  0.00  0.00    +0.000 C 
BRANCH  19  20
ATOM     20  C   UNL     1       1.001   3.241  19.846  0.00  0.00    +0.000 C 
ATOM     21  C   UNL     1       1.930   2.780  20.961  0.00  0.00    +0.000 C 
ENDBRANCH  19  20
ENDBRANCH  18  19
ENDBRANCH  16  18
ENDBRANCH   5  14
BRANCH   4  22
ATOM     22  C   UNL     1       2.773   6.865  18.447  0.00  0.00    +0.000 C 
BRANCH  22  23
ATOM     23  S   UNL     1       2.046   8.495  18.054  0.00  0.00    +0.000 S 
BRANCH  23  24
ATOM     24  C   UNL     1       1.321   9.027  19.601  0.00  0.00    +0.000 A 
ATOM     25  C   UNL     1       1.357   8.292  20.790  0.00  0.00    +0.000 A 
ATOM     26  C   UNL     1       0.885   8.867  21.979  0.00  0.00    +0.000 A 
ATOM     27  C   UNL     1       0.379  10.169  21.981  0.00  0.00    +0.000 A 
ATOM     28  C   UNL     1       0.326  10.906  20.800  0.00  0.00    +0.000 A 
ATOM     29  C   UNL     1       0.795  10.329  19.618  0.00  0.00    +0.000 A 
BRANCH  28  30
ATOM     30  O   UNL     1      -0.179  12.173  20.923  0.00  0.00    +0.000 OA
ATOM     31  C   UNL     1      -0.990  12.424  22.065  0.00  0.00    +0.000 C 
ENDBRANCH  28  30
ENDBRANCH  23  24
ENDBRANCH  22  23
ENDBRANCH   4  22
TORSDOF 12
ENDMDL
MODEL 3
REMARK VINA RESULT:      -7.3      3.233      8.356
REMARK  Name = 
REMARK  15 active torsions:
REMARK  status: ('A' for Active; 'I' for Inactive)
REMARK    1  A    between atoms: C_1  and  C_2
REMARK    2  A    between atoms: C_2  and  C_3
REMARK    3  A    between atoms: C_3  and  C_4
REMARK    4  A    between atoms: C_4  and  N_5
REMARK    5  A    between atoms: C_6  and  C_8
REMARK    6  A    between atoms: C_11  and  C_12
REMARK    7  A    between atoms: C_12  and  S_13
REMARK    8  A    between atoms: S_13  and  C_14
REMARK    9  A    between atoms: C_18  and  O_19
REMARK   10  A    between atoms: O_19  and  C_20
REMARK   11  A    between atoms: C_22  and  C_23
REMARK   12  A    between atoms: N_25  and  C_26
REMARK   13  A    between atoms: C_26  and  C_27
REMARK   14  A    between atoms: C_27  and  C_28
REMARK   15  A    between atoms: C_28  and  C_29
REMARK                            x       y       z     vdW  Elec       q    Type
REMARK                         _______ _______ _______ _____ _____    ______ ____
ROOT
ATOM      1  C   UNL     1       2.985   7.188  18.065  0.00  0.00    +0.000 A 
ATOM      2  O   UNL     1       4.093   7.723  17.479  0.00  0.00    +0.000 OA
ATOM      3  N   UNL     1       4.874   6.729  16.940  0.00  0.00    +0.000 NA
ATOM      4  C   UNL     1       4.224   5.580  17.176  0.00  0.00    +0.000 A 
ATOM      5  C   UNL     1       2.998   5.813  17.891  0.00  0.00    +0.000 A 
ENDROOT
BRANCH   1   7
ATOM      6  N   UNL     1       1.518   9.064  17.924  0.00  0.00    +0.000 N 
ATOM      7  C   UNL     1       2.080   8.097  18.728  0.00  0.00    +0.000 C 
ATOM      8  O   UNL     1       1.795   8.005  19.920  0.00  0.00    +0.000 OA
ATOM      9  H   UNL     1       1.830   9.131  16.961  0.00  0.00    +0.000 HD
BRANCH   6  10
ATOM     10  C   UNL     1       0.592  10.052  18.439  0.00  0.00    +0.000 C 
BRANCH  10  11
ATOM     11  C   UNL     1      -0.788   9.929  17.799  0.00  0.00    +0.000 C 
BRANCH  11  13
ATOM     12  C   UNL     1      -3.059  11.010  17.629  0.00  0.00    +0.000 C 
ATOM     13  C   UNL     1      -1.833  10.798  18.502  0.00  0.00    +0.000 C 
ENDBRANCH  11  13
ENDBRANCH  10  11
ENDBRANCH   6  10
ENDBRANCH   1   7
BRANCH   5  14
ATOM     14  C   UNL     1       2.013   4.811  18.285  0.00  0.00    +0.000 C 
ATOM     15  O   UNL     1       1.462   4.103  17.449  0.00  0.00    +0.000 OA
ATOM     16  N   UNL     1       1.722   4.695  19.627  0.00  0.00    +0.000 N 
ATOM     17  H   UNL     1       2.348   5.105  20.316  0.00  0.00    +0.000 HD
BRANCH  16  18
ATOM     18  C   UNL     1       0.756   3.733  20.114  0.00  0.00    +0.000 C 
BRANCH  18  19
ATOM     19  C   UNL     1       1.363   2.695  21.059  0.00  0.00    +0.000 C 
BRANCH  19  20
ATOM     20  C   UNL     1       2.840   2.945  21.380  0.00  0.00    +0.000 C 
ATOM     21  C   UNL     1       3.748   2.264  20.366  0.00  0.00    +0.000 C 
ENDBRANCH  19  20
ENDBRANCH  18  19
ENDBRANCH  16  18
ENDBRANCH   5  14
BRANCH   4  22
ATOM     22  C   UNL     1       4.822   4.284  16.694  0.00  0.00    +0.000 C 
BRANCH  22  23
ATOM     23  S   UNL     1       6.613   4.477  16.394  0.00  0.00    +0.000 S 
BRANCH  23  24
ATOM     24  C   UNL     1       6.748   4.529  14.610  0.00  0.00    +0.000 A 
ATOM     25  C   UNL     1       7.677   5.303  13.906  0.00  0.00    +0.000 A 
ATOM     26  C   UNL     1       7.791   5.158  12.515  0.00  0.00    +0.000 A 
ATOM     27  C   UNL     1       6.985   4.245  11.832  0.00  0.00    +0.000 A 
ATOM     28  C   UNL     1       6.048   3.478  12.521  0.00  0.00    +0.000 A 
ATOM     29  C   UNL     1       5.935   3.627  13.905  0.00  0.00    +0.000 A 
BRANCH  28  30
ATOM     30  O   UNL     1       5.321   2.611  11.751  0.00  0.00    +0.000 OA
ATOM     31  C   UNL     1       4.114   3.117  11.192  0.00  0.00    +0.000 C 
ENDBRANCH  28  30
ENDBRANCH  23  24
ENDBRANCH  22  23
ENDBRANCH   4  22
TORSDOF 12
ENDMDL
MODEL 4
REMARK VINA RESULT:      -7.2      2.684      4.525
REMARK  Name = 
REMARK  15 active torsions:
REMARK  status: ('A' for Active; 'I' for Inactive)
REMARK    1  A    between atoms: C_1  and  C_2
REMARK    2  A    between atoms: C_2  and  C_3
REMARK    3  A    between atoms: C_3  and  C_4
REMARK    4  A    between atoms: C_4  and  N_5
REMARK    5  A    between atoms: C_6  and  C_8
REMARK    6  A    between atoms: C_11  and  C_12
REMARK    7  A    between atoms: C_12  and  S_13
REMARK    8  A    between atoms: S_13  and  C_14
REMARK    9  A    between atoms: C_18  and  O_19
REMARK   10  A    between atoms: O_19  and  C_20
REMARK   11  A    between atoms: C_22  and  C_23
REMARK   12  A    between atoms: N_25  and  C_26
REMARK   13  A    between atoms: C_26  and  C_27
REMARK   14  A    between atoms: C_27  and  C_28
REMARK   15  A    between atoms: C_28  and  C_29
REMARK                            x       y       z     vdW  Elec       q    Type
REMARK                         _______ _______ _______ _____ _____    ______ ____
ROOT
ATOM      1  C   UNL     1       5.296   5.734  16.171  0.00  0.00    +0.000 A 
ATOM      2  O   UNL     1       5.004   6.976  15.694  0.00  0.00    +0.000 OA
ATOM      3  N   UNL     1       4.100   7.603  16.518  0.00  0.00    +0.000 NA
ATOM      4  C   UNL     1       3.857   6.745  17.520  0.00  0.00    +0.000 A 
ATOM      5  C   UNL     1       4.605   5.528  17.355  0.00  0.00    +0.000 A 
ENDROOT
BRANCH   1   7
ATOM      6  N   UNL     1       5.656   4.358  14.256  0.00  0.00    +0.000 N 
ATOM      7  C   UNL     1       6.197   4.918  15.391  0.00  0.00    +0.000 C 
ATOM      8  O   UNL     1       7.378   4.754  15.691  0.00  0.00    +0.000 OA
ATOM      9  H   UNL     1       4.663   4.478  14.086  0.00  0.00    +0.000 HD
BRANCH   6  10
ATOM     10  C   UNL     1       6.429   3.511  13.371  0.00  0.00    +0.000 C 
BRANCH  10  11
ATOM     11  C   UNL     1       5.830   3.454  11.968  0.00  0.00    +0.000 C 
BRANCH  11  13
ATOM     12  C   UNL     1       6.745   1.354  10.917  0.00  0.00    +0.000 C 
ATOM     13  C   UNL     1       5.524   2.022  11.526  0.00  0.00    +0.000 C 
ENDBRANCH  11  13
ENDBRANCH  10  11
ENDBRANCH   6  10
ENDBRANCH   1   7
BRANCH   5  14
ATOM     14  C   UNL     1       4.627   4.387  18.264  0.00  0.00    +0.000 C 
ATOM     15  O   UNL     1       5.654   4.069  18.855  0.00  0.00    +0.000 OA
ATOM     16  N   UNL     1       3.457   3.678  18.430  0.00  0.00    +0.000 N 
ATOM     17  H   UNL     1       2.574   4.087  18.134  0.00  0.00    +0.000 HD
BRANCH  16  18
ATOM     18  C   UNL     1       3.383   2.529  19.307  0.00  0.00    +0.000 C 
BRANCH  18  19
ATOM     19  C   UNL     1       1.948   2.097  19.612  0.00  0.00    +0.000 C 
BRANCH  19  20
ATOM     20  C   UNL     1       1.356   2.764  20.857  0.00  0.00    +0.000 C 
ATOM     21  C   UNL     1       0.980   4.213  20.581  0.00  0.00    +0.000 C 
ENDBRANCH  19  20
ENDBRANCH  18  19
ENDBRANCH  16  18
ENDBRANCH   5  14
BRANCH   4  22
ATOM     22  C   UNL     1       2.901   7.144  18.613  0.00  0.00    +0.000 C 
BRANCH  22  23
ATOM     23  S   UNL     1       2.048   8.700  18.183  0.00  0.00    +0.000 S 
BRANCH  23  24
ATOM     24  C   UNL     1       1.072   9.072  19.637  0.00  0.00    +0.000 A 
ATOM     25  C   UNL     1       1.173   8.395  20.856  0.00  0.00    +0.000 A 
ATOM     26  C   UNL     1       0.465   8.863  21.973  0.00  0.00    +0.000 A 
ATOM     27  C   UNL     1      -0.339  10.000  21.874  0.00  0.00    +0.000 A 
ATOM     28  C   UNL     1      -0.458  10.675  20.660  0.00  0.00    +0.000 A 
ATOM     29  C   UNL     1       0.247  10.205  19.550  0.00  0.00    +0.000 A 
BRANCH  28  30
ATOM     30  O   UNL     1      -1.265  11.781  20.683  0.00  0.00    +0.000 OA
ATOM     31  C   UNL     1      -1.459  12.451  19.443  0.00  0.00    +0.000 C 
ENDBRANCH  28  30
ENDBRANCH  23  24
ENDBRANCH  22  23
ENDBRANCH   4  22
TORSDOF 12
ENDMDL
MODEL 5
REMARK VINA RESULT:      -7.1      1.653      6.007
REMARK  Name = 
REMARK  15 active torsions:
REMARK  status: ('A' for Active; 'I' for Inactive)
REMARK    1  A    between atoms: C_1  and  C_2
REMARK    2  A    between atoms: C_2  and  C_3
REMARK    3  A    between atoms: C_3  and  C_4
REMARK    4  A    between atoms: C_4  and  N_5
REMARK    5  A    between atoms: C_6  and  C_8
REMARK    6  A    between atoms: C_11  and  C_12
REMARK    7  A    between atoms: C_12  and  S_13
REMARK    8  A    between atoms: S_13  and  C_14
REMARK    9  A    between atoms: C_18  and  O_19
REMARK   10  A    between atoms: O_19  and  C_20
REMARK   11  A    between atoms: C_22  and  C_23
REMARK   12  A    between atoms: N_25  and  C_26
REMARK   13  A    between atoms: C_26  and  C_27
REMARK   14  A    between atoms: C_27  and  C_28
REMARK   15  A    between atoms: C_28  and  C_29
REMARK                            x       y       z     vdW  Elec       q    Type
REMARK                         _______ _______ _______ _____ _____    ______ ____
ROOT
ATOM      1  C   UNL     1       6.841   6.223  17.995  0.00  0.00    +0.000 A 
ATOM      2  O   UNL     1       6.893   5.921  19.323  0.00  0.00    +0.000 OA
ATOM      3  N   UNL     1       6.047   4.876  19.607  0.00  0.00    +0.000 NA
ATOM      4  C   UNL     1       5.493   4.521  18.438  0.00  0.00    +0.000 A 
ATOM      5  C   UNL     1       5.972   5.348  17.363  0.00  0.00    +0.000 A 
ENDROOT
BRANCH   1   7
ATOM      6  N   UNL     1       7.827   8.347  18.453  0.00  0.00    +0.000 N 
ATOM      7  C   UNL     1       7.637   7.338  17.536  0.00  0.00    +0.000 C 
ATOM      8  O   UNL     1       8.146   7.379  16.418  0.00  0.00    +0.000 OA
ATOM      9  H   UNL     1       7.339   8.290  19.340  0.00  0.00    +0.000 HD
BRANCH   6  10
ATOM     10  C   UNL     1       8.598   9.534  18.144  0.00  0.00    +0.000 C 
BRANCH  10  11
ATOM     11  C   UNL     1       9.291  10.102  19.380  0.00  0.00    +0.000 C 
BRANCH  11  13
ATOM     12  C   UNL     1      10.615  11.538  17.786  0.00  0.00    +0.000 C 
ATOM     13  C   UNL     1       9.894  11.484  19.123  0.00  0.00    +0.000 C 
ENDBRANCH  11  13
ENDBRANCH  10  11
ENDBRANCH   6  10
ENDBRANCH   1   7
BRANCH   5  14
ATOM     14  C   UNL     1       5.624   5.232  15.951  0.00  0.00    +0.000 C 
ATOM     15  O   UNL     1       5.149   6.182  15.337  0.00  0.00    +0.000 OA
ATOM     16  N   UNL     1       5.845   4.019  15.336  0.00  0.00    +0.000 N 
ATOM     17  H   UNL     1       6.451   3.332  15.778  0.00  0.00    +0.000 HD
BRANCH  16  18
ATOM     18  C   UNL     1       5.528   3.807  13.940  0.00  0.00    +0.000 C 
BRANCH  18  19
ATOM     19  C   UNL     1       6.712   4.066  13.008  0.00  0.00    +0.000 C 
BRANCH  19  20
ATOM     20  C   UNL     1       6.692   3.213  11.736  0.00  0.00    +0.000 C 
ATOM     21  C   UNL     1       5.396   2.424  11.620  0.00  0.00    +0.000 C 
ENDBRANCH  19  20
ENDBRANCH  18  19
ENDBRANCH  16  18
ENDBRANCH   5  14
BRANCH   4  22
ATOM     22  C   UNL     1       4.510   3.380  18.407  0.00  0.00    +0.000 C 
BRANCH  22  23
ATOM     23  S   UNL     1       2.945   3.902  17.624  0.00  0.00    +0.000 S 
BRANCH  23  24
ATOM     24  C   UNL     1       2.429   5.315  18.594  0.00  0.00    +0.000 A 
ATOM     25  C   UNL     1       2.068   5.262  19.945  0.00  0.00    +0.000 A 
ATOM     26  C   UNL     1       1.819   6.451  20.646  0.00  0.00    +0.000 A 
ATOM     27  C   UNL     1       1.931   7.686  20.004  0.00  0.00    +0.000 A 
ATOM     28  C   UNL     1       2.277   7.750  18.655  0.00  0.00    +0.000 A 
ATOM     29  C   UNL     1       2.521   6.564  17.960  0.00  0.00    +0.000 A 
BRANCH  28  30
ATOM     30  O   UNL     1       2.366   9.013  18.134  0.00  0.00    +0.000 OA
ATOM     31  C   UNL     1       1.209   9.833  18.254  0.00  0.00    +0.000 C 
ENDBRANCH  28  30
ENDBRANCH  23  24
ENDBRANCH  22  23
ENDBRANCH   4  22
TORSDOF 12
ENDMDL
MODEL 6
REMARK VINA RESULT:      -7.1      0.851      1.021
REMARK  Name = 
REMARK  15 active torsions:
REMARK  status: ('A' for Active; 'I' for Inactive)
REMARK    1  A    between atoms: C_1  and  C_2
REMARK    2  A    between atoms: C_2  and  C_3
REMARK    3  A    between atoms: C_3  and  C_4
REMARK    4  A    between atoms: C_4  and  N_5
REMARK    5  A    between atoms: C_6  and  C_8
REMARK    6  A    between atoms: C_11  and  C_12
REMARK    7  A    between atoms: C_12  and  S_13
REMARK    8  A    between atoms: S_13  and  C_14
REMARK    9  A    between atoms: C_18  and  O_19
REMARK   10  A    between atoms: O_19  and  C_20
REMARK   11  A    between atoms: C_22  and  C_23
REMARK   12  A    between atoms: N_25  and  C_26
REMARK   13  A    between atoms: C_26  and  C_27
REMARK   14  A    between atoms: C_27  and  C_28
REMARK   15  A    between atoms: C_28  and  C_29
REMARK                            x       y       z     vdW  Elec       q    Type
REMARK                         _______ _______ _______ _____ _____    ______ ____
ROOT
ATOM      1  C   UNL     1       5.279   4.321  16.035  0.00  0.00    +0.000 A 
ATOM      2  O   UNL     1       4.054   3.728  15.972  0.00  0.00    +0.000 OA
ATOM      3  N   UNL     1       3.587   3.463  17.237  0.00  0.00    +0.000 NA
ATOM      4  C   UNL     1       4.524   3.922  18.080  0.00  0.00    +0.000 A 
ATOM      5  C   UNL     1       5.633   4.492  17.364  0.00  0.00    +0.000 A 
ENDROOT
BRANCH   1   7
ATOM      6  N   UNL     1       6.302   3.529  14.031  0.00  0.00    +0.000 N 
ATOM      7  C   UNL     1       5.937   4.622  14.785  0.00  0.00    +0.000 C 
ATOM      8  O   UNL     1       6.132   5.770  14.392  0.00  0.00    +0.000 OA
ATOM      9  H   UNL     1       6.170   2.605  14.427  0.00  0.00    +0.000 HD
BRANCH   6  10
ATOM     10  C   UNL     1       6.974   3.663  12.755  0.00  0.00    +0.000 C 
BRANCH  10  11
ATOM     11  C   UNL     1       6.020   3.445  11.583  0.00  0.00    +0.000 C 
BRANCH  11  13
ATOM     12  C   UNL     1       6.378   1.030  10.957  0.00  0.00    +0.000 C 
ATOM     13  C   UNL     1       5.423   2.037  11.576  0.00  0.00    +0.000 C 
ENDBRANCH  11  13
ENDBRANCH  10  11
ENDBRANCH   6  10
ENDBRANCH   1   7
BRANCH   5  14
ATOM     14  C   UNL     1       6.815   5.124  17.943  0.00  0.00    +0.000 C 
ATOM     15  O   UNL     1       7.724   4.450  18.416  0.00  0.00    +0.000 OA
ATOM     16  N   UNL     1       6.868   6.501  17.943  0.00  0.00    +0.000 N 
ATOM     17  H   UNL     1       6.240   7.029  17.343  0.00  0.00    +0.000 HD
BRANCH  16  18
ATOM     18  C   UNL     1       7.997   7.216  18.499  0.00  0.00    +0.000 C 
BRANCH  18  19
ATOM     19  C   UNL     1       8.215   8.587  17.858  0.00  0.00    +0.000 C 
BRANCH  19  20
ATOM     20  C   UNL     1       8.970   9.573  18.755  0.00  0.00    +0.000 C 
ATOM     21  C   UNL     1       8.844  10.999  18.237  0.00  0.00    +0.000 C 
ENDBRANCH  19  20
ENDBRANCH  18  19
ENDBRANCH  16  18
ENDBRANCH   5  14
BRANCH   4  22
ATOM     22  C   UNL     1       4.305   3.790  19.564  0.00  0.00    +0.000 C 
BRANCH  22  23
ATOM     23  S   UNL     1       2.575   4.184  19.996  0.00  0.00    +0.000 S 
BRANCH  23  24
ATOM     24  C   UNL     1       2.417   5.922  19.599  0.00  0.00    +0.000 A 
ATOM     25  C   UNL     1       2.707   6.482  18.350  0.00  0.00    +0.000 A 
ATOM     26  C   UNL     1       2.410   7.831  18.106  0.00  0.00    +0.000 A 
ATOM     27  C   UNL     1       1.827   8.617  19.102  0.00  0.00    +0.000 A 
ATOM     28  C   UNL     1       1.546   8.074  20.355  0.00  0.00    +0.000 A 
ATOM     29  C   UNL     1       1.845   6.731  20.594  0.00  0.00    +0.000 A 
BRANCH  28  30
ATOM     30  O   UNL     1       0.967   8.934  21.249  0.00  0.00    +0.000 OA
ATOM     31  C   UNL     1       0.792  10.278  20.814  0.00  0.00    +0.000 C 
ENDBRANCH  28  30
ENDBRANCH  23  24
ENDBRANCH  22  23
ENDBRANCH   4  22
TORSDOF 12
ENDMDL
MODEL 7
REMARK VINA RESULT:      -7.0      2.063      6.544
REMARK  Name = 
REMARK  15 active torsions:
REMARK  status: ('A' for Active; 'I' for Inactive)
REMARK    1  A    between atoms: C_1  and  C_2
REMARK    2  A    between atoms: C_2  and  C_3
REMARK    3  A    between atoms: C_3  and  C_4
REMARK    4  A    between atoms: C_4  and  N_5
REMARK    5  A    between atoms: C_6  and  C_8
REMARK    6  A    between atoms: C_11  and  C_12
REMARK    7  A    between atoms: C_12  and  S_13
REMARK    8  A    between atoms: S_13  and  C_14
REMARK    9  A    between atoms: C_18  and  O_19
REMARK   10  A    between atoms: O_19  and  C_20
REMARK   11  A    between atoms: C_22  and  C_23
REMARK   12  A    between atoms: N_25  and  C_26
REMARK   13  A    between atoms: C_26  and  C_27
REMARK   14  A    between atoms: C_27  and  C_28
REMARK   15  A    between atoms: C_28  and  C_29
REMARK                            x       y       z     vdW  Elec       q    Type
REMARK                         _______ _______ _______ _____ _____    ______ ____
ROOT
ATOM      1  C   UNL     1       7.394   6.663  18.256  0.00  0.00    +0.000 A 
ATOM      2  O   UNL     1       7.449   6.240  19.550  0.00  0.00    +0.000 OA
ATOM      3  N   UNL     1       6.790   5.041  19.688  0.00  0.00    +0.000 NA
ATOM      4  C   UNL     1       6.352   4.718  18.462  0.00  0.00    +0.000 A 
ATOM      5  C   UNL     1       6.717   5.720  17.498  0.00  0.00    +0.000 A 
ENDROOT
BRANCH   1   7
ATOM      6  N   UNL     1       8.684   8.533  18.983  0.00  0.00    +0.000 N 
ATOM      7  C   UNL     1       7.997   7.938  17.948  0.00  0.00    +0.000 C 
ATOM      8  O   UNL     1       7.939   8.453  16.833  0.00  0.00    +0.000 OA
ATOM      9  H   UNL     1       8.653   8.095  19.897  0.00  0.00    +0.000 HD
BRANCH   6  10
ATOM     10  C   UNL     1       9.342   9.816  18.834  0.00  0.00    +0.000 C 
BRANCH  10  11
ATOM     11  C   UNL     1       9.380  10.593  20.147  0.00  0.00    +0.000 C 
BRANCH  11  13
ATOM     12  C   UNL     1      11.431  12.058  20.148  0.00  0.00    +0.000 C 
ATOM     13  C   UNL     1       9.923  12.011  19.966  0.00  0.00    +0.000 C 
ENDBRANCH  11  13
ENDBRANCH  10  11
ENDBRANCH   6  10
ENDBRANCH   1   7
BRANCH   5  14
ATOM     14  C   UNL     1       6.449   5.691  16.064  0.00  0.00    +0.000 C 
ATOM     15  O   UNL     1       5.658   6.477  15.552  0.00  0.00    +0.000 OA
ATOM     16  N   UNL     1       7.112   4.748  15.308  0.00  0.00    +0.000 N 
ATOM     17  H   UNL     1       7.927   4.277  15.692  0.00  0.00    +0.000 HD
BRANCH  16  18
ATOM     18  C   UNL     1       6.908   4.639  13.880  0.00  0.00    +0.000 C 
BRANCH  18  19
ATOM     19  C   UNL     1       5.671   3.819  13.509  0.00  0.00    +0.000 C 
BRANCH  19  20
ATOM     20  C   UNL     1       5.714   3.251  12.087  0.00  0.00    +0.000 C 
ATOM     21  C   UNL     1       7.148   3.075  11.606  0.00  0.00    +0.000 C 
ENDBRANCH  19  20
ENDBRANCH  18  19
ENDBRANCH  16  18
ENDBRANCH   5  14
BRANCH   4  22
ATOM     22  C   UNL     1       5.589   3.434  18.270  0.00  0.00    +0.000 C 
BRANCH  22  23
ATOM     23  S   UNL     1       4.074   3.728  17.292  0.00  0.00    +0.000 S 
BRANCH  23  24
ATOM     24  C   UNL     1       2.780   3.834  18.524  0.00  0.00    +0.000 A 
ATOM     25  C   UNL     1       2.062   2.740  19.018  0.00  0.00    +0.000 A 
ATOM     26  C   UNL     1       1.171   2.918  20.087  0.00  0.00    +0.000 A 
ATOM     27  C   UNL     1       0.998   4.180  20.659  0.00  0.00    +0.000 A 
ATOM     28  C   UNL     1       1.699   5.279  20.167  0.00  0.00    +0.000 A 
ATOM     29  C   UNL     1       2.583   5.099  19.102  0.00  0.00    +0.000 A 
BRANCH  28  30
ATOM     30  O   UNL     1       1.457   6.463  20.811  0.00  0.00    +0.000 OA
ATOM     31  C   UNL     1       1.961   7.639  20.189  0.00  0.00    +0.000 C 
ENDBRANCH  28  30
ENDBRANCH  23  24
ENDBRANCH  22  23
ENDBRANCH   4  22
TORSDOF 12
ENDMDL
MODEL 8
REMARK VINA RESULT:      -7.0      3.246      8.424
REMARK  Name = 
REMARK  15 active torsions:
REMARK  status: ('A' for Active; 'I' for Inactive)
REMARK    1  A    between atoms: C_1  and  C_2
REMARK    2  A    between atoms: C_2  and  C_3
REMARK    3  A    between atoms: C_3  and  C_4
REMARK    4  A    between atoms: C_4  and  N_5
REMARK    5  A    between atoms: C_6  and  C_8
REMARK    6  A    between atoms: C_11  and  C_12
REMARK    7  A    between atoms: C_12  and  S_13
REMARK    8  A    between atoms: S_13  and  C_14
REMARK    9  A    between atoms: C_18  and  O_19
REMARK   10  A    between atoms: O_19  and  C_20
REMARK   11  A    between atoms: C_22  and  C_23
REMARK   12  A    between atoms: N_25  and  C_26
REMARK   13  A    between atoms: C_26  and  C_27
REMARK   14  A    between atoms: C_27  and  C_28
REMARK   15  A    between atoms: C_28  and  C_29
REMARK                            x       y       z     vdW  Elec       q    Type
REMARK                         _______ _______ _______ _____ _____    ______ ____
ROOT
ATOM      1  C   UNL     1       2.902   7.357  18.107  0.00  0.00    +0.000 A 
ATOM      2  O   UNL     1       3.964   7.887  17.438  0.00  0.00    +0.000 OA
ATOM      3  N   UNL     1       4.716   6.886  16.870  0.00  0.00    +0.000 NA
ATOM      4  C   UNL     1       4.093   5.738  17.174  0.00  0.00    +0.000 A 
ATOM      5  C   UNL     1       2.915   5.979  17.962  0.00  0.00    +0.000 A 
ENDROOT
BRANCH   1   7
ATOM      6  N   UNL     1       1.563   9.331  18.060  0.00  0.00    +0.000 N 
ATOM      7  C   UNL     1       2.034   8.275  18.807  0.00  0.00    +0.000 C 
ATOM      8  O   UNL     1       1.702   8.116  19.980  0.00  0.00    +0.000 OA
ATOM      9  H   UNL     1       1.912   9.446  17.115  0.00  0.00    +0.000 HD
BRANCH   6  10
ATOM     10  C   UNL     1       0.685  10.339  18.619  0.00  0.00    +0.000 C 
BRANCH  10  11
ATOM     11  C   UNL     1       1.465  11.510  19.212  0.00  0.00    +0.000 C 
BRANCH  11  13
ATOM     12  C   UNL     1       2.864  13.480  18.492  0.00  0.00    +0.000 C 
ATOM     13  C   UNL     1       1.604  12.672  18.227  0.00  0.00    +0.000 C 
ENDBRANCH  11  13
ENDBRANCH  10  11
ENDBRANCH   6  10
ENDBRANCH   1   7
BRANCH   5  14
ATOM     14  C   UNL     1       1.966   4.979  18.443  0.00  0.00    +0.000 C 
ATOM     15  O   UNL     1       1.341   4.273  17.659  0.00  0.00    +0.000 OA
ATOM     16  N   UNL     1       1.797   4.862  19.806  0.00  0.00    +0.000 N 
ATOM     17  H   UNL     1       2.483   5.269  20.436  0.00  0.00    +0.000 HD
BRANCH  16  18
ATOM     18  C   UNL     1       0.876   3.902  20.376  0.00  0.00    +0.000 C 
BRANCH  18  19
ATOM     19  C   UNL     1       1.519   2.542  20.653  0.00  0.00    +0.000 C 
BRANCH  19  20
ATOM     20  C   UNL     1       2.907   2.637  21.294  0.00  0.00    +0.000 C 
ATOM     21  C   UNL     1       4.004   2.344  20.280  0.00  0.00    +0.000 C 
ENDBRANCH  19  20
ENDBRANCH  18  19
ENDBRANCH  16  18
ENDBRANCH   5  14
BRANCH   4  22
ATOM     22  C   UNL     1       4.670   4.437  16.682  0.00  0.00    +0.000 C 
BRANCH  22  23
ATOM     23  S   UNL     1       6.475   4.582  16.450  0.00  0.00    +0.000 S 
BRANCH  23  24
ATOM     24  C   UNL     1       6.682   4.584  14.672  0.00  0.00    +0.000 A 
ATOM     25  C   UNL     1       7.657   5.317  13.987  0.00  0.00    +0.000 A 
ATOM     26  C   UNL     1       7.823   5.133  12.606  0.00  0.00    +0.000 A 
ATOM     27  C   UNL     1       7.022   4.223  11.913  0.00  0.00    +0.000 A 
ATOM     28  C   UNL     1       6.039   3.497  12.584  0.00  0.00    +0.000 A 
ATOM     29  C   UNL     1       5.875   3.684  13.957  0.00  0.00    +0.000 A 
BRANCH  28  30
ATOM     30  O   UNL     1       5.322   2.628  11.806  0.00  0.00    +0.000 OA
ATOM     31  C   UNL     1       4.139   3.142  11.204  0.00  0.00    +0.000 C 
ENDBRANCH  28  30
ENDBRANCH  23  24
ENDBRANCH  22  23
ENDBRANCH   4  22
TORSDOF 12
ENDMDL
MODEL 9
REMARK VINA RESULT:      -6.9      2.570      4.492
REMARK  Name = 
REMARK  15 active torsions:
REMARK  status: ('A' for Active; 'I' for Inactive)
REMARK    1  A    between atoms: C_1  and  C_2
REMARK    2  A    between atoms: C_2  and  C_3
REMARK    3  A    between atoms: C_3  and  C_4
REMARK    4  A    between atoms: C_4  and  N_5
REMARK    5  A    between atoms: C_6  and  C_8
REMARK    6  A    between atoms: C_11  and  C_12
REMARK    7  A    between atoms: C_12  and  S_13
REMARK    8  A    between atoms: S_13  and  C_14
REMARK    9  A    between atoms: C_18  and  O_19
REMARK   10  A    between atoms: O_19  and  C_20
REMARK   11  A    between atoms: C_22  and  C_23
REMARK   12  A    between atoms: N_25  and  C_26
REMARK   13  A    between atoms: C_26  and  C_27
REMARK   14  A    between atoms: C_27  and  C_28
REMARK   15  A    between atoms: C_28  and  C_29
REMARK                            x       y       z     vdW  Elec       q    Type
REMARK                         _______ _______ _______ _____ _____    ______ ____
ROOT
ATOM      1  C   UNL     1       5.537   5.669  16.483  0.00  0.00    +0.000 A 
ATOM      2  O   UNL     1       5.741   7.012  16.586  0.00  0.00    +0.000 OA
ATOM      3  N   UNL     1       4.742   7.590  17.332  0.00  0.00    +0.000 NA
ATOM      4  C   UNL     1       3.935   6.587  17.708  0.00  0.00    +0.000 A 
ATOM      5  C   UNL     1       4.400   5.326  17.198  0.00  0.00    +0.000 A 
ENDROOT
BRANCH   1   7
ATOM      6  N   UNL     1       6.488   5.219  14.342  0.00  0.00    +0.000 N 
ATOM      7  C   UNL     1       6.475   4.914  15.685  0.00  0.00    +0.000 C 
ATOM      8  O   UNL     1       7.238   4.079  16.164  0.00  0.00    +0.000 OA
ATOM      9  H   UNL     1       5.799   5.874  13.990  0.00  0.00    +0.000 HD
BRANCH   6  10
ATOM     10  C   UNL     1       7.370   4.547  13.409  0.00  0.00    +0.000 C 
BRANCH  10  11
ATOM     11  C   UNL     1       6.607   3.966  12.221  0.00  0.00    +0.000 C 
BRANCH  11  13
ATOM     12  C   UNL     1       4.345   3.213  11.402  0.00  0.00    +0.000 C 
ATOM     13  C   UNL     1       5.227   3.441  12.619  0.00  0.00    +0.000 C 
ENDBRANCH  11  13
ENDBRANCH  10  11
ENDBRANCH   6  10
ENDBRANCH   1   7
BRANCH   5  14
ATOM     14  C   UNL     1       3.804   4.015  17.434  0.00  0.00    +0.000 C 
ATOM     15  O   UNL     1       2.908   3.589  16.713  0.00  0.00    +0.000 OA
ATOM     16  N   UNL     1       4.281   3.278  18.497  0.00  0.00    +0.000 N 
ATOM     17  H   UNL     1       5.168   3.529  18.926  0.00  0.00    +0.000 HD
BRANCH  16  18
ATOM     18  C   UNL     1       3.749   1.970  18.812  0.00  0.00    +0.000 C 
BRANCH  18  19
ATOM     19  C   UNL     1       2.421   2.025  19.568  0.00  0.00    +0.000 C 
BRANCH  19  20
ATOM     20  C   UNL     1       2.366   3.124  20.634  0.00  0.00    +0.000 C 
ATOM     21  C   UNL     1       1.156   4.026  20.435  0.00  0.00    +0.000 C 
ENDBRANCH  19  20
ENDBRANCH  18  19
ENDBRANCH  16  18
ENDBRANCH   5  14
BRANCH   4  22
ATOM     22  C   UNL     1       2.730   6.893  18.559  0.00  0.00    +0.000 C 
BRANCH  22  23
ATOM     23  S   UNL     1       1.989   8.490  18.072  0.00  0.00    +0.000 S 
BRANCH  23  24
ATOM     24  C   UNL     1       1.229   9.089  19.577  0.00  0.00    +0.000 A 
ATOM     25  C   UNL     1       1.204   8.389  20.788  0.00  0.00    +0.000 A 
ATOM     26  C   UNL     1       0.710   9.014  21.942  0.00  0.00    +0.000 A 
ATOM     27  C   UNL     1       0.244  10.329  21.890  0.00  0.00    +0.000 A 
ATOM     28  C   UNL     1       0.252  11.032  20.686  0.00  0.00    +0.000 A 
ATOM     29  C   UNL     1       0.743  10.406  19.539  0.00  0.00    +0.000 A 
BRANCH  28  30
ATOM     30  O   UNL     1      -0.219  12.315  20.756  0.00  0.00    +0.000 OA
ATOM     31  C   UNL     1      -1.275  12.653  19.864  0.00  0.00    +0.000 C 
ENDBRANCH  28  30
ENDBRANCH  23  24
ENDBRANCH  22  23
ENDBRANCH   4  22
TORSDOF 12
ENDMDL
