MODEL 1
REMARK VINA RESULT:      -7.6      0.000      0.000
REMARK  Name = 
REMARK  8 active torsions:
REMARK  status: ('A' for Active; 'I' for Inactive)
REMARK    1  A    between atoms: C_1  and  C_2
REMARK    2  A    between atoms: C_3  and  O_4
REMARK    3  A    between atoms: C_5  and  C_6
REMARK    4  A    between atoms: C_6  and  O_7
REMARK    5  A    between atoms: O_7  and  P_8
REMARK    6  A    between atoms: P_8  and  O_10
REMARK    7  A    between atoms: P_8  and  O_11
REMARK    8  A    between atoms: C_13  and  N_14
REMARK                            x       y       z     vdW  Elec       q    Type
REMARK                         _______ _______ _______ _____ _____    ______ ____
ROOT
ATOM      1  C   UNL     1       1.358   4.155  19.108  0.00  0.00    +0.000 C 
ATOM      2  C   UNL     1       2.731   4.610  18.631  0.00  0.00    +0.000 C 
ATOM      3  C   UNL     1       3.890   3.646  18.854  0.00  0.00    +0.000 C 
ATOM      4  C   UNL     1       5.110   4.549  19.110  0.00  0.00    +0.000 C 
ATOM      5  O   UNL     1       4.634   5.912  19.092  0.00  0.00    +0.000 OA
ATOM      6  C   UNL     1       3.215   5.883  19.317  0.00  0.00    +0.000 C 
ENDROOT
BRANCH   6   7
ATOM      7  N   UNL     1       2.659   7.154  18.900  0.00  0.00    +0.000 N 
ATOM      8  C   UNL     1       2.866   7.722  17.667  0.00  0.00    +0.000 A 
ATOM      9  N   UNL     1       2.240   8.873  17.533  0.00  0.00    +0.000 NA
ATOM     10  C   UNL     1       1.581   9.053  18.733  0.00  0.00    +0.000 A 
ATOM     11  C   UNL     1       0.736  10.069  19.208  0.00  0.00    +0.000 A 
ATOM     12  N   UNL     1       0.342  11.164  18.453  0.00  0.00    +0.000 N 
ATOM     13  N   UNL     1       0.286   9.995  20.482  0.00  0.00    +0.000 NA
ATOM     14  C   UNL     1       0.639   8.927  21.221  0.00  0.00    +0.000 A 
ATOM     15  N   UNL     1       1.403   7.879  20.861  0.00  0.00    +0.000 NA
ATOM     16  C   UNL     1       1.850   8.007  19.600  0.00  0.00    +0.000 A 
ATOM     17  H   UNL     1       0.949  11.354  17.661  0.00  0.00    +0.000 HD
ATOM     18  H   UNL     1       0.043  11.939  19.024  0.00  0.00    +0.000 HD
ENDBRANCH   6   7
BRANCH   3  19
ATOM     19  O   UNL     1       3.657   2.756  19.940  0.00  0.00    +0.000 OA
ATOM     20  H   UNL     1       2.795   2.948  20.344  0.00  0.00    +0.000 HD
ENDBRANCH   3  19
BRANCH   4  21
ATOM     21  C   UNL     1       6.207   4.357  18.058  0.00  0.00    +0.000 C 
BRANCH  21  22
ATOM     22  O   UNL     1       5.640   4.183  16.759  0.00  0.00    +0.000 OA
BRANCH  22  23
ATOM     23  P   UNL     1       6.653   4.814  15.507  0.00  0.00    +0.000 P 
ATOM     24  O   UNL     1       7.921   4.491  16.292  0.00  0.00    +0.000 OA
BRANCH  23  25
ATOM     25  O   UNL     1       6.374   3.487  14.602  0.00  0.00    +0.000 OA
ATOM     26  H   UNL     1       6.656   2.715  15.126  0.00  0.00    +0.000 HD
ENDBRANCH  23  25
BRANCH  23  27
ATOM     27  O   UNL     1       7.668   5.444  14.256  0.00  0.00    +0.000 OA
ATOM     28  H   UNL     1       7.367   4.986  13.446  0.00  0.00    +0.000 HD
ENDBRANCH  23  27
ENDBRANCH  22  23
ENDBRANCH  21  22
ENDBRANCH   4  21
TORSDOF 7
ENDMDL
MODEL 2
REMARK VINA RESULT:      -7.6      0.889      1.109
REMARK  Name = 
REMARK  8 active torsions:
REMARK  status: ('A' for Active; 'I' for Inactive)
REMARK    1  A    between atoms: C_1  and  C_2
REMARK    2  A    between atoms: C_3  and  O_4
REMARK    3  A    between atoms: C_5  and  C_6
REMARK    4  A    between atoms: C_6  and  O_7
REMARK    5  A    between atoms: O_7  and  P_8
REMARK    6  A    between atoms: P_8  and  O_10
REMARK    7  A    between atoms: P_8  and  O_11
REMARK    8  A    between atoms: C_13  and  N_14
REMARK                            x       y       z     vdW  Elec       q    Type
REMARK                         _______ _______ _______ _____ _____    ______ ____
ROOT
ATOM      1  C   UNL     1       1.443   4.279  17.721  0.00  0.00    +0.000 C 
ATOM      2  C   UNL     1       2.845   4.814  17.986  0.00  0.00    +0.000 C 
ATOM      3  C   UNL     1       3.885   3.809  18.464  0.00  0.00    +0.000 C 
ATOM      4  C   UNL     1       4.804   4.610  19.404  0.00  0.00    +0.000 C 
ATOM      5  O   UNL     1       4.260   5.945  19.484  0.00  0.00    +0.000 OA
ATOM      6  C   UNL     1       2.885   5.883  19.073  0.00  0.00    +0.000 C 
ENDROOT
BRANCH   6   7
ATOM      7  N   UNL     1       2.443   7.223  18.748  0.00  0.00    +0.000 N 
ATOM      8  C   UNL     1       2.637   7.828  17.530  0.00  0.00    +0.000 A 
ATOM      9  N   UNL     1       2.129   9.043  17.487  0.00  0.00    +0.000 NA
ATOM     10  C   UNL     1       1.565   9.230  18.733  0.00  0.00    +0.000 A 
ATOM     11  C   UNL     1       0.861  10.302  19.305  0.00  0.00    +0.000 A 
ATOM     12  N   UNL     1       0.542  11.468  18.625  0.00  0.00    +0.000 N 
ATOM     13  N   UNL     1       0.481  10.211  20.600  0.00  0.00    +0.000 NA
ATOM     14  C   UNL     1       0.761   9.077  21.268  0.00  0.00    +0.000 A 
ATOM     15  N   UNL     1       1.388   7.975  20.815  0.00  0.00    +0.000 NA
ATOM     16  C   UNL     1       1.771   8.119  19.535  0.00  0.00    +0.000 A 
ATOM     17  H   UNL     1       1.119  11.635  17.805  0.00  0.00    +0.000 HD
ATOM     18  H   UNL     1       0.361  12.241  19.248  0.00  0.00    +0.000 HD
ENDBRANCH   6   7
BRANCH   3  19
ATOM     19  O   UNL     1       3.302   2.691  19.123  0.00  0.00    +0.000 OA
ATOM     20  H   UNL     1       2.470   2.958  19.549  0.00  0.00    +0.000 HD
ENDBRANCH   3  19
BRANCH   4  21
ATOM     21  C   UNL     1       6.252   4.656  18.904  0.00  0.00    +0.000 C 
BRANCH  21  22
ATOM     22  O   UNL     1       6.501   5.862  18.183  0.00  0.00    +0.000 OA
BRANCH  22  23
ATOM     23  P   UNL     1       6.945   5.566  16.538  0.00  0.00    +0.000 P 
ATOM     24  O   UNL     1       7.768   6.849  16.469  0.00  0.00    +0.000 OA
BRANCH  23  25
ATOM     25  O   UNL     1       8.000   4.420  17.021  0.00  0.00    +0.000 OA
ATOM     26  H   UNL     1       8.191   4.582  17.963  0.00  0.00    +0.000 HD
ENDBRANCH  23  25
BRANCH  23  27
ATOM     27  O   UNL     1       7.391   5.271  14.892  0.00  0.00    +0.000 OA
ATOM     28  H   UNL     1       7.739   6.129  14.577  0.00  0.00    +0.000 HD
ENDBRANCH  23  27
ENDBRANCH  22  23
ENDBRANCH  21  22
ENDBRANCH   4  21
TORSDOF 7
ENDMDL
MODEL 3
REMARK VINA RESULT:      -7.2      1.113      1.287
REMARK  Name = 
REMARK  8 active torsions:
REMARK  status: ('A' for Active; 'I' for Inactive)
REMARK    1  A    between atoms: C_1  and  C_2
REMARK    2  A    between atoms: C_3  and  O_4
REMARK    3  A    between atoms: C_5  and  C_6
REMARK    4  A    between atoms: C_6  and  O_7
REMARK    5  A    between atoms: O_7  and  P_8
REMARK    6  A    between atoms: P_8  and  O_10
REMARK    7  A    between atoms: P_8  and  O_11
REMARK    8  A    between atoms: C_13  and  N_14
REMARK                            x       y       z     vdW  Elec       q    Type
REMARK                         _______ _______ _______ _____ _____    ______ ____
ROOT
ATOM      1  C   UNL     1       1.410   4.819  20.505  0.00  0.00    +0.000 C 
ATOM      2  C   UNL     1       2.148   5.123  19.208  0.00  0.00    +0.000 C 
ATOM      3  C   UNL     1       3.201   4.116  18.763  0.00  0.00    +0.000 C 
ATOM      4  C   UNL     1       4.280   4.959  18.060  0.00  0.00    +0.000 C 
ATOM      5  O   UNL     1       3.873   6.339  18.172  0.00  0.00    +0.000 OA
ATOM      6  C   UNL     1       2.931   6.431  19.252  0.00  0.00    +0.000 C 
ENDROOT
BRANCH   6   7
ATOM      7  N   UNL     1       2.208   7.680  19.125  0.00  0.00    +0.000 N 
ATOM      8  C   UNL     1       2.014   8.344  17.938  0.00  0.00    +0.000 A 
ATOM      9  N   UNL     1       1.314   9.450  18.091  0.00  0.00    +0.000 NA
ATOM     10  C   UNL     1       1.027   9.497  19.441  0.00  0.00    +0.000 A 
ATOM     11  C   UNL     1       0.303  10.410  20.226  0.00  0.00    +0.000 A 
ATOM     12  N   UNL     1      -0.353  11.519  19.714  0.00  0.00    +0.000 N 
ATOM     13  N   UNL     1       0.251  10.216  21.563  0.00  0.00    +0.000 NA
ATOM     14  C   UNL     1       0.862   9.131  22.074  0.00  0.00    +0.000 A 
ATOM     15  N   UNL     1       1.544   8.172  21.420  0.00  0.00    +0.000 NA
ATOM     16  C   UNL     1       1.594   8.419  20.100  0.00  0.00    +0.000 A 
ATOM     17  H   UNL     1      -0.016  11.809  18.800  0.00  0.00    +0.000 HD
ATOM     18  H   UNL     1      -0.514  12.229  20.413  0.00  0.00    +0.000 HD
ENDBRANCH   6   7
BRANCH   3  19
ATOM     19  O   UNL     1       3.739   3.373  19.852  0.00  0.00    +0.000 OA
ATOM     20  H   UNL     1       4.214   3.969  20.454  0.00  0.00    +0.000 HD
ENDBRANCH   3  19
BRANCH   4  21
ATOM     21  C   UNL     1       4.451   4.574  16.587  0.00  0.00    +0.000 C 
BRANCH  21  22
ATOM     22  O   UNL     1       5.660   3.840  16.391  0.00  0.00    +0.000 OA
BRANCH  22  23
ATOM     23  P   UNL     1       6.746   4.637  15.305  0.00  0.00    +0.000 P 
ATOM     24  O   UNL     1       6.052   5.981  15.507  0.00  0.00    +0.000 OA
BRANCH  23  25
ATOM     25  O   UNL     1       7.918   4.600  16.438  0.00  0.00    +0.000 OA
ATOM     26  H   UNL     1       8.122   3.663  16.612  0.00  0.00    +0.000 HD
ENDBRANCH  23  25
BRANCH  23  27
ATOM     27  O   UNL     1       7.831   5.436  14.221  0.00  0.00    +0.000 OA
ATOM     28  H   UNL     1       8.555   5.757  14.794  0.00  0.00    +0.000 HD
ENDBRANCH  23  27
ENDBRANCH  22  23
ENDBRANCH  21  22
ENDBRANCH   4  21
TORSDOF 7
ENDMDL
MODEL 4
REMARK VINA RESULT:      -7.2      3.061      4.738
REMARK  Name = 
REMARK  8 active torsions:
REMARK  status: ('A' for Active; 'I' for Inactive)
REMARK    1  A    between atoms: C_1  and  C_2
REMARK    2  A    between atoms: C_3  and  O_4
REMARK    3  A    between atoms: C_5  and  C_6
REMARK    4  A    between atoms: C_6  and  O_7
REMARK    5  A    between atoms: O_7  and  P_8
REMARK    6  A    between atoms: P_8  and  O_10
REMARK    7  A    between atoms: P_8  and  O_11
REMARK    8  A    between atoms: C_13  and  N_14
REMARK                            x       y       z     vdW  Elec       q    Type
REMARK                         _______ _______ _______ _____ _____    ______ ____
ROOT
ATOM      1  C   UNL     1       6.743   5.531  19.021  0.00  0.00    +0.000 C 
ATOM      2  C   UNL     1       6.394   5.021  17.629  0.00  0.00    +0.000 C 
ATOM      3  C   UNL     1       7.226   5.559  16.472  0.00  0.00    +0.000 C 
ATOM      4  C   UNL     1       6.252   5.622  15.281  0.00  0.00    +0.000 C 
ATOM      5  O   UNL     1       4.960   5.209  15.775  0.00  0.00    +0.000 OA
ATOM      6  C   UNL     1       4.969   5.359  17.204  0.00  0.00    +0.000 C 
ENDROOT
BRANCH   6   7
ATOM      7  N   UNL     1       3.876   4.583  17.753  0.00  0.00    +0.000 N 
ATOM      8  C   UNL     1       3.502   3.342  17.297  0.00  0.00    +0.000 A 
ATOM      9  N   UNL     1       2.488   2.844  17.974  0.00  0.00    +0.000 NA
ATOM     10  C   UNL     1       2.199   3.801  18.926  0.00  0.00    +0.000 A 
ATOM     11  C   UNL     1       1.244   3.860  19.954  0.00  0.00    +0.000 A 
ATOM     12  N   UNL     1       0.358   2.833  20.245  0.00  0.00    +0.000 N 
ATOM     13  N   UNL     1       1.162   4.985  20.699  0.00  0.00    +0.000 NA
ATOM     14  C   UNL     1       2.031   5.982  20.446  0.00  0.00    +0.000 A 
ATOM     15  N   UNL     1       3.009   6.021  19.522  0.00  0.00    +0.000 NA
ATOM     16  C   UNL     1       3.036   4.896  18.788  0.00  0.00    +0.000 A 
ATOM     17  H   UNL     1       0.222   2.180  19.479  0.00  0.00    +0.000 HD
ATOM     18  H   UNL     1      -0.455   3.157  20.749  0.00  0.00    +0.000 HD
ENDBRANCH   6   7
BRANCH   3  19
ATOM     19  O   UNL     1       7.795   6.832  16.754  0.00  0.00    +0.000 OA
ATOM     20  H   UNL     1       7.123   7.413  17.148  0.00  0.00    +0.000 HD
ENDBRANCH   3  19
BRANCH   4  21
ATOM     21  C   UNL     1       6.690   4.721  14.122  0.00  0.00    +0.000 C 
BRANCH  21  22
ATOM     22  O   UNL     1       5.573   4.020  13.575  0.00  0.00    +0.000 OA
BRANCH  22  23
ATOM     23  P   UNL     1       6.045   2.848  12.394  0.00  0.00    +0.000 P 
ATOM     24  O   UNL     1       4.775   3.073  11.579  0.00  0.00    +0.000 OA
BRANCH  23  25
ATOM     25  O   UNL     1       7.128   3.897  11.774  0.00  0.00    +0.000 OA
ATOM     26  H   UNL     1       6.942   3.976  10.821  0.00  0.00    +0.000 HD
ENDBRANCH  23  25
BRANCH  23  27
ATOM     27  O   UNL     1       6.516   1.677  11.211  0.00  0.00    +0.000 OA
ATOM     28  H   UNL     1       7.300   2.070  10.779  0.00  0.00    +0.000 HD
ENDBRANCH  23  27
ENDBRANCH  22  23
ENDBRANCH  21  22
ENDBRANCH   4  21
TORSDOF 7
ENDMDL
MODEL 5
REMARK VINA RESULT:      -7.2      0.999      1.128
REMARK  Name = 
REMARK  8 active torsions:
REMARK  status: ('A' for Active; 'I' for Inactive)
REMARK    1  A    between atoms: C_1  and  C_2
REMARK    2  A    between atoms: C_3  and  O_4
REMARK    3  A    between atoms: C_5  and  C_6
REMARK    4  A    between atoms: C_6  and  O_7
REMARK    5  A    between atoms: O_7  and  P_8
REMARK    6  A    between atoms: P_8  and  O_10
REMARK    7  A    between atoms: P_8  and  O_11
REMARK    8  A    between atoms: C_13  and  N_14
REMARK                            x       y       z     vdW  Elec       q    Type
REMARK                         _______ _______ _______ _____ _____    ______ ____
ROOT
ATOM      1  C   UNL     1       1.249   4.601  20.093  0.00  0.00    +0.000 C 
ATOM      2  C   UNL     1       2.118   4.832  18.864  0.00  0.00    +0.000 C 
ATOM      3  C   UNL     1       3.107   3.731  18.505  0.00  0.00    +0.000 C 
ATOM      4  C   UNL     1       4.315   4.469  17.899  0.00  0.00    +0.000 C 
ATOM      5  O   UNL     1       4.029   5.881  17.983  0.00  0.00    +0.000 OA
ATOM      6  C   UNL     1       3.011   6.063  18.981  0.00  0.00    +0.000 C 
ENDROOT
BRANCH   6   7
ATOM      7  N   UNL     1       2.420   7.372  18.800  0.00  0.00    +0.000 N 
ATOM      8  C   UNL     1       2.423   8.065  17.613  0.00  0.00    +0.000 A 
ATOM      9  N   UNL     1       1.809   9.227  17.710  0.00  0.00    +0.000 NA
ATOM     10  C   UNL     1       1.374   9.284  19.018  0.00  0.00    +0.000 A 
ATOM     11  C   UNL     1       0.647  10.249  19.736  0.00  0.00    +0.000 A 
ATOM     12  N   UNL     1       0.154  11.418  19.177  0.00  0.00    +0.000 N 
ATOM     13  N   UNL     1       0.424  10.044  21.054  0.00  0.00    +0.000 NA
ATOM     14  C   UNL     1       0.876   8.903  21.607  0.00  0.00    +0.000 A 
ATOM     15  N   UNL     1       1.542   7.895  21.014  0.00  0.00    +0.000 NA
ATOM     16  C   UNL     1       1.765   8.152  19.714  0.00  0.00    +0.000 A 
ATOM     17  H   UNL     1       0.618  11.687  18.314  0.00  0.00    +0.000 HD
ATOM     18  H   UNL     1      -0.024  12.131  19.868  0.00  0.00    +0.000 HD
ENDBRANCH   6   7
BRANCH   3  19
ATOM     19  O   UNL     1       3.481   2.945  19.631  0.00  0.00    +0.000 OA
ATOM     20  H   UNL     1       2.710   2.806  20.205  0.00  0.00    +0.000 HD
ENDBRANCH   3  19
BRANCH   4  21
ATOM     21  C   UNL     1       4.573   4.066  16.443  0.00  0.00    +0.000 C 
BRANCH  21  22
ATOM     22  O   UNL     1       5.970   3.890  16.206  0.00  0.00    +0.000 OA
BRANCH  22  23
ATOM     23  P   UNL     1       6.867   5.350  16.441  0.00  0.00    +0.000 P 
ATOM     24  O   UNL     1       7.877   4.652  17.346  0.00  0.00    +0.000 OA
BRANCH  23  25
ATOM     25  O   UNL     1       7.491   5.217  14.940  0.00  0.00    +0.000 OA
ATOM     26  H   UNL     1       7.895   6.076  14.718  0.00  0.00    +0.000 HD
ENDBRANCH  23  25
BRANCH  23  27
ATOM     27  O   UNL     1       7.765   6.810  16.676  0.00  0.00    +0.000 OA
ATOM     28  H   UNL     1       7.591   7.055  17.607  0.00  0.00    +0.000 HD
ENDBRANCH  23  27
ENDBRANCH  22  23
ENDBRANCH  21  22
ENDBRANCH   4  21
TORSDOF 7
ENDMDL
MODEL 6
REMARK VINA RESULT:      -7.2      1.272      1.425
REMARK  Name = 
REMARK  8 active torsions:
REMARK  status: ('A' for Active; 'I' for Inactive)
REMARK    1  A    between atoms: C_1  and  C_2
REMARK    2  A    between atoms: C_3  and  O_4
REMARK    3  A    between atoms: C_5  and  C_6
REMARK    4  A    between atoms: C_6  and  O_7
REMARK    5  A    between atoms: O_7  and  P_8
REMARK    6  A    between atoms: P_8  and  O_10
REMARK    7  A    between atoms: P_8  and  O_11
REMARK    8  A    between atoms: C_13  and  N_14
REMARK                            x       y       z     vdW  Elec       q    Type
REMARK                         _______ _______ _______ _____ _____    ______ ____
ROOT
ATOM      1  C   UNL     1       1.413   4.116  18.041  0.00  0.00    +0.000 C 
ATOM      2  C   UNL     1       2.837   4.649  18.130  0.00  0.00    +0.000 C 
ATOM      3  C   UNL     1       3.917   3.661  18.551  0.00  0.00    +0.000 C 
ATOM      4  C   UNL     1       4.932   4.500  19.347  0.00  0.00    +0.000 C 
ATOM      5  O   UNL     1       4.407   5.843  19.410  0.00  0.00    +0.000 OA
ATOM      6  C   UNL     1       2.996   5.775  19.148  0.00  0.00    +0.000 C 
ENDROOT
BRANCH   6   7
ATOM      7  N   UNL     1       2.530   7.101  18.799  0.00  0.00    +0.000 N 
ATOM      8  C   UNL     1       2.751   7.704  17.584  0.00  0.00    +0.000 A 
ATOM      9  N   UNL     1       2.213   8.904  17.515  0.00  0.00    +0.000 NA
ATOM     10  C   UNL     1       1.599   9.082  18.739  0.00  0.00    +0.000 A 
ATOM     11  C   UNL     1       0.847  10.138  19.279  0.00  0.00    +0.000 A 
ATOM     12  N   UNL     1       0.521  11.292  18.580  0.00  0.00    +0.000 N 
ATOM     13  N   UNL     1       0.424  10.045  20.560  0.00  0.00    +0.000 NA
ATOM     14  C   UNL     1       0.710   8.922  21.245  0.00  0.00    +0.000 A 
ATOM     15  N   UNL     1       1.382   7.835  20.822  0.00  0.00    +0.000 NA
ATOM     16  C   UNL     1       1.807   7.982  19.555  0.00  0.00    +0.000 A 
ATOM     17  H   UNL     1       1.122  11.469  17.780  0.00  0.00    +0.000 HD
ATOM     18  H   UNL     1       0.297  12.062  19.191  0.00  0.00    +0.000 HD
ENDBRANCH   6   7
BRANCH   3  19
ATOM     19  O   UNL     1       3.399   2.586  19.327  0.00  0.00    +0.000 OA
ATOM     20  H   UNL     1       3.911   1.778  19.154  0.00  0.00    +0.000 HD
ENDBRANCH   3  19
BRANCH   4  21
ATOM     21  C   UNL     1       6.320   4.503  18.698  0.00  0.00    +0.000 C 
BRANCH  21  22
ATOM     22  O   UNL     1       6.263   5.050  17.380  0.00  0.00    +0.000 OA
BRANCH  22  23
ATOM     23  P   UNL     1       6.937   6.641  17.297  0.00  0.00    +0.000 P 
ATOM     24  O   UNL     1       7.933   6.340  18.412  0.00  0.00    +0.000 OA
BRANCH  23  25
ATOM     25  O   UNL     1       7.719   6.246  15.922  0.00  0.00    +0.000 OA
ATOM     26  H   UNL     1       8.631   6.004  16.168  0.00  0.00    +0.000 HD
ENDBRANCH  23  25
BRANCH  23  27
ATOM     27  O   UNL     1       7.612   8.232  17.215  0.00  0.00    +0.000 OA
ATOM     28  H   UNL     1       8.356   8.212  17.849  0.00  0.00    +0.000 HD
ENDBRANCH  23  27
ENDBRANCH  22  23
ENDBRANCH  21  22
ENDBRANCH   4  21
TORSDOF 7
ENDMDL
MODEL 7
REMARK VINA RESULT:      -7.2      0.896      1.019
REMARK  Name = 
REMARK  8 active torsions:
REMARK  status: ('A' for Active; 'I' for Inactive)
REMARK    1  A    between atoms: C_1  and  C_2
REMARK    2  A    between atoms: C_3  and  O_4
REMARK    3  A    between atoms: C_5  and  C_6
REMARK    4  A    between atoms: C_6  and  O_7
REMARK    5  A    between atoms: O_7  and  P_8
REMARK    6  A    between atoms: P_8  and  O_10
REMARK    7  A    between atoms: P_8  and  O_11
REMARK    8  A    between atoms: C_13  and  N_14
REMARK                            x       y       z     vdW  Elec       q    Type
REMARK                         _______ _______ _______ _____ _____    ______ ____
ROOT
ATOM      1  C   UNL     1       1.652   4.038  18.185  0.00  0.00    +0.000 C 
ATOM      2  C   UNL     1       2.985   4.642  17.762  0.00  0.00    +0.000 C 
ATOM      3  C   UNL     1       4.187   3.707  17.741  0.00  0.00    +0.000 C 
ATOM      4  C   UNL     1       5.383   4.594  18.131  0.00  0.00    +0.000 C 
ATOM      5  O   UNL     1       4.856   5.908  18.409  0.00  0.00    +0.000 OA
ATOM      6  C   UNL     1       3.452   5.770  18.676  0.00  0.00    +0.000 C 
ENDROOT
BRANCH   6   7
ATOM      7  N   UNL     1       2.830   7.072  18.548  0.00  0.00    +0.000 N 
ATOM      8  C   UNL     1       2.942   7.878  17.440  0.00  0.00    +0.000 A 
ATOM      9  N   UNL     1       2.272   9.005  17.570  0.00  0.00    +0.000 NA
ATOM     10  C   UNL     1       1.685   8.920  18.817  0.00  0.00    +0.000 A 
ATOM     11  C   UNL     1       0.839   9.786  19.528  0.00  0.00    +0.000 A 
ATOM     12  N   UNL     1       0.365  10.989  19.026  0.00  0.00    +0.000 N 
ATOM     13  N   UNL     1       0.473   9.448  20.785  0.00  0.00    +0.000 NA
ATOM     14  C   UNL     1       0.905   8.272  21.280  0.00  0.00    +0.000 A 
ATOM     15  N   UNL     1       1.678   7.349  20.680  0.00  0.00    +0.000 NA
ATOM     16  C   UNL     1       2.040   7.738  19.446  0.00  0.00    +0.000 A 
ATOM     17  H   UNL     1       0.915  11.356  18.254  0.00  0.00    +0.000 HD
ATOM     18  H   UNL     1       0.078  11.625  19.754  0.00  0.00    +0.000 HD
ENDBRANCH   6   7
BRANCH   3  19
ATOM     19  O   UNL     1       4.036   2.605  18.629  0.00  0.00    +0.000 OA
ATOM     20  H   UNL     1       3.626   1.859  18.161  0.00  0.00    +0.000 HD
ENDBRANCH   3  19
BRANCH   4  21
ATOM     21  C   UNL     1       6.439   4.669  17.023  0.00  0.00    +0.000 C 
BRANCH  21  22
ATOM     22  O   UNL     1       5.972   5.463  15.932  0.00  0.00    +0.000 OA
BRANCH  22  23
ATOM     23  P   UNL     1       6.310   4.739  14.398  0.00  0.00    +0.000 P 
ATOM     24  O   UNL     1       7.739   5.272  14.396  0.00  0.00    +0.000 OA
BRANCH  23  25
ATOM     25  O   UNL     1       6.414   3.273  15.104  0.00  0.00    +0.000 OA
ATOM     26  H   UNL     1       5.565   3.109  15.555  0.00  0.00    +0.000 HD
ENDBRANCH  23  25
BRANCH  23  27
ATOM     27  O   UNL     1       6.649   4.014  12.864  0.00  0.00    +0.000 OA
ATOM     28  H   UNL     1       5.817   3.560  12.621  0.00  0.00    +0.000 HD
ENDBRANCH  23  27
ENDBRANCH  22  23
ENDBRANCH  21  22
ENDBRANCH   4  21
TORSDOF 7
ENDMDL
MODEL 8
REMARK VINA RESULT:      -7.2      3.070      5.039
REMARK  Name = 
REMARK  8 active torsions:
REMARK  status: ('A' for Active; 'I' for Inactive)
REMARK    1  A    between atoms: C_1  and  C_2
REMARK    2  A    between atoms: C_3  and  O_4
REMARK    3  A    between atoms: C_5  and  C_6
REMARK    4  A    between atoms: C_6  and  O_7
REMARK    5  A    between atoms: O_7  and  P_8
REMARK    6  A    between atoms: P_8  and  O_10
REMARK    7  A    between atoms: P_8  and  O_11
REMARK    8  A    between atoms: C_13  and  N_14
REMARK                            x       y       z     vdW  Elec       q    Type
REMARK                         _______ _______ _______ _____ _____    ______ ____
ROOT
ATOM      1  C   UNL     1       7.482   5.815  19.124  0.00  0.00    +0.000 C 
ATOM      2  C   UNL     1       6.895   5.012  17.970  0.00  0.00    +0.000 C 
ATOM      3  C   UNL     1       7.304   5.429  16.563  0.00  0.00    +0.000 C 
ATOM      4  C   UNL     1       6.070   5.138  15.691  0.00  0.00    +0.000 C 
ATOM      5  O   UNL     1       5.036   4.655  16.576  0.00  0.00    +0.000 OA
ATOM      6  C   UNL     1       5.372   5.070  17.910  0.00  0.00    +0.000 C 
ENDROOT
BRANCH   6   7
ATOM      7  N   UNL     1       4.607   4.272  18.845  0.00  0.00    +0.000 N 
ATOM      8  C   UNL     1       4.901   2.971  19.172  0.00  0.00    +0.000 A 
ATOM      9  N   UNL     1       4.059   2.474  20.056  0.00  0.00    +0.000 NA
ATOM     10  C   UNL     1       3.185   3.508  20.325  0.00  0.00    +0.000 A 
ATOM     11  C   UNL     1       2.082   3.618  21.187  0.00  0.00    +0.000 A 
ATOM     12  N   UNL     1       1.662   2.607  22.039  0.00  0.00    +0.000 N 
ATOM     13  N   UNL     1       1.368   4.767  21.183  0.00  0.00    +0.000 NA
ATOM     14  C   UNL     1       1.776   5.768  20.381  0.00  0.00    +0.000 A 
ATOM     15  N   UNL     1       2.834   5.792  19.550  0.00  0.00    +0.000 NA
ATOM     16  C   UNL     1       3.497   4.623  19.565  0.00  0.00    +0.000 A 
ATOM     17  H   UNL     1       1.993   1.684  21.773  0.00  0.00    +0.000 HD
ATOM     18  H   UNL     1       0.696   2.709  22.312  0.00  0.00    +0.000 HD
ENDBRANCH   6   7
BRANCH   3  19
ATOM     19  O   UNL     1       7.689   6.798  16.491  0.00  0.00    +0.000 OA
ATOM     20  H   UNL     1       8.548   6.922  16.928  0.00  0.00    +0.000 HD
ENDBRANCH   3  19
BRANCH   4  21
ATOM     21  C   UNL     1       6.359   4.103  14.599  0.00  0.00    +0.000 C 
BRANCH  21  22
ATOM     22  O   UNL     1       5.348   4.131  13.592  0.00  0.00    +0.000 OA
BRANCH  22  23
ATOM     23  P   UNL     1       5.603   2.936  12.368  0.00  0.00    +0.000 P 
ATOM     24  O   UNL     1       4.470   3.490  11.510  0.00  0.00    +0.000 OA
BRANCH  23  25
ATOM     25  O   UNL     1       6.935   3.728  11.862  0.00  0.00    +0.000 OA
ATOM     26  H   UNL     1       7.189   4.349  12.569  0.00  0.00    +0.000 HD
ENDBRANCH  23  25
BRANCH  23  27
ATOM     27  O   UNL     1       5.858   1.742  11.143  0.00  0.00    +0.000 OA
ATOM     28  H   UNL     1       5.135   1.097  11.278  0.00  0.00    +0.000 HD
ENDBRANCH  23  27
ENDBRANCH  22  23
ENDBRANCH  21  22
ENDBRANCH   4  21
TORSDOF 7
ENDMDL
MODEL 9
REMARK VINA RESULT:      -7.1      3.674      5.856
REMARK  Name = 
REMARK  8 active torsions:
REMARK  status: ('A' for Active; 'I' for Inactive)
REMARK    1  A    between atoms: C_1  and  C_2
REMARK    2  A    between atoms: C_3  and  O_4
REMARK    3  A    between atoms: C_5  and  C_6
REMARK    4  A    between atoms: C_6  and  O_7
REMARK    5  A    between atoms: O_7  and  P_8
REMARK    6  A    between atoms: P_8  and  O_10
REMARK    7  A    between atoms: P_8  and  O_11
REMARK    8  A    between atoms: C_13  and  N_14
REMARK                            x       y       z     vdW  Elec       q    Type
REMARK                         _______ _______ _______ _____ _____    ______ ____
ROOT
ATOM      1  C   UNL     1       2.598   8.259  18.152  0.00  0.00    +0.000 C 
ATOM      2  C   UNL     1       2.831   6.792  18.491  0.00  0.00    +0.000 C 
ATOM      3  C   UNL     1       2.054   6.228  19.673  0.00  0.00    +0.000 C 
ATOM      4  C   UNL     1       2.993   5.182  20.300  0.00  0.00    +0.000 C 
ATOM      5  O   UNL     1       4.224   5.221  19.547  0.00  0.00    +0.000 OA
ATOM      6  C   UNL     1       4.278   6.481  18.859  0.00  0.00    +0.000 C 
ENDROOT
BRANCH   6   7
ATOM      7  N   UNL     1       5.261   6.384  17.801  0.00  0.00    +0.000 N 
ATOM      8  C   UNL     1       6.270   7.293  17.596  0.00  0.00    +0.000 A 
ATOM      9  N   UNL     1       7.037   6.970  16.574  0.00  0.00    +0.000 NA
ATOM     10  C   UNL     1       6.508   5.785  16.103  0.00  0.00    +0.000 A 
ATOM     11  C   UNL     1       6.881   4.932  15.051  0.00  0.00    +0.000 A 
ATOM     12  N   UNL     1       7.992   5.137  14.246  0.00  0.00    +0.000 N 
ATOM     13  N   UNL     1       6.110   3.853  14.788  0.00  0.00    +0.000 NA
ATOM     14  C   UNL     1       5.042   3.625  15.575  0.00  0.00    +0.000 A 
ATOM     15  N   UNL     1       4.615   4.345  16.629  0.00  0.00    +0.000 NA
ATOM     16  C   UNL     1       5.392   5.420  16.838  0.00  0.00    +0.000 A 
ATOM     17  H   UNL     1       8.329   6.095  14.250  0.00  0.00    +0.000 HD
ATOM     18  H   UNL     1       7.920   4.658  13.361  0.00  0.00    +0.000 HD
ENDBRANCH   6   7
BRANCH   3  19
ATOM     19  O   UNL     1       1.684   7.232  20.612  0.00  0.00    +0.000 OA
ATOM     20  H   UNL     1       0.980   6.897  21.192  0.00  0.00    +0.000 HD
ENDBRANCH   3  19
BRANCH   4  21
ATOM     21  C   UNL     1       2.397   3.771  20.268  0.00  0.00    +0.000 C 
BRANCH  21  22
ATOM     22  O   UNL     1       3.347   2.808  20.727  0.00  0.00    +0.000 OA
BRANCH  22  23
ATOM     23  P   UNL     1       3.838   1.719  19.476  0.00  0.00    +0.000 P 
ATOM     24  O   UNL     1       2.744   2.215  18.536  0.00  0.00    +0.000 OA
BRANCH  23  25
ATOM     25  O   UNL     1       5.127   2.662  19.150  0.00  0.00    +0.000 OA
ATOM     26  H   UNL     1       4.787   3.540  18.899  0.00  0.00    +0.000 HD
ENDBRANCH  23  25
BRANCH  23  27
ATOM     27  O   UNL     1       4.328   0.631  18.224  0.00  0.00    +0.000 OA
ATOM     28  H   UNL     1       3.507   0.160  17.976  0.00  0.00    +0.000 HD
ENDBRANCH  23  27
ENDBRANCH  22  23
ENDBRANCH  21  22
ENDBRANCH   4  21
TORSDOF 7
ENDMDL
