MODEL 1
REMARK VINA RESULT:      -7.4      0.000      0.000
REMARK  Name = 
REMARK  18 active torsions:
REMARK  status: ('A' for Active; 'I' for Inactive)
REMARK    1  A    between atoms: C_1  and  C_2
REMARK    2  A    between atoms: C_2  and  C_3
REMARK    3  A    between atoms: C_3  and  C_4
REMARK    4  A    between atoms: C_4  and  C_5
REMARK    5  A    between atoms: C_5  and  C_6
REMARK    6  A    between atoms: C_6  and  C_7
REMARK    7  A    between atoms: C_7  and  N_8
REMARK    8  A    between atoms: C_7  and  C_9
REMARK    9  A    between atoms: N_11  and  C_12
REMARK   10  A    between atoms: N_11  and  O_19
REMARK   11  A    between atoms: C_12  and  C_13
REMARK   12  A    between atoms: C_13  and  C_14
REMARK   13  A    between atoms: C_14  and  N_15
REMARK   14  A    between atoms: N_15  and  C_16
REMARK   15  A    between atoms: N_15  and  C_17
REMARK   16  A    between atoms: N_15  and  C_18
REMARK   17  A    between atoms: O_19  and  C_20
REMARK   18  A    between atoms: C_20  and  C_21
REMARK                            x       y       z     vdW  Elec       q    Type
REMARK                         _______ _______ _______ _____ _____    ______ ____
ROOT
ATOM      1  C   UNL     1       5.364   5.796  15.839  0.00  0.00    +0.000 C 
ATOM      2  O   UNL     1       5.127   6.904  15.328  0.00  0.00    +0.000 OA
ATOM      3  N   UNL     1       5.063   5.498  17.149  0.00  0.00    +0.000 N 
ENDROOT
BRANCH   1   4
ATOM      4  C   UNL     1       6.133   4.767  15.004  0.00  0.00    +0.000 C 
BRANCH   4   5
ATOM      5  N   UNL     1       7.449   5.385  14.713  0.00  0.00    +0.000 NA
ATOM      6  H   UNL     1       7.403   5.664  13.720  0.00  0.00    +0.000 HD
ATOM      7  H   UNL     1       8.180   4.677  14.714  0.00  0.00    +0.000 HD
ENDBRANCH   4   5
BRANCH   4   8
ATOM      8  C   UNL     1       5.368   4.336  13.739  0.00  0.00    +0.000 C 
BRANCH   8   9
ATOM      9  C   UNL     1       6.242   3.416  12.870  0.00  0.00    +0.000 C 
BRANCH   9  10
ATOM     10  C   UNL     1       5.492   2.769  11.714  0.00  0.00    +0.000 C 
BRANCH  10  11
ATOM     11  C   UNL     1       4.056   3.300  11.672  0.00  0.00    +0.000 C 
BRANCH  11  13
ATOM     12  C   UNL     1       2.987   4.317   9.634  0.00  0.00    +0.000 C 
ATOM     13  C   UNL     1       3.397   3.026  10.323  0.00  0.00    +0.000 C 
ENDBRANCH  11  13
ENDBRANCH  10  11
ENDBRANCH   9  10
ENDBRANCH   8   9
ENDBRANCH   4   8
ENDBRANCH   1   4
BRANCH   3  14
ATOM     14  C   UNL     1       5.280   4.306  17.973  0.00  0.00    +0.000 C 
BRANCH  14  15
ATOM     15  C   UNL     1       4.055   3.524  18.478  0.00  0.00    +0.000 C 
BRANCH  15  16
ATOM     16  C   UNL     1       3.468   3.933  19.827  0.00  0.00    +0.000 C 
BRANCH  16  17
ATOM     17  N   UNL     1       2.200   3.073  20.181  0.00  0.00    +0.000 N 
ATOM     18  C   UNL     1       1.981   1.937  19.186  0.00  0.00    +0.000 C 
ATOM     19  C   UNL     1       2.294   2.501  21.598  0.00  0.00    +0.000 C 
ATOM     20  C   UNL     1       0.968   3.982  20.136  0.00  0.00    +0.000 C 
ENDBRANCH  16  17
ENDBRANCH  15  16
ENDBRANCH  14  15
ENDBRANCH   3  14
BRANCH   3  21
ATOM     21  O   UNL     1       4.429   6.538  17.898  0.00  0.00    +0.000 OA
BRANCH  21  22
ATOM     22  C   UNL     1       3.011   6.581  17.620  0.00  0.00    +0.000 C 
BRANCH  22  23
ATOM     23  C   UNL     1       2.351   7.660  18.444  0.00  0.00    +0.000 A 
ATOM     24  C   UNL     1       1.903   8.840  17.835  0.00  0.00    +0.000 A 
ATOM     25  C   UNL     1       1.234   9.816  18.576  0.00  0.00    +0.000 A 
ATOM     26  C   UNL     1       0.996   9.616  19.935  0.00  0.00    +0.000 A 
ATOM     27  C   UNL     1       1.422   8.442  20.551  0.00  0.00    +0.000 A 
ATOM     28  C   UNL     1       2.092   7.465  19.810  0.00  0.00    +0.000 A 
ENDBRANCH  22  23
ENDBRANCH  21  22
ENDBRANCH   3  21
TORSDOF 14
ENDMDL
MODEL 2
REMARK VINA RESULT:      -7.1      0.767      1.168
REMARK  Name = 
REMARK  18 active torsions:
REMARK  status: ('A' for Active; 'I' for Inactive)
REMARK    1  A    between atoms: C_1  and  C_2
REMARK    2  A    between atoms: C_2  and  C_3
REMARK    3  A    between atoms: C_3  and  C_4
REMARK    4  A    between atoms: C_4  and  C_5
REMARK    5  A    between atoms: C_5  and  C_6
REMARK    6  A    between atoms: C_6  and  C_7
REMARK    7  A    between atoms: C_7  and  N_8
REMARK    8  A    between atoms: C_7  and  C_9
REMARK    9  A    between atoms: N_11  and  C_12
REMARK   10  A    between atoms: N_11  and  O_19
REMARK   11  A    between atoms: C_12  and  C_13
REMARK   12  A    between atoms: C_13  and  C_14
REMARK   13  A    between atoms: C_14  and  N_15
REMARK   14  A    between atoms: N_15  and  C_16
REMARK   15  A    between atoms: N_15  and  C_17
REMARK   16  A    between atoms: N_15  and  C_18
REMARK   17  A    between atoms: O_19  and  C_20
REMARK   18  A    between atoms: C_20  and  C_21
REMARK                            x       y       z     vdW  Elec       q    Type
REMARK                         _______ _______ _______ _____ _____    ______ ____
ROOT
ATOM      1  C   UNL     1       5.525   5.985  15.931  0.00  0.00    +0.000 C 
ATOM      2  O   UNL     1       5.154   6.731  15.009  0.00  0.00    +0.000 OA
ATOM      3  N   UNL     1       5.139   6.168  17.240  0.00  0.00    +0.000 N 
ENDROOT
BRANCH   1   4
ATOM      4  C   UNL     1       6.548   4.892  15.608  0.00  0.00    +0.000 C 
BRANCH   4   5
ATOM      5  N   UNL     1       7.595   5.550  14.788  0.00  0.00    +0.000 NA
ATOM      6  H   UNL     1       8.448   5.526  15.369  0.00  0.00    +0.000 HD
ATOM      7  H   UNL     1       7.405   6.547  14.707  0.00  0.00    +0.000 HD
ENDBRANCH   4   5
BRANCH   4   8
ATOM      8  C   UNL     1       5.916   3.667  14.922  0.00  0.00    +0.000 C 
BRANCH   8   9
ATOM      9  C   UNL     1       5.676   3.951  13.430  0.00  0.00    +0.000 C 
BRANCH   9  10
ATOM     10  C   UNL     1       6.283   2.908  12.501  0.00  0.00    +0.000 C 
BRANCH  10  11
ATOM     11  C   UNL     1       5.331   2.650  11.329  0.00  0.00    +0.000 C 
BRANCH  11  13
ATOM     12  C   UNL     1       3.267   3.535  10.194  0.00  0.00    +0.000 C 
ATOM     13  C   UNL     1       4.006   3.383  11.514  0.00  0.00    +0.000 C 
ENDBRANCH  11  13
ENDBRANCH  10  11
ENDBRANCH   9  10
ENDBRANCH   8   9
ENDBRANCH   4   8
ENDBRANCH   1   4
BRANCH   3  14
ATOM     14  C   UNL     1       5.469   5.464  18.482  0.00  0.00    +0.000 C 
BRANCH  14  15
ATOM     15  C   UNL     1       5.086   3.981  18.615  0.00  0.00    +0.000 C 
BRANCH  15  16
ATOM     16  C   UNL     1       3.642   3.596  18.296  0.00  0.00    +0.000 C 
BRANCH  16  17
ATOM     17  N   UNL     1       2.911   3.025  19.566  0.00  0.00    +0.000 N 
ATOM     18  C   UNL     1       3.875   2.320  20.515  0.00  0.00    +0.000 C 
ATOM     19  C   UNL     1       2.164   4.128  20.320  0.00  0.00    +0.000 C 
ATOM     20  C   UNL     1       1.869   2.001  19.105  0.00  0.00    +0.000 C 
ENDBRANCH  16  17
ENDBRANCH  15  16
ENDBRANCH  14  15
ENDBRANCH   3  14
BRANCH   3  21
ATOM     21  O   UNL     1       4.254   7.264  17.484  0.00  0.00    +0.000 OA
BRANCH  21  22
ATOM     22  C   UNL     1       3.048   6.816  18.143  0.00  0.00    +0.000 C 
BRANCH  22  23
ATOM     23  C   UNL     1       2.290   7.995  18.702  0.00  0.00    +0.000 A 
ATOM     24  C   UNL     1       2.079   9.136  17.916  0.00  0.00    +0.000 A 
ATOM     25  C   UNL     1       1.324  10.207  18.400  0.00  0.00    +0.000 A 
ATOM     26  C   UNL     1       0.764  10.143  19.674  0.00  0.00    +0.000 A 
ATOM     27  C   UNL     1       0.953   9.009  20.461  0.00  0.00    +0.000 A 
ATOM     28  C   UNL     1       1.707   7.937  19.978  0.00  0.00    +0.000 A 
ENDBRANCH  22  23
ENDBRANCH  21  22
ENDBRANCH   3  21
TORSDOF 14
ENDMDL
MODEL 3
REMARK VINA RESULT:      -7.0      0.845      1.249
REMARK  Name = 
REMARK  18 active torsions:
REMARK  status: ('A' for Active; 'I' for Inactive)
REMARK    1  A    between atoms: C_1  and  C_2
REMARK    2  A    between atoms: C_2  and  C_3
REMARK    3  A    between atoms: C_3  and  C_4
REMARK    4  A    between atoms: C_4  and  C_5
REMARK    5  A    between atoms: C_5  and  C_6
REMARK    6  A    between atoms: C_6  and  C_7
REMARK    7  A    between atoms: C_7  and  N_8
REMARK    8  A    between atoms: C_7  and  C_9
REMARK    9  A    between atoms: N_11  and  C_12
REMARK   10  A    between atoms: N_11  and  O_19
REMARK   11  A    between atoms: C_12  and  C_13
REMARK   12  A    between atoms: C_13  and  C_14
REMARK   13  A    between atoms: C_14  and  N_15
REMARK   14  A    between atoms: N_15  and  C_16
REMARK   15  A    between atoms: N_15  and  C_17
REMARK   16  A    between atoms: N_15  and  C_18
REMARK   17  A    between atoms: O_19  and  C_20
REMARK   18  A    between atoms: C_20  and  C_21
REMARK                            x       y       z     vdW  Elec       q    Type
REMARK                         _______ _______ _______ _____ _____    ______ ____
ROOT
ATOM      1  C   UNL     1       5.054   5.756  16.236  0.00  0.00    +0.000 C 
ATOM      2  O   UNL     1       5.758   6.757  16.026  0.00  0.00    +0.000 OA
ATOM      3  N   UNL     1       4.038   5.738  17.166  0.00  0.00    +0.000 N 
ENDROOT
BRANCH   1   4
ATOM      4  C   UNL     1       5.415   4.455  15.511  0.00  0.00    +0.000 C 
BRANCH   4   5
ATOM      5  N   UNL     1       6.558   3.881  16.260  0.00  0.00    +0.000 NA
ATOM      6  H   UNL     1       6.214   3.757  17.226  0.00  0.00    +0.000 HD
ATOM      7  H   UNL     1       7.293   4.576  16.370  0.00  0.00    +0.000 HD
ENDBRANCH   4   5
BRANCH   4   8
ATOM      8  C   UNL     1       5.712   4.670  14.015  0.00  0.00    +0.000 C 
BRANCH   8   9
ATOM      9  C   UNL     1       6.255   3.377  13.384  0.00  0.00    +0.000 C 
BRANCH   9  10
ATOM     10  C   UNL     1       5.740   3.118  11.974  0.00  0.00    +0.000 C 
BRANCH  10  11
ATOM     11  C   UNL     1       4.322   3.682  11.835  0.00  0.00    +0.000 C 
BRANCH  11  13
ATOM     12  C   UNL     1       3.028   4.084   9.715  0.00  0.00    +0.000 C 
ATOM     13  C   UNL     1       3.576   3.037  10.671  0.00  0.00    +0.000 C 
ENDBRANCH  11  13
ENDBRANCH  10  11
ENDBRANCH   9  10
ENDBRANCH   8   9
ENDBRANCH   4   8
ENDBRANCH   1   4
BRANCH   3  14
ATOM     14  C   UNL     1       3.118   4.689  17.614  0.00  0.00    +0.000 C 
BRANCH  14  15
ATOM     15  C   UNL     1       3.672   3.532  18.463  0.00  0.00    +0.000 C 
BRANCH  15  16
ATOM     16  C   UNL     1       3.430   3.588  19.970  0.00  0.00    +0.000 C 
BRANCH  16  17
ATOM     17  N   UNL     1       2.030   2.979  20.345  0.00  0.00    +0.000 N 
ATOM     18  C   UNL     1       2.048   2.291  21.706  0.00  0.00    +0.000 C 
ATOM     19  C   UNL     1       0.935   4.050  20.327  0.00  0.00    +0.000 C 
ATOM     20  C   UNL     1       1.659   1.931  19.291  0.00  0.00    +0.000 C 
ENDBRANCH  16  17
ENDBRANCH  15  16
ENDBRANCH  14  15
ENDBRANCH   3  14
BRANCH   3  21
ATOM     21  O   UNL     1       3.815   6.960  17.872  0.00  0.00    +0.000 OA
BRANCH  21  22
ATOM     22  C   UNL     1       2.789   6.795  18.877  0.00  0.00    +0.000 C 
BRANCH  22  23
ATOM     23  C   UNL     1       2.059   8.097  19.095  0.00  0.00    +0.000 A 
ATOM     24  C   UNL     1       1.902   9.005  18.039  0.00  0.00    +0.000 A 
ATOM     25  C   UNL     1       1.172  10.183  18.212  0.00  0.00    +0.000 A 
ATOM     26  C   UNL     1       0.583  10.461  19.444  0.00  0.00    +0.000 A 
ATOM     27  C   UNL     1       0.718   9.561  20.498  0.00  0.00    +0.000 A 
ATOM     28  C   UNL     1       1.447   8.382  20.326  0.00  0.00    +0.000 A 
ENDBRANCH  22  23
ENDBRANCH  21  22
ENDBRANCH   3  21
TORSDOF 14
ENDMDL
MODEL 4
REMARK VINA RESULT:      -7.0      0.750      1.207
REMARK  Name = 
REMARK  18 active torsions:
REMARK  status: ('A' for Active; 'I' for Inactive)
REMARK    1  A    between atoms: C_1  and  C_2
REMARK    2  A    between atoms: C_2  and  C_3
REMARK    3  A    between atoms: C_3  and  C_4
REMARK    4  A    between atoms: C_4  and  C_5
REMARK    5  A    between atoms: C_5  and  C_6
REMARK    6  A    between atoms: C_6  and  C_7
REMARK    7  A    between atoms: C_7  and  N_8
REMARK    8  A    between atoms: C_7  and  C_9
REMARK    9  A    between atoms: N_11  and  C_12
REMARK   10  A    between atoms: N_11  and  O_19
REMARK   11  A    between atoms: C_12  and  C_13
REMARK   12  A    between atoms: C_13  and  C_14
REMARK   13  A    between atoms: C_14  and  N_15
REMARK   14  A    between atoms: N_15  and  C_16
REMARK   15  A    between atoms: N_15  and  C_17
REMARK   16  A    between atoms: N_15  and  C_18
REMARK   17  A    between atoms: O_19  and  C_20
REMARK   18  A    between atoms: C_20  and  C_21
REMARK                            x       y       z     vdW  Elec       q    Type
REMARK                         _______ _______ _______ _____ _____    ______ ____
ROOT
ATOM      1  C   UNL     1       5.296   6.017  16.225  0.00  0.00    +0.000 C 
ATOM      2  O   UNL     1       5.183   6.873  15.333  0.00  0.00    +0.000 OA
ATOM      3  N   UNL     1       4.886   6.232  17.522  0.00  0.00    +0.000 N 
ENDROOT
BRANCH   1   4
ATOM      4  C   UNL     1       6.031   4.716  15.889  0.00  0.00    +0.000 C 
BRANCH   4   5
ATOM      5  N   UNL     1       7.454   5.093  15.706  0.00  0.00    +0.000 NA
ATOM      6  H   UNL     1       7.990   4.235  15.913  0.00  0.00    +0.000 HD
ATOM      7  H   UNL     1       7.749   5.726  16.446  0.00  0.00    +0.000 HD
ENDBRANCH   4   5
BRANCH   4   8
ATOM      8  C   UNL     1       5.431   3.990  14.670  0.00  0.00    +0.000 C 
BRANCH   8   9
ATOM      9  C   UNL     1       6.418   4.011  13.492  0.00  0.00    +0.000 C 
BRANCH   9  10
ATOM     10  C   UNL     1       5.974   3.170  12.302  0.00  0.00    +0.000 C 
BRANCH  10  11
ATOM     11  C   UNL     1       4.945   3.951  11.479  0.00  0.00    +0.000 C 
BRANCH  11  13
ATOM     12  C   UNL     1       3.005   3.647   9.905  0.00  0.00    +0.000 C 
ATOM     13  C   UNL     1       3.753   3.077  11.100  0.00  0.00    +0.000 C 
ENDBRANCH  11  13
ENDBRANCH  10  11
ENDBRANCH   9  10
ENDBRANCH   8   9
ENDBRANCH   4   8
ENDBRANCH   1   4
BRANCH   3  14
ATOM     14  C   UNL     1       4.949   5.412  18.735  0.00  0.00    +0.000 C 
BRANCH  14  15
ATOM     15  C   UNL     1       3.906   4.298  18.929  0.00  0.00    +0.000 C 
BRANCH  15  16
ATOM     16  C   UNL     1       3.178   4.244  20.272  0.00  0.00    +0.000 C 
BRANCH  16  17
ATOM     17  N   UNL     1       2.044   3.155  20.261  0.00  0.00    +0.000 N 
ATOM     18  C   UNL     1       2.248   2.124  19.155  0.00  0.00    +0.000 C 
ATOM     19  C   UNL     1       1.944   2.443  21.612  0.00  0.00    +0.000 C 
ATOM     20  C   UNL     1       0.703   3.853  20.013  0.00  0.00    +0.000 C 
ENDBRANCH  16  17
ENDBRANCH  15  16
ENDBRANCH  14  15
ENDBRANCH   3  14
BRANCH   3  21
ATOM     21  O   UNL     1       4.290   7.504  17.787  0.00  0.00    +0.000 OA
BRANCH  21  22
ATOM     22  C   UNL     1       2.895   7.509  17.409  0.00  0.00    +0.000 C 
BRANCH  22  23
ATOM     23  C   UNL     1       2.070   8.198  18.468  0.00  0.00    +0.000 A 
ATOM     24  C   UNL     1       2.019   7.682  19.770  0.00  0.00    +0.000 A 
ATOM     25  C   UNL     1       1.311   8.346  20.774  0.00  0.00    +0.000 A 
ATOM     26  C   UNL     1       0.655   9.541  20.488  0.00  0.00    +0.000 A 
ATOM     27  C   UNL     1       0.709  10.074  19.202  0.00  0.00    +0.000 A 
ATOM     28  C   UNL     1       1.417   9.410  18.197  0.00  0.00    +0.000 A 
ENDBRANCH  22  23
ENDBRANCH  21  22
ENDBRANCH   3  21
TORSDOF 14
ENDMDL
MODEL 5
REMARK VINA RESULT:      -6.9      0.908      1.664
REMARK  Name = 
REMARK  18 active torsions:
REMARK  status: ('A' for Active; 'I' for Inactive)
REMARK    1  A    between atoms: C_1  and  C_2
REMARK    2  A    between atoms: C_2  and  C_3
REMARK    3  A    between atoms: C_3  and  C_4
REMARK    4  A    between atoms: C_4  and  C_5
REMARK    5  A    between atoms: C_5  and  C_6
REMARK    6  A    between atoms: C_6  and  C_7
REMARK    7  A    between atoms: C_7  and  N_8
REMARK    8  A    between atoms: C_7  and  C_9
REMARK    9  A    between atoms: N_11  and  C_12
REMARK   10  A    between atoms: N_11  and  O_19
REMARK   11  A    between atoms: C_12  and  C_13
REMARK   12  A    between atoms: C_13  and  C_14
REMARK   13  A    between atoms: C_14  and  N_15
REMARK   14  A    between atoms: N_15  and  C_16
REMARK   15  A    between atoms: N_15  and  C_17
REMARK   16  A    between atoms: N_15  and  C_18
REMARK   17  A    between atoms: O_19  and  C_20
REMARK   18  A    between atoms: C_20  and  C_21
REMARK                            x       y       z     vdW  Elec       q    Type
REMARK                         _______ _______ _______ _____ _____    ______ ____
ROOT
ATOM      1  C   UNL     1       5.378   6.006  16.164  0.00  0.00    +0.000 C 
ATOM      2  O   UNL     1       5.347   6.901  15.303  0.00  0.00    +0.000 OA
ATOM      3  N   UNL     1       4.909   6.187  17.446  0.00  0.00    +0.000 N 
ENDROOT
BRANCH   1   4
ATOM      4  C   UNL     1       6.077   4.689  15.812  0.00  0.00    +0.000 C 
BRANCH   4   5
ATOM      5  N   UNL     1       7.529   4.954  15.953  0.00  0.00    +0.000 NA
ATOM      6  H   UNL     1       7.640   5.357  16.897  0.00  0.00    +0.000 HD
ATOM      7  H   UNL     1       7.809   5.721  15.346  0.00  0.00    +0.000 HD
ENDBRANCH   4   5
BRANCH   4   8
ATOM      8  C   UNL     1       5.686   4.161  14.419  0.00  0.00    +0.000 C 
BRANCH   8   9
ATOM      9  C   UNL     1       6.923   4.073  13.510  0.00  0.00    +0.000 C 
BRANCH   9  10
ATOM     10  C   UNL     1       6.594   3.798  12.049  0.00  0.00    +0.000 C 
BRANCH  10  11
ATOM     11  C   UNL     1       5.245   3.079  11.954  0.00  0.00    +0.000 C 
BRANCH  11  13
ATOM     12  C   UNL     1       3.191   2.961  10.504  0.00  0.00    +0.000 C 
ATOM     13  C   UNL     1       4.249   3.869  11.110  0.00  0.00    +0.000 C 
ENDBRANCH  11  13
ENDBRANCH  10  11
ENDBRANCH   9  10
ENDBRANCH   8   9
ENDBRANCH   4   8
ENDBRANCH   1   4
BRANCH   3  14
ATOM     14  C   UNL     1       4.876   5.318  18.625  0.00  0.00    +0.000 C 
BRANCH  14  15
ATOM     15  C   UNL     1       4.234   3.926  18.499  0.00  0.00    +0.000 C 
BRANCH  15  16
ATOM     16  C   UNL     1       3.369   3.443  19.663  0.00  0.00    +0.000 C 
BRANCH  16  17
ATOM     17  N   UNL     1       1.841   3.495  19.296  0.00  0.00    +0.000 N 
ATOM     18  C   UNL     1       1.005   4.125  20.406  0.00  0.00    +0.000 C 
ATOM     19  C   UNL     1       1.608   4.253  17.987  0.00  0.00    +0.000 C 
ATOM     20  C   UNL     1       1.344   2.061  19.088  0.00  0.00    +0.000 C 
ENDBRANCH  16  17
ENDBRANCH  15  16
ENDBRANCH  14  15
ENDBRANCH   3  14
BRANCH   3  21
ATOM     21  O   UNL     1       4.352   7.473  17.733  0.00  0.00    +0.000 OA
BRANCH  21  22
ATOM     22  C   UNL     1       2.952   7.519  17.376  0.00  0.00    +0.000 C 
BRANCH  22  23
ATOM     23  C   UNL     1       2.150   8.137  18.494  0.00  0.00    +0.000 A 
ATOM     24  C   UNL     1       2.129   7.541  19.763  0.00  0.00    +0.000 A 
ATOM     25  C   UNL     1       1.443   8.139  20.821  0.00  0.00    +0.000 A 
ATOM     26  C   UNL     1       0.777   9.347  20.625  0.00  0.00    +0.000 A 
ATOM     27  C   UNL     1       0.801   9.959  19.374  0.00  0.00    +0.000 A 
ATOM     28  C   UNL     1       1.488   9.362  18.314  0.00  0.00    +0.000 A 
ENDBRANCH  22  23
ENDBRANCH  21  22
ENDBRANCH   3  21
TORSDOF 14
ENDMDL
MODEL 6
REMARK VINA RESULT:      -6.9      1.064      1.606
REMARK  Name = 
REMARK  18 active torsions:
REMARK  status: ('A' for Active; 'I' for Inactive)
REMARK    1  A    between atoms: C_1  and  C_2
REMARK    2  A    between atoms: C_2  and  C_3
REMARK    3  A    between atoms: C_3  and  C_4
REMARK    4  A    between atoms: C_4  and  C_5
REMARK    5  A    between atoms: C_5  and  C_6
REMARK    6  A    between atoms: C_6  and  C_7
REMARK    7  A    between atoms: C_7  and  N_8
REMARK    8  A    between atoms: C_7  and  C_9
REMARK    9  A    between atoms: N_11  and  C_12
REMARK   10  A    between atoms: N_11  and  O_19
REMARK   11  A    between atoms: C_12  and  C_13
REMARK   12  A    between atoms: C_13  and  C_14
REMARK   13  A    between atoms: C_14  and  N_15
REMARK   14  A    between atoms: N_15  and  C_16
REMARK   15  A    between atoms: N_15  and  C_17
REMARK   16  A    between atoms: N_15  and  C_18
REMARK   17  A    between atoms: O_19  and  C_20
REMARK   18  A    between atoms: C_20  and  C_21
REMARK                            x       y       z     vdW  Elec       q    Type
REMARK                         _______ _______ _______ _____ _____    ______ ____
ROOT
ATOM      1  C   UNL     1       5.973   5.908  16.772  0.00  0.00    +0.000 C 
ATOM      2  O   UNL     1       6.637   6.957  16.821  0.00  0.00    +0.000 OA
ATOM      3  N   UNL     1       4.677   5.823  17.228  0.00  0.00    +0.000 N 
ENDROOT
BRANCH   1   4
ATOM      4  C   UNL     1       6.674   4.633  16.294  0.00  0.00    +0.000 C 
BRANCH   4   5
ATOM      5  N   UNL     1       7.824   4.438  17.209  0.00  0.00    +0.000 NA
ATOM      6  H   UNL     1       8.512   3.891  16.667  0.00  0.00    +0.000 HD
ATOM      7  H   UNL     1       7.573   3.799  17.961  0.00  0.00    +0.000 HD
ENDBRANCH   4   5
BRANCH   4   8
ATOM      8  C   UNL     1       7.080   4.696  14.810  0.00  0.00    +0.000 C 
BRANCH   8   9
ATOM      9  C   UNL     1       6.179   3.780  13.966  0.00  0.00    +0.000 C 
BRANCH   9  10
ATOM     10  C   UNL     1       6.437   3.874  12.468  0.00  0.00    +0.000 C 
BRANCH  10  11
ATOM     11  C   UNL     1       6.437   2.469  11.859  0.00  0.00    +0.000 C 
BRANCH  11  13
ATOM     12  C   UNL     1       4.124   3.304  11.326  0.00  0.00    +0.000 C 
ATOM     13  C   UNL     1       5.099   2.145  11.200  0.00  0.00    +0.000 C 
ENDBRANCH  11  13
ENDBRANCH  10  11
ENDBRANCH   9  10
ENDBRANCH   8   9
ENDBRANCH   4   8
ENDBRANCH   1   4
BRANCH   3  14
ATOM     14  C   UNL     1       3.723   4.713  17.315  0.00  0.00    +0.000 C 
BRANCH  14  15
ATOM     15  C   UNL     1       4.055   3.524  18.233  0.00  0.00    +0.000 C 
BRANCH  15  16
ATOM     16  C   UNL     1       3.775   3.689  19.725  0.00  0.00    +0.000 C 
BRANCH  16  17
ATOM     17  N   UNL     1       2.359   3.121  20.105  0.00  0.00    +0.000 N 
ATOM     18  C   UNL     1       1.293   4.212  20.143  0.00  0.00    +0.000 C 
ATOM     19  C   UNL     1       1.926   2.015  19.139  0.00  0.00    +0.000 C 
ATOM     20  C   UNL     1       2.446   2.498  21.502  0.00  0.00    +0.000 C 
ENDBRANCH  16  17
ENDBRANCH  15  16
ENDBRANCH  14  15
ENDBRANCH   3  14
BRANCH   3  21
ATOM     21  O   UNL     1       4.115   7.031  17.746  0.00  0.00    +0.000 OA
BRANCH  21  22
ATOM     22  C   UNL     1       2.916   6.757  18.506  0.00  0.00    +0.000 C 
BRANCH  22  23
ATOM     23  C   UNL     1       2.205   8.046  18.841  0.00  0.00    +0.000 A 
ATOM     24  C   UNL     1       2.063   9.046  17.870  0.00  0.00    +0.000 A 
ATOM     25  C   UNL     1       1.351  10.215  18.149  0.00  0.00    +0.000 A 
ATOM     26  C   UNL     1       0.765  10.391  19.400  0.00  0.00    +0.000 A 
ATOM     27  C   UNL     1       0.885   9.398  20.370  0.00  0.00    +0.000 A 
ATOM     28  C   UNL     1       1.597   8.228  20.092  0.00  0.00    +0.000 A 
ENDBRANCH  22  23
ENDBRANCH  21  22
ENDBRANCH   3  21
TORSDOF 14
ENDMDL
MODEL 7
REMARK VINA RESULT:      -6.9      1.059      1.735
REMARK  Name = 
REMARK  18 active torsions:
REMARK  status: ('A' for Active; 'I' for Inactive)
REMARK    1  A    between atoms: C_1  and  C_2
REMARK    2  A    between atoms: C_2  and  C_3
REMARK    3  A    between atoms: C_3  and  C_4
REMARK    4  A    between atoms: C_4  and  C_5
REMARK    5  A    between atoms: C_5  and  C_6
REMARK    6  A    between atoms: C_6  and  C_7
REMARK    7  A    between atoms: C_7  and  N_8
REMARK    8  A    between atoms: C_7  and  C_9
REMARK    9  A    between atoms: N_11  and  C_12
REMARK   10  A    between atoms: N_11  and  O_19
REMARK   11  A    between atoms: C_12  and  C_13
REMARK   12  A    between atoms: C_13  and  C_14
REMARK   13  A    between atoms: C_14  and  N_15
REMARK   14  A    between atoms: N_15  and  C_16
REMARK   15  A    between atoms: N_15  and  C_17
REMARK   16  A    between atoms: N_15  and  C_18
REMARK   17  A    between atoms: O_19  and  C_20
REMARK   18  A    between atoms: C_20  and  C_21
REMARK                            x       y       z     vdW  Elec       q    Type
REMARK                         _______ _______ _______ _____ _____    ______ ____
ROOT
ATOM      1  C   UNL     1       5.706   5.784  16.751  0.00  0.00    +0.000 C 
ATOM      2  O   UNL     1       5.498   6.876  16.195  0.00  0.00    +0.000 OA
ATOM      3  N   UNL     1       5.209   5.475  17.998  0.00  0.00    +0.000 N 
ENDROOT
BRANCH   1   4
ATOM      4  C   UNL     1       6.653   4.794  16.066  0.00  0.00    +0.000 C 
BRANCH   4   5
ATOM      5  N   UNL     1       7.603   5.621  15.284  0.00  0.00    +0.000 NA
ATOM      6  H   UNL     1       7.260   6.591  15.379  0.00  0.00    +0.000 HD
ATOM      7  H   UNL     1       7.492   5.440  14.288  0.00  0.00    +0.000 HD
ENDBRANCH   4   5
BRANCH   4   8
ATOM      8  C   UNL     1       5.909   3.749  15.214  0.00  0.00    +0.000 C 
BRANCH   8   9
ATOM      9  C   UNL     1       5.606   4.312  13.816  0.00  0.00    +0.000 C 
BRANCH   9  10
ATOM     10  C   UNL     1       6.321   3.578  12.690  0.00  0.00    +0.000 C 
BRANCH  10  11
ATOM     11  C   UNL     1       5.302   2.781  11.870  0.00  0.00    +0.000 C 
BRANCH  11  13
ATOM     12  C   UNL     1       7.415   1.724  11.004  0.00  0.00    +0.000 C 
ATOM     13  C   UNL     1       5.930   1.530  11.261  0.00  0.00    +0.000 C 
ENDBRANCH  11  13
ENDBRANCH  10  11
ENDBRANCH   9  10
ENDBRANCH   8   9
ENDBRANCH   4   8
ENDBRANCH   1   4
BRANCH   3  14
ATOM     14  C   UNL     1       5.348   4.299  18.860  0.00  0.00    +0.000 C 
BRANCH  14  15
ATOM     15  C   UNL     1       4.126   3.390  19.075  0.00  0.00    +0.000 C 
BRANCH  15  16
ATOM     16  C   UNL     1       3.490   3.383  20.464  0.00  0.00    +0.000 C 
BRANCH  16  17
ATOM     17  N   UNL     1       1.971   2.986  20.393  0.00  0.00    +0.000 N 
ATOM     18  C   UNL     1       1.687   1.998  19.265  0.00  0.00    +0.000 C 
ATOM     19  C   UNL     1       1.487   2.398  21.721  0.00  0.00    +0.000 C 
ATOM     20  C   UNL     1       1.150   4.252  20.128  0.00  0.00    +0.000 C 
ENDBRANCH  16  17
ENDBRANCH  15  16
ENDBRANCH  14  15
ENDBRANCH   3  14
BRANCH   3  21
ATOM     21  O   UNL     1       4.407   6.482  18.619  0.00  0.00    +0.000 OA
BRANCH  21  22
ATOM     22  C   UNL     1       3.061   6.466  18.094  0.00  0.00    +0.000 C 
BRANCH  22  23
ATOM     23  C   UNL     1       2.281   7.645  18.622  0.00  0.00    +0.000 A 
ATOM     24  C   UNL     1       1.915   7.701  19.974  0.00  0.00    +0.000 A 
ATOM     25  C   UNL     1       1.250   8.816  20.488  0.00  0.00    +0.000 A 
ATOM     26  C   UNL     1       0.952   9.893  19.656  0.00  0.00    +0.000 A 
ATOM     27  C   UNL     1       1.322   9.858  18.313  0.00  0.00    +0.000 A 
ATOM     28  C   UNL     1       1.988   8.743  17.798  0.00  0.00    +0.000 A 
ENDBRANCH  22  23
ENDBRANCH  21  22
ENDBRANCH   3  21
TORSDOF 14
ENDMDL
MODEL 8
REMARK VINA RESULT:      -6.8      3.557      7.189
REMARK  Name = 
REMARK  18 active torsions:
REMARK  status: ('A' for Active; 'I' for Inactive)
REMARK    1  A    between atoms: C_1  and  C_2
REMARK    2  A    between atoms: C_2  and  C_3
REMARK    3  A    between atoms: C_3  and  C_4
REMARK    4  A    between atoms: C_4  and  C_5
REMARK    5  A    between atoms: C_5  and  C_6
REMARK    6  A    between atoms: C_6  and  C_7
REMARK    7  A    between atoms: C_7  and  N_8
REMARK    8  A    between atoms: C_7  and  C_9
REMARK    9  A    between atoms: N_11  and  C_12
REMARK   10  A    between atoms: N_11  and  O_19
REMARK   11  A    between atoms: C_12  and  C_13
REMARK   12  A    between atoms: C_13  and  C_14
REMARK   13  A    between atoms: C_14  and  N_15
REMARK   14  A    between atoms: N_15  and  C_16
REMARK   15  A    between atoms: N_15  and  C_17
REMARK   16  A    between atoms: N_15  and  C_18
REMARK   17  A    between atoms: O_19  and  C_20
REMARK   18  A    between atoms: C_20  and  C_21
REMARK                            x       y       z     vdW  Elec       q    Type
REMARK                         _______ _______ _______ _____ _____    ______ ____
ROOT
ATOM      1  C   UNL     1       7.319   4.782  17.643  0.00  0.00    +0.000 C 
ATOM      2  O   UNL     1       8.140   4.130  16.977  0.00  0.00    +0.000 OA
ATOM      3  N   UNL     1       5.958   4.682  17.457  0.00  0.00    +0.000 N 
ENDROOT
BRANCH   1   4
ATOM      4  C   UNL     1       7.855   5.827  18.627  0.00  0.00    +0.000 C 
BRANCH   4   5
ATOM      5  N   UNL     1       7.226   5.510  19.933  0.00  0.00    +0.000 NA
ATOM      6  H   UNL     1       6.226   5.736  19.813  0.00  0.00    +0.000 HD
ATOM      7  H   UNL     1       7.526   6.178  20.640  0.00  0.00    +0.000 HD
ENDBRANCH   4   5
BRANCH   4   8
ATOM      8  C   UNL     1       7.598   7.272  18.161  0.00  0.00    +0.000 C 
BRANCH   8   9
ATOM      9  C   UNL     1       8.646   8.224  18.760  0.00  0.00    +0.000 C 
BRANCH   9  10
ATOM     10  C   UNL     1       8.546   9.652  18.240  0.00  0.00    +0.000 C 
BRANCH  10  11
ATOM     11  C   UNL     1       9.241  10.603  19.219  0.00  0.00    +0.000 C 
BRANCH  11  13
ATOM     12  C   UNL     1      10.903  11.667  17.658  0.00  0.00    +0.000 C 
ATOM     13  C   UNL     1       9.679  11.893  18.531  0.00  0.00    +0.000 C 
ENDBRANCH  11  13
ENDBRANCH  10  11
ENDBRANCH   9  10
ENDBRANCH   8   9
ENDBRANCH   4   8
ENDBRANCH   1   4
BRANCH   3  14
ATOM     14  C   UNL     1       4.816   5.361  18.074  0.00  0.00    +0.000 C 
BRANCH  14  15
ATOM     15  C   UNL     1       3.490   4.596  18.219  0.00  0.00    +0.000 C 
BRANCH  15  16
ATOM     16  C   UNL     1       2.855   4.547  19.607  0.00  0.00    +0.000 C 
BRANCH  16  17
ATOM     17  N   UNL     1       2.758   3.070  20.137  0.00  0.00    +0.000 N 
ATOM     18  C   UNL     1       1.690   2.265  19.403  0.00  0.00    +0.000 C 
ATOM     19  C   UNL     1       4.105   2.351  20.030  0.00  0.00    +0.000 C 
ATOM     20  C   UNL     1       2.379   3.112  21.621  0.00  0.00    +0.000 C 
ENDBRANCH  16  17
ENDBRANCH  15  16
ENDBRANCH  14  15
ENDBRANCH   3  14
BRANCH   3  21
ATOM     21  O   UNL     1       5.531   3.753  16.457  0.00  0.00    +0.000 OA
BRANCH  21  22
ATOM     22  C   UNL     1       4.951   4.444  15.327  0.00  0.00    +0.000 C 
BRANCH  22  23
ATOM     23  C   UNL     1       5.846   4.309  14.119  0.00  0.00    +0.000 A 
ATOM     24  C   UNL     1       5.492   3.449  13.071  0.00  0.00    +0.000 A 
ATOM     25  C   UNL     1       6.279   3.364  11.920  0.00  0.00    +0.000 A 
ATOM     26  C   UNL     1       7.424   4.149  11.802  0.00  0.00    +0.000 A 
ATOM     27  C   UNL     1       7.781   5.019  12.829  0.00  0.00    +0.000 A 
ATOM     28  C   UNL     1       6.994   5.105  13.980  0.00  0.00    +0.000 A 
ENDBRANCH  22  23
ENDBRANCH  21  22
ENDBRANCH   3  21
TORSDOF 14
ENDMDL
MODEL 9
REMARK VINA RESULT:      -6.8      1.413      2.123
REMARK  Name = 
REMARK  18 active torsions:
REMARK  status: ('A' for Active; 'I' for Inactive)
REMARK    1  A    between atoms: C_1  and  C_2
REMARK    2  A    between atoms: C_2  and  C_3
REMARK    3  A    between atoms: C_3  and  C_4
REMARK    4  A    between atoms: C_4  and  C_5
REMARK    5  A    between atoms: C_5  and  C_6
REMARK    6  A    between atoms: C_6  and  C_7
REMARK    7  A    between atoms: C_7  and  N_8
REMARK    8  A    between atoms: C_7  and  C_9
REMARK    9  A    between atoms: N_11  and  C_12
REMARK   10  A    between atoms: N_11  and  O_19
REMARK   11  A    between atoms: C_12  and  C_13
REMARK   12  A    between atoms: C_13  and  C_14
REMARK   13  A    between atoms: C_14  and  N_15
REMARK   14  A    between atoms: N_15  and  C_16
REMARK   15  A    between atoms: N_15  and  C_17
REMARK   16  A    between atoms: N_15  and  C_18
REMARK   17  A    between atoms: O_19  and  C_20
REMARK   18  A    between atoms: C_20  and  C_21
REMARK                            x       y       z     vdW  Elec       q    Type
REMARK                         _______ _______ _______ _____ _____    ______ ____
ROOT
ATOM      1  C   UNL     1       6.199   5.864  17.006  0.00  0.00    +0.000 C 
ATOM      2  O   UNL     1       6.836   6.869  17.361  0.00  0.00    +0.000 OA
ATOM      3  N   UNL     1       4.902   5.624  17.402  0.00  0.00    +0.000 N 
ENDROOT
BRANCH   1   4
ATOM      4  C   UNL     1       6.933   4.794  16.192  0.00  0.00    +0.000 C 
BRANCH   4   5
ATOM      5  N   UNL     1       7.876   4.146  17.136  0.00  0.00    +0.000 NA
ATOM      6  H   UNL     1       7.287   3.792  17.907  0.00  0.00    +0.000 HD
ATOM      7  H   UNL     1       8.451   4.849  17.598  0.00  0.00    +0.000 HD
ENDBRANCH   4   5
BRANCH   4   8
ATOM      8  C   UNL     1       7.622   5.366  14.939  0.00  0.00    +0.000 C 
BRANCH   8   9
ATOM      9  C   UNL     1       7.070   4.697  13.670  0.00  0.00    +0.000 C 
BRANCH   9  10
ATOM     10  C   UNL     1       5.720   4.021  13.868  0.00  0.00    +0.000 C 
BRANCH  10  11
ATOM     11  C   UNL     1       5.298   3.328  12.569  0.00  0.00    +0.000 C 
BRANCH  11  13
ATOM     12  C   UNL     1       6.255   1.440  11.209  0.00  0.00    +0.000 C 
ATOM     13  C   UNL     1       6.508   2.822  11.788  0.00  0.00    +0.000 C 
ENDBRANCH  11  13
ENDBRANCH  10  11
ENDBRANCH   9  10
ENDBRANCH   8   9
ENDBRANCH   4   8
ENDBRANCH   1   4
BRANCH   3  14
ATOM     14  C   UNL     1       3.976   4.515  17.157  0.00  0.00    +0.000 C 
BRANCH  14  15
ATOM     15  C   UNL     1       3.793   3.449  18.250  0.00  0.00    +0.000 C 
BRANCH  15  16
ATOM     16  C   UNL     1       3.428   3.934  19.651  0.00  0.00    +0.000 C 
BRANCH  16  17
ATOM     17  N   UNL     1       2.150   3.196  20.194  0.00  0.00    +0.000 N 
ATOM     18  C   UNL     1       0.935   4.116  20.251  0.00  0.00    +0.000 C 
ATOM     19  C   UNL     1       1.819   1.963  19.349  0.00  0.00    +0.000 C 
ATOM     20  C   UNL     1       2.439   2.709  21.618  0.00  0.00    +0.000 C 
ENDBRANCH  16  17
ENDBRANCH  15  16
ENDBRANCH  14  15
ENDBRANCH   3  14
BRANCH   3  21
ATOM     21  O   UNL     1       4.308   6.621  18.237  0.00  0.00    +0.000 OA
BRANCH  21  22
ATOM     22  C   UNL     1       3.310   7.373  17.510  0.00  0.00    +0.000 C 
BRANCH  22  23
ATOM     23  C   UNL     1       2.366   8.051  18.473  0.00  0.00    +0.000 A 
ATOM     24  C   UNL     1       2.162   7.521  19.754  0.00  0.00    +0.000 A 
ATOM     25  C   UNL     1       1.340   8.176  20.675  0.00  0.00    +0.000 A 
ATOM     26  C   UNL     1       0.722   9.374  20.326  0.00  0.00    +0.000 A 
ATOM     27  C   UNL     1       0.927   9.921  19.061  0.00  0.00    +0.000 A 
ATOM     28  C   UNL     1       1.749   9.267  18.140  0.00  0.00    +0.000 A 
ENDBRANCH  22  23
ENDBRANCH  21  22
ENDBRANCH   3  21
TORSDOF 14
ENDMDL
