MODEL 1
REMARK VINA RESULT:      -7.3      0.000      0.000
REMARK  Name = 
REMARK  2 active torsions:
REMARK  status: ('A' for Active; 'I' for Inactive)
REMARK    1  A    between atoms: C_8  and  N_9
REMARK    2  A    between atoms: N_9  and  C_10
REMARK                            x       y       z     vdW  Elec       q    Type
REMARK                         _______ _______ _______ _____ _____    ______ ____
ROOT
ATOM      1  C   UNL     1       1.818   8.130  19.824  0.00  0.00    +0.000 A 
ATOM      2  N   UNL     1       1.940   8.303  18.490  0.00  0.00    +0.000 NA
ATOM      3  C   UNL     1       1.325   9.338  17.907  0.00  0.00    +0.000 A 
ATOM      4  N   UNL     1       0.546  10.244  18.493  0.00  0.00    +0.000 NA
ATOM      5  C   UNL     1       0.373  10.060  19.830  0.00  0.00    +0.000 A 
ATOM      6  C   UNL     1       0.982   9.015  20.516  0.00  0.00    +0.000 A 
ATOM      7  S   UNL     1       0.569   9.032  22.184  0.00  0.00    +0.000 S 
ATOM      8  C   UNL     1      -0.398  10.435  22.019  0.00  0.00    +0.000 A 
ATOM      9  C   UNL     1      -1.114  11.115  23.014  0.00  0.00    +0.000 A 
ATOM     10  C   UNL     1      -1.817  12.251  22.632  0.00  0.00    +0.000 A 
ATOM     11  C   UNL     1      -1.781  12.643  21.308  0.00  0.00    +0.000 A 
ATOM     12  N   UNL     1      -1.114  12.006  20.329  0.00  0.00    +0.000 NA
ATOM     13  C   UNL     1      -0.416  10.893  20.701  0.00  0.00    +0.000 A 
ENDROOT
BRANCH   1  14
ATOM     14  N   UNL     1       2.483   7.072  20.467  0.00  0.00    +0.000 N 
ATOM     15  H   UNL     1       3.255   7.391  21.044  0.00  0.00    +0.000 HD
BRANCH  14  23
ATOM     16  F   UNL     1       0.567   4.939  20.644  0.00  0.00    +0.000 F 
ATOM     17  C   UNL     1       1.765   4.730  20.074  0.00  0.00    +0.000 A 
ATOM     18  C   UNL     1       2.022   3.461  19.563  0.00  0.00    +0.000 A 
ATOM     19  C   UNL     1       3.216   3.229  18.892  0.00  0.00    +0.000 A 
ATOM     20 BR   UNL     1       3.587   1.505  18.213  0.00  0.00    +0.000 Br
ATOM     21  C   UNL     1       4.138   4.258  18.713  0.00  0.00    +0.000 A 
ATOM     22  C   UNL     1       3.872   5.529  19.231  0.00  0.00    +0.000 A 
ATOM     23  C   UNL     1       2.691   5.779  19.947  0.00  0.00    +0.000 A 
ENDBRANCH  14  23
ENDBRANCH   1  14
TORSDOF 2
ENDMDL
MODEL 2
REMARK VINA RESULT:      -7.3      3.955      7.914
REMARK  Name = 
REMARK  2 active torsions:
REMARK  status: ('A' for Active; 'I' for Inactive)
REMARK    1  A    between atoms: C_8  and  N_9
REMARK    2  A    between atoms: N_9  and  C_10
REMARK                            x       y       z     vdW  Elec       q    Type
REMARK                         _______ _______ _______ _____ _____    ______ ____
ROOT
ATOM      1  C   UNL     1       2.680   5.681  19.049  0.00  0.00    +0.000 A 
ATOM      2  N   UNL     1       1.730   4.721  19.057  0.00  0.00    +0.000 NA
ATOM      3  C   UNL     1       1.846   3.681  18.224  0.00  0.00    +0.000 A 
ATOM      4  N   UNL     1       2.805   3.475  17.324  0.00  0.00    +0.000 NA
ATOM      5  C   UNL     1       3.747   4.455  17.268  0.00  0.00    +0.000 A 
ATOM      6  C   UNL     1       3.707   5.567  18.104  0.00  0.00    +0.000 A 
ATOM      7  S   UNL     1       5.017   6.634  17.794  0.00  0.00    +0.000 S 
ATOM      8  C   UNL     1       5.663   5.624  16.572  0.00  0.00    +0.000 A 
ATOM      9  C   UNL     1       6.816   5.829  15.800  0.00  0.00    +0.000 A 
ATOM     10  C   UNL     1       7.147   4.848  14.874  0.00  0.00    +0.000 A 
ATOM     11  C   UNL     1       6.330   3.739  14.757  0.00  0.00    +0.000 A 
ATOM     12  N   UNL     1       5.213   3.520  15.473  0.00  0.00    +0.000 NA
ATOM     13  C   UNL     1       4.887   4.479  16.389  0.00  0.00    +0.000 A 
ENDROOT
BRANCH   1  14
ATOM     14  N   UNL     1       2.602   6.766  19.940  0.00  0.00    +0.000 N 
ATOM     15  H   UNL     1       2.615   6.474  20.911  0.00  0.00    +0.000 HD
BRANCH  14  23
ATOM     16  F   UNL     1       1.264   8.206  22.035  0.00  0.00    +0.000 F 
ATOM     17  C   UNL     1       1.191   8.633  20.765  0.00  0.00    +0.000 A 
ATOM     18  C   UNL     1       0.467   9.796  20.518  0.00  0.00    +0.000 A 
ATOM     19  C   UNL     1       0.436  10.315  19.229  0.00  0.00    +0.000 A 
ATOM     20 BR   UNL     1      -0.560  11.882  18.876  0.00  0.00    +0.000 Br
ATOM     21  C   UNL     1       1.139   9.693  18.199  0.00  0.00    +0.000 A 
ATOM     22  C   UNL     1       1.862   8.524  18.456  0.00  0.00    +0.000 A 
ATOM     23  C   UNL     1       1.876   7.958  19.740  0.00  0.00    +0.000 A 
ENDBRANCH  14  23
ENDBRANCH   1  14
TORSDOF 2
ENDMDL
MODEL 3
REMARK VINA RESULT:      -7.3      4.017      7.956
REMARK  Name = 
REMARK  2 active torsions:
REMARK  status: ('A' for Active; 'I' for Inactive)
REMARK    1  A    between atoms: C_8  and  N_9
REMARK    2  A    between atoms: N_9  and  C_10
REMARK                            x       y       z     vdW  Elec       q    Type
REMARK                         _______ _______ _______ _____ _____    ______ ____
ROOT
ATOM      1  C   UNL     1       2.717   5.644  19.119  0.00  0.00    +0.000 A 
ATOM      2  N   UNL     1       1.715   4.739  19.065  0.00  0.00    +0.000 NA
ATOM      3  C   UNL     1       1.777   3.750  18.167  0.00  0.00    +0.000 A 
ATOM      4  N   UNL     1       2.727   3.549  17.256  0.00  0.00    +0.000 NA
ATOM      5  C   UNL     1       3.722   4.476  17.265  0.00  0.00    +0.000 A 
ATOM      6  C   UNL     1       3.740   5.532  18.170  0.00  0.00    +0.000 A 
ATOM      7  S   UNL     1       5.109   6.542  17.931  0.00  0.00    +0.000 S 
ATOM      8  C   UNL     1       5.704   5.578  16.647  0.00  0.00    +0.000 A 
ATOM      9  C   UNL     1       6.870   5.767  15.891  0.00  0.00    +0.000 A 
ATOM     10  C   UNL     1       7.150   4.830  14.904  0.00  0.00    +0.000 A 
ATOM     11  C   UNL     1       6.273   3.779  14.715  0.00  0.00    +0.000 A 
ATOM     12  N   UNL     1       5.142   3.578  15.415  0.00  0.00    +0.000 NA
ATOM     13  C   UNL     1       4.866   4.493  16.390  0.00  0.00    +0.000 A 
ENDROOT
BRANCH   1  14
ATOM     14  N   UNL     1       2.695   6.672  20.077  0.00  0.00    +0.000 N 
ATOM     15  H   UNL     1       2.905   6.338  21.012  0.00  0.00    +0.000 HD
BRANCH  14  23
ATOM     16  F   UNL     1       2.317   8.413  17.824  0.00  0.00    +0.000 F 
ATOM     17  C   UNL     1       1.691   8.660  18.986  0.00  0.00    +0.000 A 
ATOM     18  C   UNL     1       0.849   9.767  19.040  0.00  0.00    +0.000 A 
ATOM     19  C   UNL     1       0.119  10.009  20.198  0.00  0.00    +0.000 A 
ATOM     20 BR   UNL     1      -1.011  11.521  20.292  0.00  0.00    +0.000 Br
ATOM     21  C   UNL     1       0.212   9.143  21.285  0.00  0.00    +0.000 A 
ATOM     22  C   UNL     1       1.061   8.034  21.222  0.00  0.00    +0.000 A 
ATOM     23  C   UNL     1       1.838   7.791  20.080  0.00  0.00    +0.000 A 
ENDBRANCH  14  23
ENDBRANCH   1  14
TORSDOF 2
ENDMDL
MODEL 4
REMARK VINA RESULT:      -7.3      4.931      8.620
REMARK  Name = 
REMARK  2 active torsions:
REMARK  status: ('A' for Active; 'I' for Inactive)
REMARK    1  A    between atoms: C_8  and  N_9
REMARK    2  A    between atoms: N_9  and  C_10
REMARK                            x       y       z     vdW  Elec       q    Type
REMARK                         _______ _______ _______ _____ _____    ______ ____
ROOT
ATOM      1  C   UNL     1       5.494   5.289  18.003  0.00  0.00    +0.000 A 
ATOM      2  N   UNL     1       6.367   6.122  18.611  0.00  0.00    +0.000 NA
ATOM      3  C   UNL     1       7.389   6.621  17.907  0.00  0.00    +0.000 A 
ATOM      4  N   UNL     1       7.690   6.368  16.635  0.00  0.00    +0.000 NA
ATOM      5  C   UNL     1       6.848   5.495  16.019  0.00  0.00    +0.000 A 
ATOM      6  C   UNL     1       5.756   4.935  16.674  0.00  0.00    +0.000 A 
ATOM      7  S   UNL     1       4.889   3.864  15.648  0.00  0.00    +0.000 S 
ATOM      8  C   UNL     1       5.933   4.151  14.322  0.00  0.00    +0.000 A 
ATOM      9  C   UNL     1       5.864   3.605  13.032  0.00  0.00    +0.000 A 
ATOM     10  C   UNL     1       6.827   4.010  12.115  0.00  0.00    +0.000 A 
ATOM     11  C   UNL     1       7.793   4.912  12.517  0.00  0.00    +0.000 A 
ATOM     12  N   UNL     1       7.892   5.443  13.749  0.00  0.00    +0.000 NA
ATOM     13  C   UNL     1       6.945   5.053  14.652  0.00  0.00    +0.000 A 
ENDROOT
BRANCH   1  14
ATOM     14  N   UNL     1       4.390   4.778  18.709  0.00  0.00    +0.000 N 
ATOM     15  H   UNL     1       4.033   3.920  18.304  0.00  0.00    +0.000 HD
BRANCH  14  23
ATOM     16  F   UNL     1       2.830   3.827  20.925  0.00  0.00    +0.000 F 
ATOM     17  C   UNL     1       2.603   5.046  20.409  0.00  0.00    +0.000 A 
ATOM     18  C   UNL     1       1.610   5.821  21.000  0.00  0.00    +0.000 A 
ATOM     19  C   UNL     1       1.402   7.118  20.548  0.00  0.00    +0.000 A 
ATOM     20 BR   UNL     1       0.042   8.173  21.328  0.00  0.00    +0.000 Br
ATOM     21  C   UNL     1       2.192   7.647  19.529  0.00  0.00    +0.000 A 
ATOM     22  C   UNL     1       3.187   6.861  18.940  0.00  0.00    +0.000 A 
ATOM     23  C   UNL     1       3.390   5.535  19.351  0.00  0.00    +0.000 A 
ENDBRANCH  14  23
ENDBRANCH   1  14
TORSDOF 2
ENDMDL
MODEL 5
REMARK VINA RESULT:      -7.2      5.050      8.742
REMARK  Name = 
REMARK  2 active torsions:
REMARK  status: ('A' for Active; 'I' for Inactive)
REMARK    1  A    between atoms: C_8  and  N_9
REMARK    2  A    between atoms: N_9  and  C_10
REMARK                            x       y       z     vdW  Elec       q    Type
REMARK                         _______ _______ _______ _____ _____    ______ ____
ROOT
ATOM      1  C   UNL     1       5.514   5.376  17.943  0.00  0.00    +0.000 A 
ATOM      2  N   UNL     1       6.415   6.181  18.547  0.00  0.00    +0.000 NA
ATOM      3  C   UNL     1       7.460   6.633  17.846  0.00  0.00    +0.000 A 
ATOM      4  N   UNL     1       7.759   6.356  16.578  0.00  0.00    +0.000 NA
ATOM      5  C   UNL     1       6.887   5.510  15.965  0.00  0.00    +0.000 A 
ATOM      6  C   UNL     1       5.771   4.999  16.619  0.00  0.00    +0.000 A 
ATOM      7  S   UNL     1       4.869   3.953  15.598  0.00  0.00    +0.000 S 
ATOM      8  C   UNL     1       5.930   4.185  14.276  0.00  0.00    +0.000 A 
ATOM      9  C   UNL     1       5.849   3.629  12.991  0.00  0.00    +0.000 A 
ATOM     10  C   UNL     1       6.831   3.987  12.076  0.00  0.00    +0.000 A 
ATOM     11  C   UNL     1       7.829   4.856  12.475  0.00  0.00    +0.000 A 
ATOM     12  N   UNL     1       7.942   5.395  13.702  0.00  0.00    +0.000 NA
ATOM     13  C   UNL     1       6.975   5.051  14.603  0.00  0.00    +0.000 A 
ENDROOT
BRANCH   1  14
ATOM     14  N   UNL     1       4.388   4.916  18.646  0.00  0.00    +0.000 N 
ATOM     15  H   UNL     1       4.021   4.048  18.269  0.00  0.00    +0.000 HD
BRANCH  14  23
ATOM     16  F   UNL     1       3.588   7.488  17.648  0.00  0.00    +0.000 F 
ATOM     17  C   UNL     1       3.034   6.991  18.766  0.00  0.00    +0.000 A 
ATOM     18  C   UNL     1       2.057   7.757  19.395  0.00  0.00    +0.000 A 
ATOM     19  C   UNL     1       1.401   7.242  20.506  0.00  0.00    +0.000 A 
ATOM     20 BR   UNL     1       0.088   8.280  21.382  0.00  0.00    +0.000 Br
ATOM     21  C   UNL     1       1.702   5.964  20.975  0.00  0.00    +0.000 A 
ATOM     22  C   UNL     1       2.686   5.202  20.337  0.00  0.00    +0.000 A 
ATOM     23  C   UNL     1       3.390   5.716  19.238  0.00  0.00    +0.000 A 
ENDBRANCH  14  23
ENDBRANCH   1  14
TORSDOF 2
ENDMDL
MODEL 6
REMARK VINA RESULT:      -7.2      1.130      1.502
REMARK  Name = 
REMARK  2 active torsions:
REMARK  status: ('A' for Active; 'I' for Inactive)
REMARK    1  A    between atoms: C_8  and  N_9
REMARK    2  A    between atoms: N_9  and  C_10
REMARK                            x       y       z     vdW  Elec       q    Type
REMARK                         _______ _______ _______ _____ _____    ______ ____
ROOT
ATOM      1  C   UNL     1       1.551   8.515  19.853  0.00  0.00    +0.000 A 
ATOM      2  N   UNL     1       1.660   8.763  18.529  0.00  0.00    +0.000 NA
ATOM      3  C   UNL     1       1.003   9.804  18.005  0.00  0.00    +0.000 A 
ATOM      4  N   UNL     1       0.194  10.648  18.641  0.00  0.00    +0.000 NA
ATOM      5  C   UNL     1       0.036  10.387  19.967  0.00  0.00    +0.000 A 
ATOM      6  C   UNL     1       0.687   9.330  20.595  0.00  0.00    +0.000 A 
ATOM      7  S   UNL     1       0.283   9.243  22.262  0.00  0.00    +0.000 S 
ATOM      8  C   UNL     1      -0.736  10.616  22.176  0.00  0.00    +0.000 A 
ATOM      9  C   UNL     1      -1.471  11.215  23.208  0.00  0.00    +0.000 A 
ATOM     10  C   UNL     1      -2.218  12.342  22.890  0.00  0.00    +0.000 A 
ATOM     11  C   UNL     1      -2.204  12.805  21.588  0.00  0.00    +0.000 A 
ATOM     12  N   UNL     1      -1.519  12.246  20.574  0.00  0.00    +0.000 NA
ATOM     13  C   UNL     1      -0.779  11.142  20.884  0.00  0.00    +0.000 A 
ENDROOT
BRANCH   1  14
ATOM     14  N   UNL     1       2.259   7.450  20.436  0.00  0.00    +0.000 N 
ATOM     15  H   UNL     1       3.086   7.759  20.936  0.00  0.00    +0.000 HD
BRANCH  14  23
ATOM     16  F   UNL     1       4.097   6.759  18.339  0.00  0.00    +0.000 F 
ATOM     17  C   UNL     1       3.272   5.832  18.852  0.00  0.00    +0.000 A 
ATOM     18  C   UNL     1       3.361   4.539  18.343  0.00  0.00    +0.000 A 
ATOM     19  C   UNL     1       2.583   3.534  18.904  0.00  0.00    +0.000 A 
ATOM     20 BR   UNL     1       2.680   1.779  18.209  0.00  0.00    +0.000 Br
ATOM     21  C   UNL     1       1.738   3.809  19.978  0.00  0.00    +0.000 A 
ATOM     22  C   UNL     1       1.654   5.111  20.481  0.00  0.00    +0.000 A 
ATOM     23  C   UNL     1       2.399   6.152  19.906  0.00  0.00    +0.000 A 
ENDBRANCH  14  23
ENDBRANCH   1  14
TORSDOF 2
ENDMDL
MODEL 7
REMARK VINA RESULT:      -6.9      3.769      7.785
REMARK  Name = 
REMARK  2 active torsions:
REMARK  status: ('A' for Active; 'I' for Inactive)
REMARK    1  A    between atoms: C_8  and  N_9
REMARK    2  A    between atoms: N_9  and  C_10
REMARK                            x       y       z     vdW  Elec       q    Type
REMARK                         _______ _______ _______ _____ _____    ______ ____
ROOT
ATOM      1  C   UNL     1       2.438   6.497  19.786  0.00  0.00    +0.000 A 
ATOM      2  N   UNL     1       1.689   5.521  20.344  0.00  0.00    +0.000 NA
ATOM      3  C   UNL     1       1.826   4.264  19.908  0.00  0.00    +0.000 A 
ATOM      4  N   UNL     1       2.619   3.834  18.928  0.00  0.00    +0.000 NA
ATOM      5  C   UNL     1       3.347   4.811  18.323  0.00  0.00    +0.000 A 
ATOM      6  C   UNL     1       3.272   6.142  18.719  0.00  0.00    +0.000 A 
ATOM      7  S   UNL     1       4.293   7.141  17.765  0.00  0.00    +0.000 S 
ATOM      8  C   UNL     1       4.864   5.820  16.838  0.00  0.00    +0.000 A 
ATOM      9  C   UNL     1       5.797   5.836  15.791  0.00  0.00    +0.000 A 
ATOM     10  C   UNL     1       6.114   4.619  15.199  0.00  0.00    +0.000 A 
ATOM     11  C   UNL     1       5.496   3.472  15.661  0.00  0.00    +0.000 A 
ATOM     12  N   UNL     1       4.589   3.427  16.653  0.00  0.00    +0.000 NA
ATOM     13  C   UNL     1       4.280   4.619  17.242  0.00  0.00    +0.000 A 
ENDROOT
BRANCH   1  14
ATOM     14  N   UNL     1       2.340   7.821  20.250  0.00  0.00    +0.000 N 
ATOM     15  H   UNL     1       2.707   7.932  21.189  0.00  0.00    +0.000 HD
BRANCH  14  23
ATOM     16  F   UNL     1       1.846   8.917  17.641  0.00  0.00    +0.000 F 
ATOM     17  C   UNL     1       1.096   9.294  18.689  0.00  0.00    +0.000 A 
ATOM     18  C   UNL     1       0.073  10.207  18.452  0.00  0.00    +0.000 A 
ATOM     19  C   UNL     1      -0.777  10.559  19.493  0.00  0.00    +0.000 A 
ATOM     20 BR   UNL     1      -2.156  11.815  19.190  0.00  0.00    +0.000 Br
ATOM     21  C   UNL     1      -0.623   9.988  20.755  0.00  0.00    +0.000 A 
ATOM     22  C   UNL     1       0.408   9.072  20.984  0.00  0.00    +0.000 A 
ATOM     23  C   UNL     1       1.305   8.732  19.960  0.00  0.00    +0.000 A 
ENDBRANCH  14  23
ENDBRANCH   1  14
TORSDOF 2
ENDMDL
MODEL 8
REMARK VINA RESULT:      -6.8      1.678      1.897
REMARK  Name = 
REMARK  2 active torsions:
REMARK  status: ('A' for Active; 'I' for Inactive)
REMARK    1  A    between atoms: C_8  and  N_9
REMARK    2  A    between atoms: N_9  and  C_10
REMARK                            x       y       z     vdW  Elec       q    Type
REMARK                         _______ _______ _______ _____ _____    ______ ____
ROOT
ATOM      1  C   UNL     1       1.932   8.405  19.057  0.00  0.00    +0.000 A 
ATOM      2  N   UNL     1       2.274   9.086  17.941  0.00  0.00    +0.000 NA
ATOM      3  C   UNL     1       1.934  10.375  17.834  0.00  0.00    +0.000 A 
ATOM      4  N   UNL     1       1.245  11.102  18.711  0.00  0.00    +0.000 NA
ATOM      5  C   UNL     1       0.851  10.421  19.821  0.00  0.00    +0.000 A 
ATOM      6  C   UNL     1       1.168   9.080  20.017  0.00  0.00    +0.000 A 
ATOM      7  S   UNL     1       0.527   8.493  21.498  0.00  0.00    +0.000 S 
ATOM      8  C   UNL     1      -0.152  10.010  21.907  0.00  0.00    +0.000 A 
ATOM      9  C   UNL     1      -0.879  10.352  23.057  0.00  0.00    +0.000 A 
ATOM     10  C   UNL     1      -1.315  11.667  23.169  0.00  0.00    +0.000 A 
ATOM     11  C   UNL     1      -1.021  12.556  22.152  0.00  0.00    +0.000 A 
ATOM     12  N   UNL     1      -0.338  12.255  21.033  0.00  0.00    +0.000 NA
ATOM     13  C   UNL     1       0.098  10.966  20.922  0.00  0.00    +0.000 A 
ENDROOT
BRANCH   1  14
ATOM     14  N   UNL     1       2.307   7.060  19.211  0.00  0.00    +0.000 N 
ATOM     15  H   UNL     1       2.456   6.806  20.183  0.00  0.00    +0.000 HD
BRANCH  14  23
ATOM     16  F   UNL     1       1.709   4.374  18.384  0.00  0.00    +0.000 F 
ATOM     17  C   UNL     1       2.827   4.983  17.958  0.00  0.00    +0.000 A 
ATOM     18  C   UNL     1       3.657   4.272  17.096  0.00  0.00    +0.000 A 
ATOM     19  C   UNL     1       4.781   4.896  16.568  0.00  0.00    +0.000 A 
ATOM     20 BR   UNL     1       5.928   3.936  15.413  0.00  0.00    +0.000 Br
ATOM     21  C   UNL     1       5.063   6.225  16.879  0.00  0.00    +0.000 A 
ATOM     22  C   UNL     1       4.224   6.931  17.747  0.00  0.00    +0.000 A 
ATOM     23  C   UNL     1       3.107   6.310  18.325  0.00  0.00    +0.000 A 
ENDBRANCH  14  23
ENDBRANCH   1  14
TORSDOF 2
ENDMDL
MODEL 9
REMARK VINA RESULT:      -6.8      4.550      8.230
REMARK  Name = 
REMARK  2 active torsions:
REMARK  status: ('A' for Active; 'I' for Inactive)
REMARK    1  A    between atoms: C_8  and  N_9
REMARK    2  A    between atoms: N_9  and  C_10
REMARK                            x       y       z     vdW  Elec       q    Type
REMARK                         _______ _______ _______ _____ _____    ______ ____
ROOT
ATOM      1  C   UNL     1      -0.792  11.295  22.007  0.00  0.00    +0.000 A 
ATOM      2  N   UNL     1      -0.807  10.728  23.233  0.00  0.00    +0.000 NA
ATOM      3  C   UNL     1      -0.130   9.592  23.434  0.00  0.00    +0.000 A 
ATOM      4  N   UNL     1       0.564   8.898  22.534  0.00  0.00    +0.000 NA
ATOM      5  C   UNL     1       0.553   9.430  21.282  0.00  0.00    +0.000 A 
ATOM      6  C   UNL     1      -0.119  10.612  20.987  0.00  0.00    +0.000 A 
ATOM      7  S   UNL     1       0.036  11.025  19.327  0.00  0.00    +0.000 S 
ATOM      8  C   UNL     1       1.012   9.661  18.988  0.00  0.00    +0.000 A 
ATOM      9  C   UNL     1       1.581   9.285  17.763  0.00  0.00    +0.000 A 
ATOM     10  C   UNL     1       2.357   8.132  17.744  0.00  0.00    +0.000 A 
ATOM     11  C   UNL     1       2.521   7.421  18.918  0.00  0.00    +0.000 A 
ATOM     12  N   UNL     1       1.979   7.748  20.105  0.00  0.00    +0.000 NA
ATOM     13  C   UNL     1       1.221   8.884  20.128  0.00  0.00    +0.000 A 
ENDROOT
BRANCH   1  14
ATOM     14  N   UNL     1      -1.464  12.508  21.777  0.00  0.00    +0.000 N 
ATOM     15  H   UNL     1      -1.043  13.287  22.272  0.00  0.00    +0.000 HD
BRANCH  14  23
ATOM     16  F   UNL     1      -3.349  12.837  23.920  0.00  0.00    +0.000 F 
ATOM     17  C   UNL     1      -3.771  12.788  22.646  0.00  0.00    +0.000 A 
ATOM     18  C   UNL     1      -5.137  12.924  22.415  0.00  0.00    +0.000 A 
ATOM     19  C   UNL     1      -5.604  12.962  21.107  0.00  0.00    +0.000 A 
ATOM     20 BR   UNL     1      -7.458  13.124  20.780  0.00  0.00    +0.000 Br
ATOM     21  C   UNL     1      -4.714  12.888  20.036  0.00  0.00    +0.000 A 
ATOM     22  C   UNL     1      -3.344  12.751  20.278  0.00  0.00    +0.000 A 
ATOM     23  C   UNL     1      -2.852  12.669  21.589  0.00  0.00    +0.000 A 
ENDBRANCH  14  23
ENDBRANCH   1  14
TORSDOF 2
ENDMDL
