MODEL 1
REMARK VINA RESULT:      -8.5      0.000      0.000
REMARK  Name = 
REMARK  7 active torsions:
REMARK  status: ('A' for Active; 'I' for Inactive)
REMARK    1  A    between atoms: C_2  and  C_21
REMARK    2  A    between atoms: N_3  and  C_4
REMARK    3  A    between atoms: C_7  and  N_8
REMARK    4  A    between atoms: C_12  and  O_13
REMARK    5  A    between atoms: O_13  and  C_14
REMARK    6  A    between atoms: C_14  and  C_15
REMARK    7  A    between atoms: C_24  and  C_25
REMARK                            x       y       z     vdW  Elec       q    Type
REMARK                         _______ _______ _______ _____ _____    ______ ____
ROOT
ATOM      1  C   UNL     1       4.485   6.646  17.399  0.00  0.00    +0.000 A 
ATOM      2  C   UNL     1       4.602   7.179  16.109  0.00  0.00    +0.000 A 
ATOM      3  C   UNL     1       5.392   6.535  15.150  0.00  0.00    +0.000 A 
ATOM      4  C   UNL     1       6.074   5.370  15.499  0.00  0.00    +0.000 A 
ATOM      5  C   UNL     1       5.981   4.846  16.795  0.00  0.00    +0.000 A 
ATOM      6  C   UNL     1       5.212   5.506  17.760  0.00  0.00    +0.000 A 
ENDROOT
BRANCH   1   9
ATOM      7  O   UNL     1       1.769   6.178  18.080  0.00  0.00    +0.000 OA
ATOM      8  C   UNL     1       2.386   7.120  18.567  0.00  0.00    +0.000 C 
ATOM      9  N   UNL     1       3.738   7.364  18.354  0.00  0.00    +0.000 N 
ATOM     10  H   UNL     1       4.139   8.241  18.640  0.00  0.00    +0.000 HD
BRANCH   8  11
ATOM     11  C   UNL     1       1.638   8.152  19.369  0.00  0.00    +0.000 A 
ATOM     12  C   UNL     1       1.168   9.299  18.710  0.00  0.00    +0.000 A 
ATOM     13  C   UNL     1       0.571  10.351  19.434  0.00  0.00    +0.000 A 
ATOM     14  C   UNL     1       0.417  10.291  20.828  0.00  0.00    +0.000 A 
ATOM     15  C   UNL     1       0.837   9.103  21.455  0.00  0.00    +0.000 A 
ATOM     16  C   UNL     1       1.448   8.065  20.749  0.00  0.00    +0.000 A 
BRANCH  14  17
ATOM     17  C   UNL     1      -0.103  11.433  21.623  0.00  0.00    +0.000 A 
ATOM     18  C   UNL     1      -1.108  11.280  22.595  0.00  0.00    +0.000 A 
ATOM     19  C   UNL     1      -1.613  12.377  23.302  0.00  0.00    +0.000 A 
ATOM     20  C   UNL     1      -1.109  13.654  23.073  0.00  0.00    +0.000 A 
ATOM     21  C   UNL     1      -0.108  13.836  22.128  0.00  0.00    +0.000 A 
ATOM     22  C   UNL     1       0.381  12.741  21.409  0.00  0.00    +0.000 A 
ENDBRANCH  14  17
ENDBRANCH   8  11
ENDBRANCH   1   9
BRANCH   4  23
ATOM     23  N   UNL     1       6.954   4.706  14.525  0.00  0.00    +0.000 N 
ATOM     24  O   UNL     1       6.649   3.565  14.162  0.00  0.00    +0.000 OA
ATOM     25  O   UNL     1       7.942   5.341  14.116  0.00  0.00    +0.000 OA
ENDBRANCH   4  23
BRANCH   6  26
ATOM     26  O   UNL     1       5.203   5.147  19.090  0.00  0.00    +0.000 OA
BRANCH  26  27
ATOM     27  C   UNL     1       4.896   3.776  19.350  0.00  0.00    +0.000 C 
BRANCH  27  28
ATOM     28  C   UNL     1       3.419   3.525  19.502  0.00  0.00    +0.000 A 
ATOM     29  C   UNL     1       2.682   2.766  18.588  0.00  0.00    +0.000 A 
ATOM     30  C   UNL     1       1.307   2.588  18.771  0.00  0.00    +0.000 A 
ATOM     31  C   UNL     1       0.667   3.164  19.866  0.00  0.00    +0.000 A 
ATOM     32  C   UNL     1       1.398   3.904  20.796  0.00  0.00    +0.000 A 
ATOM     33  C   UNL     1       2.766   4.085  20.613  0.00  0.00    +0.000 A 
ENDBRANCH  27  28
ENDBRANCH  26  27
ENDBRANCH   6  26
TORSDOF 7
ENDMDL
MODEL 2
REMARK VINA RESULT:      -8.5      0.664      1.204
REMARK  Name = 
REMARK  7 active torsions:
REMARK  status: ('A' for Active; 'I' for Inactive)
REMARK    1  A    between atoms: C_2  and  C_21
REMARK    2  A    between atoms: N_3  and  C_4
REMARK    3  A    between atoms: C_7  and  N_8
REMARK    4  A    between atoms: C_12  and  O_13
REMARK    5  A    between atoms: O_13  and  C_14
REMARK    6  A    between atoms: C_14  and  C_15
REMARK    7  A    between atoms: C_24  and  C_25
REMARK                            x       y       z     vdW  Elec       q    Type
REMARK                         _______ _______ _______ _____ _____    ______ ____
ROOT
ATOM      1  C   UNL     1       4.533   6.639  17.267  0.00  0.00    +0.000 A 
ATOM      2  C   UNL     1       4.636   7.133  15.961  0.00  0.00    +0.000 A 
ATOM      3  C   UNL     1       5.403   6.452  15.009  0.00  0.00    +0.000 A 
ATOM      4  C   UNL     1       6.078   5.290  15.381  0.00  0.00    +0.000 A 
ATOM      5  C   UNL     1       6.000   4.805  16.694  0.00  0.00    +0.000 A 
ATOM      6  C   UNL     1       5.253   5.502  17.651  0.00  0.00    +0.000 A 
ENDROOT
BRANCH   1   9
ATOM      7  O   UNL     1       1.804   6.267  17.953  0.00  0.00    +0.000 OA
ATOM      8  C   UNL     1       2.450   7.195  18.428  0.00  0.00    +0.000 C 
ATOM      9  N   UNL     1       3.810   7.393  18.212  0.00  0.00    +0.000 N 
ATOM     10  H   UNL     1       4.238   8.261  18.486  0.00  0.00    +0.000 HD
BRANCH   8  11
ATOM     11  C   UNL     1       1.735   8.262  19.215  0.00  0.00    +0.000 A 
ATOM     12  C   UNL     1       1.441   8.013  20.565  0.00  0.00    +0.000 A 
ATOM     13  C   UNL     1       0.668   8.925  21.312  0.00  0.00    +0.000 A 
ATOM     14  C   UNL     1       0.173  10.110  20.745  0.00  0.00    +0.000 A 
ATOM     15  C   UNL     1       0.538  10.366  19.410  0.00  0.00    +0.000 A 
ATOM     16  C   UNL     1       1.286   9.459  18.656  0.00  0.00    +0.000 A 
BRANCH  14  17
ATOM     17  C   UNL     1      -0.736  11.026  21.479  0.00  0.00    +0.000 A 
ATOM     18  C   UNL     1      -1.102  10.812  22.819  0.00  0.00    +0.000 A 
ATOM     19  C   UNL     1      -1.995  11.666  23.478  0.00  0.00    +0.000 A 
ATOM     20  C   UNL     1      -2.527  12.770  22.820  0.00  0.00    +0.000 A 
ATOM     21  C   UNL     1      -2.175  13.016  21.499  0.00  0.00    +0.000 A 
ATOM     22  C   UNL     1      -1.298  12.151  20.838  0.00  0.00    +0.000 A 
ENDBRANCH  14  17
ENDBRANCH   8  11
ENDBRANCH   1   9
BRANCH   4  23
ATOM     23  N   UNL     1       6.935   4.588  14.414  0.00  0.00    +0.000 N 
ATOM     24  O   UNL     1       8.026   5.098  14.141  0.00  0.00    +0.000 OA
ATOM     25  O   UNL     1       6.513   3.517  13.942  0.00  0.00    +0.000 OA
ENDBRANCH   4  23
BRANCH   6  26
ATOM     26  O   UNL     1       5.261   5.183  18.991  0.00  0.00    +0.000 OA
BRANCH  26  27
ATOM     27  C   UNL     1       4.913   3.831  19.298  0.00  0.00    +0.000 C 
BRANCH  27  28
ATOM     28  C   UNL     1       3.429   3.633  19.468  0.00  0.00    +0.000 A 
ATOM     29  C   UNL     1       2.664   2.857  18.593  0.00  0.00    +0.000 A 
ATOM     30  C   UNL     1       1.286   2.730  18.791  0.00  0.00    +0.000 A 
ATOM     31  C   UNL     1       0.670   3.374  19.862  0.00  0.00    +0.000 A 
ATOM     32  C   UNL     1       1.430   4.132  20.754  0.00  0.00    +0.000 A 
ATOM     33  C   UNL     1       2.802   4.262  20.556  0.00  0.00    +0.000 A 
ENDBRANCH  27  28
ENDBRANCH  26  27
ENDBRANCH   6  26
TORSDOF 7
ENDMDL
MODEL 3
REMARK VINA RESULT:      -8.4      0.078      1.206
REMARK  Name = 
REMARK  7 active torsions:
REMARK  status: ('A' for Active; 'I' for Inactive)
REMARK    1  A    between atoms: C_2  and  C_21
REMARK    2  A    between atoms: N_3  and  C_4
REMARK    3  A    between atoms: C_7  and  N_8
REMARK    4  A    between atoms: C_12  and  O_13
REMARK    5  A    between atoms: O_13  and  C_14
REMARK    6  A    between atoms: C_14  and  C_15
REMARK    7  A    between atoms: C_24  and  C_25
REMARK                            x       y       z     vdW  Elec       q    Type
REMARK                         _______ _______ _______ _____ _____    ______ ____
ROOT
ATOM      1  C   UNL     1       4.474   6.626  17.362  0.00  0.00    +0.000 A 
ATOM      2  C   UNL     1       4.593   7.145  16.067  0.00  0.00    +0.000 A 
ATOM      3  C   UNL     1       5.383   6.490  15.115  0.00  0.00    +0.000 A 
ATOM      4  C   UNL     1       6.064   5.328  15.477  0.00  0.00    +0.000 A 
ATOM      5  C   UNL     1       5.969   4.818  16.779  0.00  0.00    +0.000 A 
ATOM      6  C   UNL     1       5.199   5.489  17.736  0.00  0.00    +0.000 A 
ENDROOT
BRANCH   1   9
ATOM      7  O   UNL     1       1.741   6.206  18.003  0.00  0.00    +0.000 OA
ATOM      8  C   UNL     1       2.368   7.135  18.502  0.00  0.00    +0.000 C 
ATOM      9  N   UNL     1       3.728   7.354  18.309  0.00  0.00    +0.000 N 
ATOM     10  H   UNL     1       4.140   8.223  18.603  0.00  0.00    +0.000 HD
BRANCH   8  11
ATOM     11  C   UNL     1       1.628   8.178  19.297  0.00  0.00    +0.000 A 
ATOM     12  C   UNL     1       1.180   9.332  18.633  0.00  0.00    +0.000 A 
ATOM     13  C   UNL     1       0.592  10.393  19.352  0.00  0.00    +0.000 A 
ATOM     14  C   UNL     1       0.425  10.335  20.744  0.00  0.00    +0.000 A 
ATOM     15  C   UNL     1       0.822   9.142  21.375  0.00  0.00    +0.000 A 
ATOM     16  C   UNL     1       1.424   8.094  20.675  0.00  0.00    +0.000 A 
BRANCH  14  17
ATOM     17  C   UNL     1      -0.086  11.485  21.534  0.00  0.00    +0.000 A 
ATOM     18  C   UNL     1       0.370  12.800  21.334  0.00  0.00    +0.000 A 
ATOM     19  C   UNL     1      -0.095  13.862  22.119  0.00  0.00    +0.000 A 
ATOM     20  C   UNL     1      -1.046  13.640  23.109  0.00  0.00    +0.000 A 
ATOM     21  C   UNL     1      -1.525  12.354  23.323  0.00  0.00    +0.000 A 
ATOM     22  C   UNL     1      -1.046  11.292  22.550  0.00  0.00    +0.000 A 
ENDBRANCH  14  17
ENDBRANCH   8  11
ENDBRANCH   1   9
BRANCH   4  23
ATOM     23  N   UNL     1       6.944   4.653  14.511  0.00  0.00    +0.000 N 
ATOM     24  O   UNL     1       6.595   3.542  14.098  0.00  0.00    +0.000 OA
ATOM     25  O   UNL     1       7.977   5.251  14.159  0.00  0.00    +0.000 OA
ENDBRANCH   4  23
BRANCH   6  26
ATOM     26  O   UNL     1       5.189   5.144  19.070  0.00  0.00    +0.000 OA
BRANCH  26  27
ATOM     27  C   UNL     1       4.848   3.784  19.345  0.00  0.00    +0.000 C 
BRANCH  27  28
ATOM     28  C   UNL     1       3.368   3.578  19.533  0.00  0.00    +0.000 A 
ATOM     29  C   UNL     1       2.658   4.122  20.606  0.00  0.00    +0.000 A 
ATOM     30  C   UNL     1       1.288   3.876  20.738  0.00  0.00    +0.000 A 
ATOM     31  C   UNL     1       0.625   3.089  19.800  0.00  0.00    +0.000 A 
ATOM     32  C   UNL     1       1.321   2.560  18.711  0.00  0.00    +0.000 A 
ATOM     33  C   UNL     1       2.685   2.802  18.581  0.00  0.00    +0.000 A 
ENDBRANCH  27  28
ENDBRANCH  26  27
ENDBRANCH   6  26
TORSDOF 7
ENDMDL
MODEL 4
REMARK VINA RESULT:      -8.4      0.714      1.395
REMARK  Name = 
REMARK  7 active torsions:
REMARK  status: ('A' for Active; 'I' for Inactive)
REMARK    1  A    between atoms: C_2  and  C_21
REMARK    2  A    between atoms: N_3  and  C_4
REMARK    3  A    between atoms: C_7  and  N_8
REMARK    4  A    between atoms: C_12  and  O_13
REMARK    5  A    between atoms: O_13  and  C_14
REMARK    6  A    between atoms: C_14  and  C_15
REMARK    7  A    between atoms: C_24  and  C_25
REMARK                            x       y       z     vdW  Elec       q    Type
REMARK                         _______ _______ _______ _____ _____    ______ ____
ROOT
ATOM      1  C   UNL     1       4.538   6.526  17.260  0.00  0.00    +0.000 A 
ATOM      2  C   UNL     1       4.643   7.018  15.953  0.00  0.00    +0.000 A 
ATOM      3  C   UNL     1       5.404   6.330  15.001  0.00  0.00    +0.000 A 
ATOM      4  C   UNL     1       6.070   5.162  15.374  0.00  0.00    +0.000 A 
ATOM      5  C   UNL     1       5.989   4.680  16.687  0.00  0.00    +0.000 A 
ATOM      6  C   UNL     1       5.249   5.383  17.644  0.00  0.00    +0.000 A 
ENDROOT
BRANCH   1   9
ATOM      7  O   UNL     1       1.826   6.131  18.000  0.00  0.00    +0.000 OA
ATOM      8  C   UNL     1       2.468   7.075  18.448  0.00  0.00    +0.000 C 
ATOM      9  N   UNL     1       3.822   7.287  18.205  0.00  0.00    +0.000 N 
ATOM     10  H   UNL     1       4.243   8.164  18.457  0.00  0.00    +0.000 HD
BRANCH   8  11
ATOM     11  C   UNL     1       1.754   8.146  19.230  0.00  0.00    +0.000 A 
ATOM     12  C   UNL     1       1.389   7.874  20.558  0.00  0.00    +0.000 A 
ATOM     13  C   UNL     1       0.613   8.793  21.293  0.00  0.00    +0.000 A 
ATOM     14  C   UNL     1       0.186  10.008  20.736  0.00  0.00    +0.000 A 
ATOM     15  C   UNL     1       0.620  10.285  19.426  0.00  0.00    +0.000 A 
ATOM     16  C   UNL     1       1.372   9.372  18.683  0.00  0.00    +0.000 A 
BRANCH  14  17
ATOM     17  C   UNL     1      -0.726  10.936  21.451  0.00  0.00    +0.000 A 
ATOM     18  C   UNL     1      -0.988  10.825  22.828  0.00  0.00    +0.000 A 
ATOM     19  C   UNL     1      -1.884  11.686  23.474  0.00  0.00    +0.000 A 
ATOM     20  C   UNL     1      -2.524  12.696  22.763  0.00  0.00    +0.000 A 
ATOM     21  C   UNL     1      -2.277  12.840  21.404  0.00  0.00    +0.000 A 
ATOM     22  C   UNL     1      -1.396  11.967  20.758  0.00  0.00    +0.000 A 
ENDBRANCH  14  17
ENDBRANCH   8  11
ENDBRANCH   1   9
BRANCH   4  23
ATOM     23  N   UNL     1       6.920   4.452  14.406  0.00  0.00    +0.000 N 
ATOM     24  O   UNL     1       6.428   3.488  13.812  0.00  0.00    +0.000 OA
ATOM     25  O   UNL     1       8.077   4.877  14.237  0.00  0.00    +0.000 OA
ENDBRANCH   4  23
BRANCH   6  26
ATOM     26  O   UNL     1       5.255   5.065  18.984  0.00  0.00    +0.000 OA
BRANCH  26  27
ATOM     27  C   UNL     1       4.893   3.718  19.293  0.00  0.00    +0.000 C 
BRANCH  27  28
ATOM     28  C   UNL     1       3.413   3.546  19.518  0.00  0.00    +0.000 A 
ATOM     29  C   UNL     1       2.745   4.102  20.612  0.00  0.00    +0.000 A 
ATOM     30  C   UNL     1       1.374   3.888  20.779  0.00  0.00    +0.000 A 
ATOM     31  C   UNL     1       0.667   3.123  19.855  0.00  0.00    +0.000 A 
ATOM     32  C   UNL     1       1.321   2.583  18.745  0.00  0.00    +0.000 A 
ATOM     33  C   UNL     1       2.687   2.793  18.581  0.00  0.00    +0.000 A 
ENDBRANCH  27  28
ENDBRANCH  26  27
ENDBRANCH   6  26
TORSDOF 7
ENDMDL
MODEL 5
REMARK VINA RESULT:      -8.4      0.152      1.022
REMARK  Name = 
REMARK  7 active torsions:
REMARK  status: ('A' for Active; 'I' for Inactive)
REMARK    1  A    between atoms: C_2  and  C_21
REMARK    2  A    between atoms: N_3  and  C_4
REMARK    3  A    between atoms: C_7  and  N_8
REMARK    4  A    between atoms: C_12  and  O_13
REMARK    5  A    between atoms: O_13  and  C_14
REMARK    6  A    between atoms: C_14  and  C_15
REMARK    7  A    between atoms: C_24  and  C_25
REMARK                            x       y       z     vdW  Elec       q    Type
REMARK                         _______ _______ _______ _____ _____    ______ ____
ROOT
ATOM      1  C   UNL     1       4.443   6.682  17.436  0.00  0.00    +0.000 A 
ATOM      2  C   UNL     1       4.563   7.198  16.140  0.00  0.00    +0.000 A 
ATOM      3  C   UNL     1       5.351   6.538  15.189  0.00  0.00    +0.000 A 
ATOM      4  C   UNL     1       6.027   5.374  15.553  0.00  0.00    +0.000 A 
ATOM      5  C   UNL     1       5.931   4.868  16.856  0.00  0.00    +0.000 A 
ATOM      6  C   UNL     1       5.164   5.543  17.813  0.00  0.00    +0.000 A 
ENDROOT
BRANCH   1   9
ATOM      7  O   UNL     1       1.726   6.233  18.124  0.00  0.00    +0.000 OA
ATOM      8  C   UNL     1       2.346   7.179  18.598  0.00  0.00    +0.000 C 
ATOM      9  N   UNL     1       3.699   7.415  18.381  0.00  0.00    +0.000 N 
ATOM     10  H   UNL     1       4.102   8.295  18.655  0.00  0.00    +0.000 HD
BRANCH   8  11
ATOM     11  C   UNL     1       1.602   8.225  19.386  0.00  0.00    +0.000 A 
ATOM     12  C   UNL     1       1.232   9.414  18.737  0.00  0.00    +0.000 A 
ATOM     13  C   UNL     1       0.644  10.474  19.458  0.00  0.00    +0.000 A 
ATOM     14  C   UNL     1       0.400  10.380  20.837  0.00  0.00    +0.000 A 
ATOM     15  C   UNL     1       0.720   9.154  21.449  0.00  0.00    +0.000 A 
ATOM     16  C   UNL     1       1.321   8.106  20.748  0.00  0.00    +0.000 A 
BRANCH  14  17
ATOM     17  C   UNL     1      -0.111  11.523  21.635  0.00  0.00    +0.000 A 
ATOM     18  C   UNL     1      -1.083  11.368  22.639  0.00  0.00    +0.000 A 
ATOM     19  C   UNL     1      -1.582  12.466  23.350  0.00  0.00    +0.000 A 
ATOM     20  C   UNL     1      -1.103  13.746  23.092  0.00  0.00    +0.000 A 
ATOM     21  C   UNL     1      -0.133  13.932  22.115  0.00  0.00    +0.000 A 
ATOM     22  C   UNL     1       0.349  12.835  21.394  0.00  0.00    +0.000 A 
ENDBRANCH  14  17
ENDBRANCH   8  11
ENDBRANCH   1   9
BRANCH   4  23
ATOM     23  N   UNL     1       6.904   4.694  14.588  0.00  0.00    +0.000 N 
ATOM     24  O   UNL     1       7.975   5.242  14.304  0.00  0.00    +0.000 OA
ATOM     25  O   UNL     1       6.519   3.604  14.130  0.00  0.00    +0.000 OA
ENDBRANCH   4  23
BRANCH   6  26
ATOM     26  O   UNL     1       5.152   5.201  19.147  0.00  0.00    +0.000 OA
BRANCH  26  27
ATOM     27  C   UNL     1       4.858   3.830  19.422  0.00  0.00    +0.000 C 
BRANCH  27  28
ATOM     28  C   UNL     1       3.380   3.554  19.504  0.00  0.00    +0.000 A 
ATOM     29  C   UNL     1       2.590   3.971  20.578  0.00  0.00    +0.000 A 
ATOM     30  C   UNL     1       1.226   3.664  20.607  0.00  0.00    +0.000 A 
ATOM     31  C   UNL     1       0.649   2.942  19.565  0.00  0.00    +0.000 A 
ATOM     32  C   UNL     1       1.425   2.540  18.477  0.00  0.00    +0.000 A 
ATOM     33  C   UNL     1       2.783   2.843  18.448  0.00  0.00    +0.000 A 
ENDBRANCH  27  28
ENDBRANCH  26  27
ENDBRANCH   6  26
TORSDOF 7
ENDMDL
MODEL 6
REMARK VINA RESULT:      -8.3      1.518      1.941
REMARK  Name = 
REMARK  7 active torsions:
REMARK  status: ('A' for Active; 'I' for Inactive)
REMARK    1  A    between atoms: C_2  and  C_21
REMARK    2  A    between atoms: N_3  and  C_4
REMARK    3  A    between atoms: C_7  and  N_8
REMARK    4  A    between atoms: C_12  and  O_13
REMARK    5  A    between atoms: O_13  and  C_14
REMARK    6  A    between atoms: C_14  and  C_15
REMARK    7  A    between atoms: C_24  and  C_25
REMARK                            x       y       z     vdW  Elec       q    Type
REMARK                         _______ _______ _______ _____ _____    ______ ____
ROOT
ATOM      1  C   UNL     1       3.844   6.528  17.790  0.00  0.00    +0.000 A 
ATOM      2  C   UNL     1       5.083   7.167  17.927  0.00  0.00    +0.000 A 
ATOM      3  C   UNL     1       6.244   6.566  17.427  0.00  0.00    +0.000 A 
ATOM      4  C   UNL     1       6.155   5.318  16.810  0.00  0.00    +0.000 A 
ATOM      5  C   UNL     1       4.922   4.663  16.693  0.00  0.00    +0.000 A 
ATOM      6  C   UNL     1       3.766   5.253  17.217  0.00  0.00    +0.000 A 
ENDROOT
BRANCH   1   9
ATOM      7  O   UNL     1       2.683   8.992  16.990  0.00  0.00    +0.000 OA
ATOM      8  C   UNL     1       2.257   8.384  17.967  0.00  0.00    +0.000 C 
ATOM      9  N   UNL     1       2.712   7.133  18.370  0.00  0.00    +0.000 N 
ATOM     10  H   UNL     1       2.446   6.771  19.270  0.00  0.00    +0.000 HD
BRANCH   8  11
ATOM     11  C   UNL     1       1.252   9.052  18.868  0.00  0.00    +0.000 A 
ATOM     12  C   UNL     1       0.311   9.922  18.293  0.00  0.00    +0.000 A 
ATOM     13  C   UNL     1      -0.571  10.665  19.103  0.00  0.00    +0.000 A 
ATOM     14  C   UNL     1      -0.551  10.561  20.502  0.00  0.00    +0.000 A 
ATOM     15  C   UNL     1       0.356   9.634  21.049  0.00  0.00    +0.000 A 
ATOM     16  C   UNL     1       1.248   8.908  20.256  0.00  0.00    +0.000 A 
BRANCH  14  17
ATOM     17  C   UNL     1      -1.390  11.417  21.378  0.00  0.00    +0.000 A 
ATOM     18  C   UNL     1      -1.420  11.268  22.776  0.00  0.00    +0.000 A 
ATOM     19  C   UNL     1      -2.251  12.059  23.578  0.00  0.00    +0.000 A 
ATOM     20  C   UNL     1      -3.058  13.036  23.004  0.00  0.00    +0.000 A 
ATOM     21  C   UNL     1      -3.043  13.216  21.627  0.00  0.00    +0.000 A 
ATOM     22  C   UNL     1      -2.225  12.413  20.827  0.00  0.00    +0.000 A 
ENDBRANCH  14  17
ENDBRANCH   8  11
ENDBRANCH   1   9
BRANCH   4  23
ATOM     23  N   UNL     1       7.369   4.643  16.327  0.00  0.00    +0.000 N 
ATOM     24  O   UNL     1       7.575   4.638  15.109  0.00  0.00    +0.000 OA
ATOM     25  O   UNL     1       8.119   4.130  17.177  0.00  0.00    +0.000 OA
ENDBRANCH   4  23
BRANCH   6  26
ATOM     26  O   UNL     1       2.554   4.603  17.287  0.00  0.00    +0.000 OA
BRANCH  26  27
ATOM     27  C   UNL     1       2.622   3.228  17.668  0.00  0.00    +0.000 C 
BRANCH  27  28
ATOM     28  C   UNL     1       2.347   3.012  19.133  0.00  0.00    +0.000 A 
ATOM     29  C   UNL     1       1.088   3.216  19.705  0.00  0.00    +0.000 A 
ATOM     30  C   UNL     1       0.901   3.021  21.077  0.00  0.00    +0.000 A 
ATOM     31  C   UNL     1       1.967   2.622  21.879  0.00  0.00    +0.000 A 
ATOM     32  C   UNL     1       3.223   2.393  21.313  0.00  0.00    +0.000 A 
ATOM     33  C   UNL     1       3.411   2.590  19.948  0.00  0.00    +0.000 A 
ENDBRANCH  27  28
ENDBRANCH  26  27
ENDBRANCH   6  26
TORSDOF 7
ENDMDL
MODEL 7
REMARK VINA RESULT:      -8.3      0.576      1.273
REMARK  Name = 
REMARK  7 active torsions:
REMARK  status: ('A' for Active; 'I' for Inactive)
REMARK    1  A    between atoms: C_2  and  C_21
REMARK    2  A    between atoms: N_3  and  C_4
REMARK    3  A    between atoms: C_7  and  N_8
REMARK    4  A    between atoms: C_12  and  O_13
REMARK    5  A    between atoms: O_13  and  C_14
REMARK    6  A    between atoms: C_14  and  C_15
REMARK    7  A    between atoms: C_24  and  C_25
REMARK                            x       y       z     vdW  Elec       q    Type
REMARK                         _______ _______ _______ _____ _____    ______ ____
ROOT
ATOM      1  C   UNL     1       4.531   6.568  17.258  0.00  0.00    +0.000 A 
ATOM      2  C   UNL     1       4.626   7.039  15.942  0.00  0.00    +0.000 A 
ATOM      3  C   UNL     1       5.380   6.336  14.995  0.00  0.00    +0.000 A 
ATOM      4  C   UNL     1       6.049   5.175  15.381  0.00  0.00    +0.000 A 
ATOM      5  C   UNL     1       5.978   4.713  16.702  0.00  0.00    +0.000 A 
ATOM      6  C   UNL     1       5.245   5.431  17.654  0.00  0.00    +0.000 A 
ENDROOT
BRANCH   1   9
ATOM      7  O   UNL     1       1.783   6.285  17.911  0.00  0.00    +0.000 OA
ATOM      8  C   UNL     1       2.454   7.190  18.396  0.00  0.00    +0.000 C 
ATOM      9  N   UNL     1       3.822   7.343  18.196  0.00  0.00    +0.000 N 
ATOM     10  H   UNL     1       4.275   8.196  18.478  0.00  0.00    +0.000 HD
BRANCH   8  11
ATOM     11  C   UNL     1       1.766   8.278  19.178  0.00  0.00    +0.000 A 
ATOM     12  C   UNL     1       1.475   8.047  20.532  0.00  0.00    +0.000 A 
ATOM     13  C   UNL     1       0.725   8.981  21.275  0.00  0.00    +0.000 A 
ATOM     14  C   UNL     1       0.251  10.171  20.700  0.00  0.00    +0.000 A 
ATOM     15  C   UNL     1       0.613  10.408  19.361  0.00  0.00    +0.000 A 
ATOM     16  C   UNL     1       1.338   9.479  18.610  0.00  0.00    +0.000 A 
BRANCH  14  17
ATOM     17  C   UNL     1      -0.635  11.112  21.431  0.00  0.00    +0.000 A 
ATOM     18  C   UNL     1      -1.010  12.359  20.902  0.00  0.00    +0.000 A 
ATOM     19  C   UNL     1      -1.813  13.249  21.627  0.00  0.00    +0.000 A 
ATOM     20  C   UNL     1      -2.281  12.903  22.891  0.00  0.00    +0.000 A 
ATOM     21  C   UNL     1      -1.938  11.672  23.436  0.00  0.00    +0.000 A 
ATOM     22  C   UNL     1      -1.121  10.794  22.717  0.00  0.00    +0.000 A 
ENDBRANCH  14  17
ENDBRANCH   8  11
ENDBRANCH   1   9
BRANCH   4  23
ATOM     23  N   UNL     1       6.891   4.450  14.418  0.00  0.00    +0.000 N 
ATOM     24  O   UNL     1       6.395   3.476  13.843  0.00  0.00    +0.000 OA
ATOM     25  O   UNL     1       8.046   4.872  14.233  0.00  0.00    +0.000 OA
ENDBRANCH   4  23
BRANCH   6  26
ATOM     26  O   UNL     1       5.262   5.134  18.999  0.00  0.00    +0.000 OA
BRANCH  26  27
ATOM     27  C   UNL     1       4.957   3.777  19.327  0.00  0.00    +0.000 C 
BRANCH  27  28
ATOM     28  C   UNL     1       3.476   3.508  19.384  0.00  0.00    +0.000 A 
ATOM     29  C   UNL     1       2.812   2.724  18.437  0.00  0.00    +0.000 A 
ATOM     30  C   UNL     1       1.431   2.529  18.531  0.00  0.00    +0.000 A 
ATOM     31  C   UNL     1       0.710   3.115  19.569  0.00  0.00    +0.000 A 
ATOM     32  C   UNL     1       1.368   3.881  20.533  0.00  0.00    +0.000 A 
ATOM     33  C   UNL     1       2.743   4.077  20.439  0.00  0.00    +0.000 A 
ENDBRANCH  27  28
ENDBRANCH  26  27
ENDBRANCH   6  26
TORSDOF 7
ENDMDL
MODEL 8
REMARK VINA RESULT:      -8.2      1.377      1.870
REMARK  Name = 
REMARK  7 active torsions:
REMARK  status: ('A' for Active; 'I' for Inactive)
REMARK    1  A    between atoms: C_2  and  C_21
REMARK    2  A    between atoms: N_3  and  C_4
REMARK    3  A    between atoms: C_7  and  N_8
REMARK    4  A    between atoms: C_12  and  O_13
REMARK    5  A    between atoms: O_13  and  C_14
REMARK    6  A    between atoms: C_14  and  C_15
REMARK    7  A    between atoms: C_24  and  C_25
REMARK                            x       y       z     vdW  Elec       q    Type
REMARK                         _______ _______ _______ _____ _____    ______ ____
ROOT
ATOM      1  C   UNL     1       3.626   6.553  18.000  0.00  0.00    +0.000 A 
ATOM      2  C   UNL     1       4.944   7.019  18.095  0.00  0.00    +0.000 A 
ATOM      3  C   UNL     1       5.988   6.308  17.492  0.00  0.00    +0.000 A 
ATOM      4  C   UNL     1       5.703   5.124  16.812  0.00  0.00    +0.000 A 
ATOM      5  C   UNL     1       4.391   4.640  16.735  0.00  0.00    +0.000 A 
ATOM      6  C   UNL     1       3.351   5.338  17.361  0.00  0.00    +0.000 A 
ENDROOT
BRANCH   1   9
ATOM      7  O   UNL     1       2.324   8.900  17.075  0.00  0.00    +0.000 OA
ATOM      8  C   UNL     1       2.088   8.449  18.191  0.00  0.00    +0.000 C 
ATOM      9  N   UNL     1       2.616   7.259  18.682  0.00  0.00    +0.000 N 
ATOM     10  H   UNL     1       2.521   7.036  19.658  0.00  0.00    +0.000 HD
BRANCH   8  11
ATOM     11  C   UNL     1       1.261   9.260  19.153  0.00  0.00    +0.000 A 
ATOM     12  C   UNL     1       0.670  10.447  18.691  0.00  0.00    +0.000 A 
ATOM     13  C   UNL     1      -0.011  11.305  19.578  0.00  0.00    +0.000 A 
ATOM     14  C   UNL     1      -0.131  11.005  20.945  0.00  0.00    +0.000 A 
ATOM     15  C   UNL     1       0.413   9.779  21.369  0.00  0.00    +0.000 A 
ATOM     16  C   UNL     1       1.107   8.932  20.501  0.00  0.00    +0.000 A 
BRANCH  14  17
ATOM     17  C   UNL     1      -0.743  11.947  21.916  0.00  0.00    +0.000 A 
ATOM     18  C   UNL     1      -1.843  11.595  22.719  0.00  0.00    +0.000 A 
ATOM     19  C   UNL     1      -2.430  12.514  23.597  0.00  0.00    +0.000 A 
ATOM     20  C   UNL     1      -1.917  13.801  23.714  0.00  0.00    +0.000 A 
ATOM     21  C   UNL     1      -0.823  14.176  22.944  0.00  0.00    +0.000 A 
ATOM     22  C   UNL     1      -0.251  13.263  22.054  0.00  0.00    +0.000 A 
ENDBRANCH  14  17
ENDBRANCH   8  11
ENDBRANCH   1   9
BRANCH   4  23
ATOM     23  N   UNL     1       6.790   4.331  16.218  0.00  0.00    +0.000 N 
ATOM     24  O   UNL     1       7.898   4.380  16.763  0.00  0.00    +0.000 OA
ATOM     25  O   UNL     1       6.522   3.651  15.211  0.00  0.00    +0.000 OA
ENDBRANCH   4  23
BRANCH   6  26
ATOM     26  O   UNL     1       2.070   4.844  17.470  0.00  0.00    +0.000 OA
BRANCH  26  27
ATOM     27  C   UNL     1       1.978   3.442  17.731  0.00  0.00    +0.000 C 
BRANCH  27  28
ATOM     28  C   UNL     1       2.155   3.105  19.188  0.00  0.00    +0.000 A 
ATOM     29  C   UNL     1       3.365   2.649  19.718  0.00  0.00    +0.000 A 
ATOM     30  C   UNL     1       3.461   2.331  21.076  0.00  0.00    +0.000 A 
ATOM     31  C   UNL     1       2.352   2.468  21.907  0.00  0.00    +0.000 A 
ATOM     32  C   UNL     1       1.145   2.945  21.392  0.00  0.00    +0.000 A 
ATOM     33  C   UNL     1       1.048   3.259  20.040  0.00  0.00    +0.000 A 
ENDBRANCH  27  28
ENDBRANCH  26  27
ENDBRANCH   6  26
TORSDOF 7
ENDMDL
MODEL 9
REMARK VINA RESULT:      -8.1      5.033     10.373
REMARK  Name = 
REMARK  7 active torsions:
REMARK  status: ('A' for Active; 'I' for Inactive)
REMARK    1  A    between atoms: C_2  and  C_21
REMARK    2  A    between atoms: N_3  and  C_4
REMARK    3  A    between atoms: C_7  and  N_8
REMARK    4  A    between atoms: C_12  and  O_13
REMARK    5  A    between atoms: O_13  and  C_14
REMARK    6  A    between atoms: C_14  and  C_15
REMARK    7  A    between atoms: C_24  and  C_25
REMARK                            x       y       z     vdW  Elec       q    Type
REMARK                         _______ _______ _______ _____ _____    ______ ____
ROOT
ATOM      1  C   UNL     1      -1.613  12.207  21.785  0.00  0.00    +0.000 A 
ATOM      2  C   UNL     1      -1.412  12.590  23.117  0.00  0.00    +0.000 A 
ATOM      3  C   UNL     1      -2.023  13.746  23.617  0.00  0.00    +0.000 A 
ATOM      4  C   UNL     1      -2.817  14.519  22.770  0.00  0.00    +0.000 A 
ATOM      5  C   UNL     1      -3.001  14.154  21.429  0.00  0.00    +0.000 A 
ATOM      6  C   UNL     1      -2.368  13.012  20.924  0.00  0.00    +0.000 A 
ENDROOT
BRANCH   1   9
ATOM      7  O   UNL     1       1.150  12.095  21.145  0.00  0.00    +0.000 OA
ATOM      8  C   UNL     1       0.418  11.133  20.937  0.00  0.00    +0.000 C 
ATOM      9  N   UNL     1      -0.923  11.077  21.303  0.00  0.00    +0.000 N 
ATOM     10  H   UNL     1      -1.505  10.336  20.952  0.00  0.00    +0.000 HD
BRANCH   8  11
ATOM     11  C   UNL     1       0.945   9.965  20.147  0.00  0.00    +0.000 A 
ATOM     12  C   UNL     1       1.251   8.777  20.832  0.00  0.00    +0.000 A 
ATOM     13  C   UNL     1       1.861   7.698  20.162  0.00  0.00    +0.000 A 
ATOM     14  C   UNL     1       2.177   7.762  18.795  0.00  0.00    +0.000 A 
ATOM     15  C   UNL     1       1.800   8.937  18.119  0.00  0.00    +0.000 A 
ATOM     16  C   UNL     1       1.214  10.020  18.779  0.00  0.00    +0.000 A 
BRANCH  14  17
ATOM     17  C   UNL     1       2.921   6.683  18.097  0.00  0.00    +0.000 A 
ATOM     18  C   UNL     1       2.510   5.339  18.130  0.00  0.00    +0.000 A 
ATOM     19  C   UNL     1       3.251   4.333  17.500  0.00  0.00    +0.000 A 
ATOM     20  C   UNL     1       4.411   4.647  16.799  0.00  0.00    +0.000 A 
ATOM     21  C   UNL     1       4.837   5.968  16.738  0.00  0.00    +0.000 A 
ATOM     22  C   UNL     1       4.105   6.968  17.384  0.00  0.00    +0.000 A 
ENDBRANCH  14  17
ENDBRANCH   8  11
ENDBRANCH   1   9
BRANCH   4  23
ATOM     23  N   UNL     1      -3.423  15.767  23.257  0.00  0.00    +0.000 N 
ATOM     24  O   UNL     1      -3.775  15.808  24.441  0.00  0.00    +0.000 OA
ATOM     25  O   UNL     1      -3.531  16.707  22.450  0.00  0.00    +0.000 OA
ENDBRANCH   4  23
BRANCH   6  26
ATOM     26  O   UNL     1      -2.367  12.681  19.587  0.00  0.00    +0.000 OA
BRANCH  26  27
ATOM     27  C   UNL     1      -3.549  12.029  19.120  0.00  0.00    +0.000 C 
BRANCH  27  28
ATOM     28  C   UNL     1      -3.334  11.283  17.828  0.00  0.00    +0.000 A 
ATOM     29  C   UNL     1      -4.145  11.466  16.705  0.00  0.00    +0.000 A 
ATOM     30  C   UNL     1      -3.909  10.727  15.542  0.00  0.00    +0.000 A 
ATOM     31  C   UNL     1      -2.865   9.807  15.497  0.00  0.00    +0.000 A 
ATOM     32  C   UNL     1      -2.035   9.634  16.606  0.00  0.00    +0.000 A 
ATOM     33  C   UNL     1      -2.271  10.367  17.766  0.00  0.00    +0.000 A 
ENDBRANCH  27  28
ENDBRANCH  26  27
ENDBRANCH   6  26
TORSDOF 7
ENDMDL
