MODEL 1
REMARK VINA RESULT:      -8.9      0.000      0.000
REMARK  Name = 
REMARK  5 active torsions:
REMARK  status: ('A' for Active; 'I' for Inactive)
REMARK    1  A    between atoms: N_4  and  C_5
REMARK    2  A    between atoms: C_8  and  O_9
REMARK    3  A    between atoms: O_9  and  C_10
REMARK    4  A    between atoms: C_10  and  C_12
REMARK    5  A    between atoms: C_16  and  C_17
REMARK                            x       y       z     vdW  Elec       q    Type
REMARK                         _______ _______ _______ _____ _____    ______ ____
ROOT
ATOM      1  O   UNL     1       3.801   5.088  18.378  0.00  0.00    +0.000 OA
ENDROOT
BRANCH   1   5
ATOM      2  C   UNL     1       1.736   8.698  19.174  0.00  0.00    +0.000 A 
ATOM      3  C   UNL     1       1.837   7.659  20.114  0.00  0.00    +0.000 A 
ATOM      4  C   UNL     1       2.588   6.507  19.850  0.00  0.00    +0.000 A 
ATOM      5  C   UNL     1       3.240   6.368  18.624  0.00  0.00    +0.000 A 
ATOM      6  C   UNL     1       3.218   7.417  17.712  0.00  0.00    +0.000 A 
ATOM      7  C   UNL     1       2.460   8.562  17.985  0.00  0.00    +0.000 A 
BRANCH   2  11
ATOM      8  N   UNL     1      -0.503   9.890  17.549  0.00  0.00    +0.000 NA
ATOM      9  C   UNL     1      -0.106  10.308  18.700  0.00  0.00    +0.000 C 
ATOM     10  N   UNL     1      -0.707  11.374  19.284  0.00  0.00    +0.000 N 
ATOM     11  N   UNL     1       0.913   9.807  19.455  0.00  0.00    +0.000 N 
ATOM     12  H   UNL     1      -1.251  10.478  17.194  0.00  0.00    +0.000 HD
ATOM     13  H   UNL     1      -1.604  11.619  18.880  0.00  0.00    +0.000 HD
ATOM     14  H   UNL     1      -0.779  11.313  20.293  0.00  0.00    +0.000 HD
ATOM     15  H   UNL     1       1.289  10.435  20.147  0.00  0.00    +0.000 HD
ENDBRANCH   2  11
ENDBRANCH   1   5
BRANCH   1  16
ATOM     16  C   UNL     1       5.167   4.849  18.376  0.00  0.00    +0.000 C 
ATOM     17  O   UNL     1       5.876   4.645  19.356  0.00  0.00    +0.000 OA
BRANCH  16  18
ATOM     18  C   UNL     1       5.745   5.030  17.026  0.00  0.00    +0.000 A 
ATOM     19  C   UNL     1       5.349   4.141  16.101  0.00  0.00    +0.000 A 
ATOM     20  C   UNL     1       5.900   4.170  14.764  0.00  0.00    +0.000 A 
ATOM     21  C   UNL     1       5.388   3.375  13.740  0.00  0.00    +0.000 A 
ATOM     22  C   UNL     1       5.977   3.391  12.465  0.00  0.00    +0.000 A 
ATOM     23  C   UNL     1       7.135   4.162  12.261  0.00  0.00    +0.000 A 
ATOM     24  C   UNL     1       7.641   4.970  13.283  0.00  0.00    +0.000 A 
ATOM     25  C   UNL     1       6.993   4.988  14.516  0.00  0.00    +0.000 A 
ATOM     26  O   UNL     1       7.435   5.897  15.496  0.00  0.00    +0.000 OA
ATOM     27  C   UNL     1       6.717   6.088  16.679  0.00  0.00    +0.000 A 
ATOM     28  O   UNL     1       6.899   7.075  17.379  0.00  0.00    +0.000 OA
BRANCH  22  29
ATOM     29  C   UNL     1       5.371   2.586  11.347  0.00  0.00    +0.000 C 
ATOM     30 CL   UNL     1       6.295   1.102  11.066  0.00  0.00    +0.000 Cl
ENDBRANCH  22  29
ENDBRANCH  16  18
ENDBRANCH   1  16
TORSDOF 5
ENDMDL
MODEL 2
REMARK VINA RESULT:      -8.8      1.328      1.885
REMARK  Name = 
REMARK  5 active torsions:
REMARK  status: ('A' for Active; 'I' for Inactive)
REMARK    1  A    between atoms: N_4  and  C_5
REMARK    2  A    between atoms: C_8  and  O_9
REMARK    3  A    between atoms: O_9  and  C_10
REMARK    4  A    between atoms: C_10  and  C_12
REMARK    5  A    between atoms: C_16  and  C_17
REMARK                            x       y       z     vdW  Elec       q    Type
REMARK                         _______ _______ _______ _____ _____    ______ ____
ROOT
ATOM      1  O   UNL     1       4.305   4.494  18.774  0.00  0.00    +0.000 OA
ENDROOT
BRANCH   1   5
ATOM      2  C   UNL     1       1.659   7.508  20.132  0.00  0.00    +0.000 A 
ATOM      3  C   UNL     1       2.436   7.648  18.969  0.00  0.00    +0.000 A 
ATOM      4  C   UNL     1       3.247   6.605  18.505  0.00  0.00    +0.000 A 
ATOM      5  C   UNL     1       3.308   5.404  19.212  0.00  0.00    +0.000 A 
ATOM      6  C   UNL     1       2.488   5.216  20.319  0.00  0.00    +0.000 A 
ATOM      7  C   UNL     1       1.684   6.267  20.777  0.00  0.00    +0.000 A 
BRANCH   2  11
ATOM      8  N   UNL     1       2.026   9.159  22.624  0.00  0.00    +0.000 NA
ATOM      9  C   UNL     1       1.120   9.344  21.729  0.00  0.00    +0.000 C 
ATOM     10  N   UNL     1       0.222  10.351  21.863  0.00  0.00    +0.000 N 
ATOM     11  N   UNL     1       0.911   8.607  20.600  0.00  0.00    +0.000 N 
ATOM     12  H   UNL     1       1.921   9.827  23.382  0.00  0.00    +0.000 HD
ATOM     13  H   UNL     1       0.484  11.054  22.545  0.00  0.00    +0.000 HD
ATOM     14  H   UNL     1      -0.049  10.789  20.990  0.00  0.00    +0.000 HD
ATOM     15  H   UNL     1      -0.008   8.682  20.198  0.00  0.00    +0.000 HD
ENDBRANCH   2  11
ENDBRANCH   1   5
BRANCH   1  16
ATOM     16  C   UNL     1       5.653   4.814  18.728  0.00  0.00    +0.000 C 
ATOM     17  O   UNL     1       6.386   5.038  19.687  0.00  0.00    +0.000 OA
BRANCH  16  18
ATOM     18  C   UNL     1       6.110   5.029  17.338  0.00  0.00    +0.000 A 
ATOM     19  C   UNL     1       5.606   4.183  16.424  0.00  0.00    +0.000 A 
ATOM     20  C   UNL     1       6.033   4.246  15.044  0.00  0.00    +0.000 A 
ATOM     21  C   UNL     1       5.406   3.501  14.045  0.00  0.00    +0.000 A 
ATOM     22  C   UNL     1       5.876   3.548  12.723  0.00  0.00    +0.000 A 
ATOM     23  C   UNL     1       7.032   4.296  12.438  0.00  0.00    +0.000 A 
ATOM     24  C   UNL     1       7.652   5.054  13.435  0.00  0.00    +0.000 A 
ATOM     25  C   UNL     1       7.121   5.044  14.723  0.00  0.00    +0.000 A 
ATOM     26  O   UNL     1       7.677   5.907  15.687  0.00  0.00    +0.000 OA
ATOM     27  C   UNL     1       7.076   6.073  16.937  0.00  0.00    +0.000 A 
ATOM     28  O   UNL     1       7.350   7.030  17.650  0.00  0.00    +0.000 OA
BRANCH  22  29
ATOM     29  C   UNL     1       5.147   2.800  11.640  0.00  0.00    +0.000 C 
ATOM     30 CL   UNL     1       6.028   1.331  11.186  0.00  0.00    +0.000 Cl
ENDBRANCH  22  29
ENDBRANCH  16  18
ENDBRANCH   1  16
TORSDOF 5
ENDMDL
MODEL 3
REMARK VINA RESULT:      -8.8      1.144      1.184
REMARK  Name = 
REMARK  5 active torsions:
REMARK  status: ('A' for Active; 'I' for Inactive)
REMARK    1  A    between atoms: N_4  and  C_5
REMARK    2  A    between atoms: C_8  and  O_9
REMARK    3  A    between atoms: O_9  and  C_10
REMARK    4  A    between atoms: C_10  and  C_12
REMARK    5  A    between atoms: C_16  and  C_17
REMARK                            x       y       z     vdW  Elec       q    Type
REMARK                         _______ _______ _______ _____ _____    ______ ____
ROOT
ATOM      1  O   UNL     1       4.639   4.698  18.404  0.00  0.00    +0.000 OA
ENDROOT
BRANCH   1   5
ATOM      2  C   UNL     1       2.138   8.099  18.736  0.00  0.00    +0.000 A 
ATOM      3  C   UNL     1       2.190   7.097  19.720  0.00  0.00    +0.000 A 
ATOM      4  C   UNL     1       3.081   6.021  19.618  0.00  0.00    +0.000 A 
ATOM      5  C   UNL     1       3.926   5.920  18.512  0.00  0.00    +0.000 A 
ATOM      6  C   UNL     1       3.946   6.941  17.569  0.00  0.00    +0.000 A 
ATOM      7  C   UNL     1       3.049   8.010  17.679  0.00  0.00    +0.000 A 
BRANCH   2  11
ATOM      8  N   UNL     1       2.179  10.894  17.613  0.00  0.00    +0.000 NA
ATOM      9  C   UNL     1       1.224  10.378  18.306  0.00  0.00    +0.000 C 
ATOM     10  N   UNL     1       0.115  11.104  18.589  0.00  0.00    +0.000 N 
ATOM     11  N   UNL     1       1.178   9.125  18.846  0.00  0.00    +0.000 N 
ATOM     12  H   UNL     1       1.968  11.859  17.378  0.00  0.00    +0.000 HD
ATOM     13  H   UNL     1       0.004  11.934  18.018  0.00  0.00    +0.000 HD
ATOM     14  H   UNL     1      -0.744  10.567  18.604  0.00  0.00    +0.000 HD
ATOM     15  H   UNL     1       0.531   9.006  19.606  0.00  0.00    +0.000 HD
ENDBRANCH   2  11
ENDBRANCH   1   5
BRANCH   1  16
ATOM     16  C   UNL     1       6.009   4.638  18.197  0.00  0.00    +0.000 C 
ATOM     17  O   UNL     1       6.877   4.565  19.061  0.00  0.00    +0.000 OA
BRANCH  16  18
ATOM     18  C   UNL     1       6.349   4.841  16.772  0.00  0.00    +0.000 A 
ATOM     19  C   UNL     1       5.769   3.991  15.910  0.00  0.00    +0.000 A 
ATOM     20  C   UNL     1       6.080   4.042  14.498  0.00  0.00    +0.000 A 
ATOM     21  C   UNL     1       5.371   3.291  13.561  0.00  0.00    +0.000 A 
ATOM     22  C   UNL     1       5.730   3.327  12.204  0.00  0.00    +0.000 A 
ATOM     23  C   UNL     1       6.859   4.070  11.818  0.00  0.00    +0.000 A 
ATOM     24  C   UNL     1       7.563   4.834  12.755  0.00  0.00    +0.000 A 
ATOM     25  C   UNL     1       7.139   4.835  14.082  0.00  0.00    +0.000 A 
ATOM     26  O   UNL     1       7.776   5.703  14.991  0.00  0.00    +0.000 OA
ATOM     27  C   UNL     1       7.281   5.880  16.285  0.00  0.00    +0.000 A 
ATOM     28  O   UNL     1       7.615   6.841  16.965  0.00  0.00    +0.000 OA
BRANCH  22  29
ATOM     29  C   UNL     1       4.912   2.573  11.190  0.00  0.00    +0.000 C 
ATOM     30 CL   UNL     1       3.581   3.573  10.586  0.00  0.00    +0.000 Cl
ENDBRANCH  22  29
ENDBRANCH  16  18
ENDBRANCH   1  16
TORSDOF 5
ENDMDL
MODEL 4
REMARK VINA RESULT:      -8.5      1.491      1.875
REMARK  Name = 
REMARK  5 active torsions:
REMARK  status: ('A' for Active; 'I' for Inactive)
REMARK    1  A    between atoms: N_4  and  C_5
REMARK    2  A    between atoms: C_8  and  O_9
REMARK    3  A    between atoms: O_9  and  C_10
REMARK    4  A    between atoms: C_10  and  C_12
REMARK    5  A    between atoms: C_16  and  C_17
REMARK                            x       y       z     vdW  Elec       q    Type
REMARK                         _______ _______ _______ _____ _____    ______ ____
ROOT
ATOM      1  O   UNL     1       3.441   5.892  17.975  0.00  0.00    +0.000 OA
ENDROOT
BRANCH   1   5
ATOM      2  C   UNL     1       1.000   8.125  20.618  0.00  0.00    +0.000 A 
ATOM      3  C   UNL     1       1.455   6.830  20.918  0.00  0.00    +0.000 A 
ATOM      4  C   UNL     1       2.321   6.144  20.056  0.00  0.00    +0.000 A 
ATOM      5  C   UNL     1       2.734   6.741  18.865  0.00  0.00    +0.000 A 
ATOM      6  C   UNL     1       2.359   8.051  18.587  0.00  0.00    +0.000 A 
ATOM      7  C   UNL     1       1.489   8.725  19.453  0.00  0.00    +0.000 A 
BRANCH   2  11
ATOM      8  N   UNL     1       1.452   9.461  23.279  0.00  0.00    +0.000 NA
ATOM      9  C   UNL     1       0.322   9.361  22.673  0.00  0.00    +0.000 C 
ATOM     10  N   UNL     1      -0.800   9.882  23.229  0.00  0.00    +0.000 N 
ATOM     11  N   UNL     1       0.075   8.749  21.479  0.00  0.00    +0.000 N 
ATOM     12  H   UNL     1       1.338   9.927  24.174  0.00  0.00    +0.000 HD
ATOM     13  H   UNL     1      -0.626  10.540  23.980  0.00  0.00    +0.000 HD
ATOM     14  H   UNL     1      -1.456  10.271  22.561  0.00  0.00    +0.000 HD
ATOM     15  H   UNL     1      -0.882   8.485  21.318  0.00  0.00    +0.000 HD
ENDBRANCH   2  11
ENDBRANCH   1   5
BRANCH   1  16
ATOM     16  C   UNL     1       4.775   5.555  18.151  0.00  0.00    +0.000 C 
ATOM     17  O   UNL     1       5.365   5.437  19.220  0.00  0.00    +0.000 OA
BRANCH  16  18
ATOM     18  C   UNL     1       5.494   5.507  16.859  0.00  0.00    +0.000 A 
ATOM     19  C   UNL     1       5.034   4.611  15.971  0.00  0.00    +0.000 A 
ATOM     20  C   UNL     1       5.700   4.419  14.702  0.00  0.00    +0.000 A 
ATOM     21  C   UNL     1       5.151   3.625  13.696  0.00  0.00    +0.000 A 
ATOM     22  C   UNL     1       5.846   3.420  12.493  0.00  0.00    +0.000 A 
ATOM     23  C   UNL     1       7.134   3.965  12.351  0.00  0.00    +0.000 A 
ATOM     24  C   UNL     1       7.680   4.772  13.353  0.00  0.00    +0.000 A 
ATOM     25  C   UNL     1       6.936   5.016  14.505  0.00  0.00    +0.000 A 
ATOM     26  O   UNL     1       7.441   5.930  15.451  0.00  0.00    +0.000 OA
ATOM     27  C   UNL     1       6.664   6.350  16.533  0.00  0.00    +0.000 A 
ATOM     28  O   UNL     1       6.952   7.356  17.168  0.00  0.00    +0.000 OA
BRANCH  22  29
ATOM     29  C   UNL     1       5.211   2.624  11.385  0.00  0.00    +0.000 C 
ATOM     30 CL   UNL     1       6.125   1.140  11.072  0.00  0.00    +0.000 Cl
ENDBRANCH  22  29
ENDBRANCH  16  18
ENDBRANCH   1  16
TORSDOF 5
ENDMDL
MODEL 5
REMARK VINA RESULT:      -8.3      1.012      1.597
REMARK  Name = 
REMARK  5 active torsions:
REMARK  status: ('A' for Active; 'I' for Inactive)
REMARK    1  A    between atoms: N_4  and  C_5
REMARK    2  A    between atoms: C_8  and  O_9
REMARK    3  A    between atoms: O_9  and  C_10
REMARK    4  A    between atoms: C_10  and  C_12
REMARK    5  A    between atoms: C_16  and  C_17
REMARK                            x       y       z     vdW  Elec       q    Type
REMARK                         _______ _______ _______ _____ _____    ______ ____
ROOT
ATOM      1  O   UNL     1       3.469   5.519  18.091  0.00  0.00    +0.000 OA
ENDROOT
BRANCH   1   5
ATOM      2  C   UNL     1       1.460   8.947  19.556  0.00  0.00    +0.000 A 
ATOM      3  C   UNL     1       1.850   8.813  18.213  0.00  0.00    +0.000 A 
ATOM      4  C   UNL     1       2.447   7.637  17.741  0.00  0.00    +0.000 A 
ATOM      5  C   UNL     1       2.682   6.577  18.617  0.00  0.00    +0.000 A 
ATOM      6  C   UNL     1       2.233   6.658  19.930  0.00  0.00    +0.000 A 
ATOM      7  C   UNL     1       1.641   7.840  20.392  0.00  0.00    +0.000 A 
BRANCH   2  11
ATOM      8  N   UNL     1       1.019   9.943  22.364  0.00  0.00    +0.000 NA
ATOM      9  C   UNL     1       0.758  10.597  21.287  0.00  0.00    +0.000 C 
ATOM     10  N   UNL     1       0.238  11.847  21.355  0.00  0.00    +0.000 N 
ATOM     11  N   UNL     1       0.927  10.173  20.001  0.00  0.00    +0.000 N 
ATOM     12  H   UNL     1       0.753  10.482  23.182  0.00  0.00    +0.000 HD
ATOM     13  H   UNL     1       0.321  12.283  22.267  0.00  0.00    +0.000 HD
ATOM     14  H   UNL     1       0.563  12.477  20.631  0.00  0.00    +0.000 HD
ATOM     15  H   UNL     1       0.384  10.663  19.310  0.00  0.00    +0.000 HD
ENDBRANCH   2  11
ENDBRANCH   1   5
BRANCH   1  16
ATOM     16  C   UNL     1       4.844   5.448  18.250  0.00  0.00    +0.000 C 
ATOM     17  O   UNL     1       5.464   5.515  19.307  0.00  0.00    +0.000 OA
BRANCH  16  18
ATOM     18  C   UNL     1       5.539   5.446  16.944  0.00  0.00    +0.000 A 
ATOM     19  C   UNL     1       5.095   4.545  16.052  0.00  0.00    +0.000 A 
ATOM     20  C   UNL     1       5.743   4.397  14.767  0.00  0.00    +0.000 A 
ATOM     21  C   UNL     1       5.204   3.596  13.760  0.00  0.00    +0.000 A 
ATOM     22  C   UNL     1       5.882   3.435  12.541  0.00  0.00    +0.000 A 
ATOM     23  C   UNL     1       7.145   4.031  12.382  0.00  0.00    +0.000 A 
ATOM     24  C   UNL     1       7.680   4.844  13.385  0.00  0.00    +0.000 A 
ATOM     25  C   UNL     1       6.951   5.044  14.555  0.00  0.00    +0.000 A 
ATOM     26  O   UNL     1       7.440   5.962  15.505  0.00  0.00    +0.000 OA
ATOM     27  C   UNL     1       6.669   6.337  16.607  0.00  0.00    +0.000 A 
ATOM     28  O   UNL     1       6.932   7.345  17.251  0.00  0.00    +0.000 OA
BRANCH  22  29
ATOM     29  C   UNL     1       5.256   2.631  11.434  0.00  0.00    +0.000 C 
ATOM     30 CL   UNL     1       6.239   1.206  11.057  0.00  0.00    +0.000 Cl
ENDBRANCH  22  29
ENDBRANCH  16  18
ENDBRANCH   1  16
TORSDOF 5
ENDMDL
MODEL 6
REMARK VINA RESULT:      -8.1      3.486      5.909
REMARK  Name = 
REMARK  5 active torsions:
REMARK  status: ('A' for Active; 'I' for Inactive)
REMARK    1  A    between atoms: N_4  and  C_5
REMARK    2  A    between atoms: C_8  and  O_9
REMARK    3  A    between atoms: O_9  and  C_10
REMARK    4  A    between atoms: C_10  and  C_12
REMARK    5  A    between atoms: C_16  and  C_17
REMARK                            x       y       z     vdW  Elec       q    Type
REMARK                         _______ _______ _______ _____ _____    ______ ____
ROOT
ATOM      1  O   UNL     1       0.328   9.733  19.042  0.00  0.00    +0.000 OA
ENDROOT
BRANCH   1   5
ATOM      2  C   UNL     1      -3.215  11.429  17.459  0.00  0.00    +0.000 A 
ATOM      3  C   UNL     1      -2.536  11.981  18.558  0.00  0.00    +0.000 A 
ATOM      4  C   UNL     1      -1.326  11.440  19.013  0.00  0.00    +0.000 A 
ATOM      5  C   UNL     1      -0.784  10.320  18.383  0.00  0.00    +0.000 A 
ATOM      6  C   UNL     1      -1.398   9.807  17.246  0.00  0.00    +0.000 A 
ATOM      7  C   UNL     1      -2.609  10.353  16.802  0.00  0.00    +0.000 A 
BRANCH   2  11
ATOM      8  N   UNL     1      -5.977  10.750  18.450  0.00  0.00    +0.000 NA
ATOM      9  C   UNL     1      -5.696  11.641  17.565  0.00  0.00    +0.000 C 
ATOM     10  N   UNL     1      -6.685  12.370  16.991  0.00  0.00    +0.000 N 
ATOM     11  N   UNL     1      -4.463  11.962  17.079  0.00  0.00    +0.000 N 
ATOM     12  H   UNL     1      -6.981  10.689  18.589  0.00  0.00    +0.000 HD
ATOM     13  H   UNL     1      -7.569  12.334  17.486  0.00  0.00    +0.000 HD
ATOM     14  H   UNL     1      -6.432  13.330  16.787  0.00  0.00    +0.000 HD
ATOM     15  H   UNL     1      -4.457  12.430  16.188  0.00  0.00    +0.000 HD
ENDBRANCH   2  11
ENDBRANCH   1   5
BRANCH   1  16
ATOM     16  C   UNL     1       1.563   9.563  18.435  0.00  0.00    +0.000 C 
ATOM     17  O   UNL     1       2.089  10.316  17.622  0.00  0.00    +0.000 OA
BRANCH  16  18
ATOM     18  C   UNL     1       2.144   8.240  18.754  0.00  0.00    +0.000 A 
ATOM     19  C   UNL     1       2.855   7.666  17.770  0.00  0.00    +0.000 A 
ATOM     20  C   UNL     1       3.411   6.341  17.936  0.00  0.00    +0.000 A 
ATOM     21  C   UNL     1       4.292   5.791  17.006  0.00  0.00    +0.000 A 
ATOM     22  C   UNL     1       4.776   4.484  17.172  0.00  0.00    +0.000 A 
ATOM     23  C   UNL     1       4.300   3.714  18.248  0.00  0.00    +0.000 A 
ATOM     24  C   UNL     1       3.428   4.269  19.189  0.00  0.00    +0.000 A 
ATOM     25  C   UNL     1       3.021   5.592  19.037  0.00  0.00    +0.000 A 
ATOM     26  O   UNL     1       2.244   6.179  20.055  0.00  0.00    +0.000 OA
ATOM     27  C   UNL     1       1.958   7.546  20.046  0.00  0.00    +0.000 A 
ATOM     28  O   UNL     1       1.572   8.120  21.056  0.00  0.00    +0.000 OA
BRANCH  22  29
ATOM     29  C   UNL     1       5.784   3.927  16.203  0.00  0.00    +0.000 C 
ATOM     30 CL   UNL     1       7.050   5.117  15.858  0.00  0.00    +0.000 Cl
ENDBRANCH  22  29
ENDBRANCH  16  18
ENDBRANCH   1  16
TORSDOF 5
ENDMDL
MODEL 7
REMARK VINA RESULT:      -8.0      1.435      1.700
REMARK  Name = 
REMARK  5 active torsions:
REMARK  status: ('A' for Active; 'I' for Inactive)
REMARK    1  A    between atoms: N_4  and  C_5
REMARK    2  A    between atoms: C_8  and  O_9
REMARK    3  A    between atoms: O_9  and  C_10
REMARK    4  A    between atoms: C_10  and  C_12
REMARK    5  A    between atoms: C_16  and  C_17
REMARK                            x       y       z     vdW  Elec       q    Type
REMARK                         _______ _______ _______ _____ _____    ______ ____
ROOT
ATOM      1  O   UNL     1       3.340   4.315  18.591  0.00  0.00    +0.000 OA
ENDROOT
BRANCH   1   5
ATOM      2  C   UNL     1       1.640   7.959  19.916  0.00  0.00    +0.000 A 
ATOM      3  C   UNL     1       1.584   6.777  20.674  0.00  0.00    +0.000 A 
ATOM      4  C   UNL     1       2.219   5.605  20.243  0.00  0.00    +0.000 A 
ATOM      5  C   UNL     1       2.909   5.594  19.030  0.00  0.00    +0.000 A 
ATOM      6  C   UNL     1       3.043   6.772  18.305  0.00  0.00    +0.000 A 
ATOM      7  C   UNL     1       2.400   7.937  18.743  0.00  0.00    +0.000 A 
BRANCH   2  11
ATOM      8  N   UNL     1       1.758   9.398  22.560  0.00  0.00    +0.000 NA
ATOM      9  C   UNL     1       1.022   9.731  21.557  0.00  0.00    +0.000 C 
ATOM     10  N   UNL     1       0.208  10.812  21.636  0.00  0.00    +0.000 N 
ATOM     11  N   UNL     1       0.928   9.094  20.354  0.00  0.00    +0.000 N 
ATOM     12  H   UNL     1       1.595  10.022  23.344  0.00  0.00    +0.000 HD
ATOM     13  H   UNL     1       0.421  11.439  22.404  0.00  0.00    +0.000 HD
ATOM     14  H   UNL     1       0.116  11.331  20.770  0.00  0.00    +0.000 HD
ATOM     15  H   UNL     1       0.093   9.287  19.827  0.00  0.00    +0.000 HD
ENDBRANCH   2  11
ENDBRANCH   1   5
BRANCH   1  16
ATOM     16  C   UNL     1       4.667   3.913  18.621  0.00  0.00    +0.000 C 
ATOM     17  O   UNL     1       5.243   3.357  19.551  0.00  0.00    +0.000 OA
BRANCH  16  18
ATOM     18  C   UNL     1       5.402   4.386  17.427  0.00  0.00    +0.000 A 
ATOM     19  C   UNL     1       5.126   3.739  16.283  0.00  0.00    +0.000 A 
ATOM     20  C   UNL     1       5.834   4.061  15.063  0.00  0.00    +0.000 A 
ATOM     21  C   UNL     1       5.455   3.531  13.830  0.00  0.00    +0.000 A 
ATOM     22  C   UNL     1       6.193   3.826  12.673  0.00  0.00    +0.000 A 
ATOM     23  C   UNL     1       7.360   4.599  12.789  0.00  0.00    +0.000 A 
ATOM     24  C   UNL     1       7.734   5.142  14.022  0.00  0.00    +0.000 A 
ATOM     25  C   UNL     1       6.942   4.892  15.140  0.00  0.00    +0.000 A 
ATOM     26  O   UNL     1       7.257   5.545  16.348  0.00  0.00    +0.000 OA
ATOM     27  C   UNL     1       6.401   5.475  17.449  0.00  0.00    +0.000 A 
ATOM     28  O   UNL     1       6.490   6.273  18.373  0.00  0.00    +0.000 OA
BRANCH  22  29
ATOM     29  C   UNL     1       5.731   3.310  11.336  0.00  0.00    +0.000 C 
ATOM     30 CL   UNL     1       3.971   3.118  11.309  0.00  0.00    +0.000 Cl
ENDBRANCH  22  29
ENDBRANCH  16  18
ENDBRANCH   1  16
TORSDOF 5
ENDMDL
MODEL 8
REMARK VINA RESULT:      -7.9      2.874      4.988
REMARK  Name = 
REMARK  5 active torsions:
REMARK  status: ('A' for Active; 'I' for Inactive)
REMARK    1  A    between atoms: N_4  and  C_5
REMARK    2  A    between atoms: C_8  and  O_9
REMARK    3  A    between atoms: O_9  and  C_10
REMARK    4  A    between atoms: C_10  and  C_12
REMARK    5  A    between atoms: C_16  and  C_17
REMARK                            x       y       z     vdW  Elec       q    Type
REMARK                         _______ _______ _______ _____ _____    ______ ____
ROOT
ATOM      1  O   UNL     1       1.572   9.275  18.992  0.00  0.00    +0.000 OA
ENDROOT
BRANCH   1   5
ATOM      2  C   UNL     1      -2.011  11.254  17.906  0.00  0.00    +0.000 A 
ATOM      3  C   UNL     1      -1.560  10.092  17.257  0.00  0.00    +0.000 A 
ATOM      4  C   UNL     1      -0.409   9.418  17.686  0.00  0.00    +0.000 A 
ATOM      5  C   UNL     1       0.323   9.910  18.767  0.00  0.00    +0.000 A 
ATOM      6  C   UNL     1      -0.150  11.011  19.472  0.00  0.00    +0.000 A 
ATOM      7  C   UNL     1      -1.299  11.680  19.032  0.00  0.00    +0.000 A 
BRANCH   2  11
ATOM      8  N   UNL     1      -4.941  10.622  18.201  0.00  0.00    +0.000 NA
ATOM      9  C   UNL     1      -4.452  11.630  17.568  0.00  0.00    +0.000 C 
ATOM     10  N   UNL     1      -5.274  12.520  16.959  0.00  0.00    +0.000 N 
ATOM     11  N   UNL     1      -3.133  11.938  17.397  0.00  0.00    +0.000 N 
ATOM     12  H   UNL     1      -5.954  10.614  18.130  0.00  0.00    +0.000 HD
ATOM     13  H   UNL     1      -6.241  12.465  17.258  0.00  0.00    +0.000 HD
ATOM     14  H   UNL     1      -4.948  13.479  16.988  0.00  0.00    +0.000 HD
ATOM     15  H   UNL     1      -2.929  12.551  16.627  0.00  0.00    +0.000 HD
ENDBRANCH   2  11
ENDBRANCH   1   5
BRANCH   1  16
ATOM     16  C   UNL     1       1.762   8.303  19.962  0.00  0.00    +0.000 C 
ATOM     17  O   UNL     1       1.602   8.434  21.172  0.00  0.00    +0.000 OA
BRANCH  16  18
ATOM     18  C   UNL     1       2.359   7.077  19.388  0.00  0.00    +0.000 A 
ATOM     19  C   UNL     1       3.173   7.266  18.337  0.00  0.00    +0.000 A 
ATOM     20  C   UNL     1       3.759   6.139  17.644  0.00  0.00    +0.000 A 
ATOM     21  C   UNL     1       4.736   6.306  16.663  0.00  0.00    +0.000 A 
ATOM     22  C   UNL     1       5.249   5.195  15.975  0.00  0.00    +0.000 A 
ATOM     23  C   UNL     1       4.710   3.924  16.238  0.00  0.00    +0.000 A 
ATOM     24  C   UNL     1       3.740   3.753  17.231  0.00  0.00    +0.000 A 
ATOM     25  C   UNL     1       3.301   4.865  17.946  0.00  0.00    +0.000 A 
ATOM     26  O   UNL     1       2.419   4.666  19.026  0.00  0.00    +0.000 OA
ATOM     27  C   UNL     1       2.087   5.713  19.888  0.00  0.00    +0.000 A 
ATOM     28  O   UNL     1       1.595   5.497  20.988  0.00  0.00    +0.000 OA
BRANCH  22  29
ATOM     29  C   UNL     1       6.357   5.378  14.973  0.00  0.00    +0.000 C 
ATOM     30 CL   UNL     1       6.498   3.957  13.925  0.00  0.00    +0.000 Cl
ENDBRANCH  22  29
ENDBRANCH  16  18
ENDBRANCH   1  16
TORSDOF 5
ENDMDL
MODEL 9
REMARK VINA RESULT:      -7.9      3.764      6.397
REMARK  Name = 
REMARK  5 active torsions:
REMARK  status: ('A' for Active; 'I' for Inactive)
REMARK    1  A    between atoms: N_4  and  C_5
REMARK    2  A    between atoms: C_8  and  O_9
REMARK    3  A    between atoms: O_9  and  C_10
REMARK    4  A    between atoms: C_10  and  C_12
REMARK    5  A    between atoms: C_16  and  C_17
REMARK                            x       y       z     vdW  Elec       q    Type
REMARK                         _______ _______ _______ _____ _____    ______ ____
ROOT
ATOM      1  O   UNL     1      -0.247   9.515  17.576  0.00  0.00    +0.000 OA
ENDROOT
BRANCH   1   5
ATOM      2  C   UNL     1      -3.932  11.597  17.438  0.00  0.00    +0.000 A 
ATOM      3  C   UNL     1      -3.514  10.727  16.417  0.00  0.00    +0.000 A 
ATOM      4  C   UNL     1      -2.324   9.995  16.525  0.00  0.00    +0.000 A 
ATOM      5  C   UNL     1      -1.519  10.139  17.655  0.00  0.00    +0.000 A 
ATOM      6  C   UNL     1      -1.953  10.934  18.710  0.00  0.00    +0.000 A 
ATOM      7  C   UNL     1      -3.142  11.664  18.590  0.00  0.00    +0.000 A 
BRANCH   2  11
ATOM      8  N   UNL     1      -6.791  10.931  18.110  0.00  0.00    +0.000 NA
ATOM      9  C   UNL     1      -6.381  12.035  17.591  0.00  0.00    +0.000 C 
ATOM     10  N   UNL     1      -7.263  13.022  17.298  0.00  0.00    +0.000 N 
ATOM     11  N   UNL     1      -5.100  12.365  17.256  0.00  0.00    +0.000 N 
ATOM     12  H   UNL     1      -7.801  10.938  18.212  0.00  0.00    +0.000 HD
ATOM     13  H   UNL     1      -8.168  12.917  17.742  0.00  0.00    +0.000 HD
ATOM     14  H   UNL     1      -6.905  13.959  17.440  0.00  0.00    +0.000 HD
ATOM     15  H   UNL     1      -5.006  13.106  16.583  0.00  0.00    +0.000 HD
ENDBRANCH   2  11
ENDBRANCH   1   5
BRANCH   1  16
ATOM     16  C   UNL     1       0.845   9.926  18.325  0.00  0.00    +0.000 C 
ATOM     17  O   UNL     1       1.185  11.084  18.549  0.00  0.00    +0.000 OA
BRANCH  16  18
ATOM     18  C   UNL     1       1.695   8.780  18.715  0.00  0.00    +0.000 A 
ATOM     19  C   UNL     1       2.536   8.334  17.769  0.00  0.00    +0.000 A 
ATOM     20  C   UNL     1       3.366   7.173  18.005  0.00  0.00    +0.000 A 
ATOM     21  C   UNL     1       4.367   6.789  17.113  0.00  0.00    +0.000 A 
ATOM     22  C   UNL     1       5.122   5.629  17.348  0.00  0.00    +0.000 A 
ATOM     23  C   UNL     1       4.804   4.823  18.454  0.00  0.00    +0.000 A 
ATOM     24  C   UNL     1       3.810   5.213  19.357  0.00  0.00    +0.000 A 
ATOM     25  C   UNL     1       3.126   6.406  19.136  0.00  0.00    +0.000 A 
ATOM     26  O   UNL     1       2.217   6.852  20.116  0.00  0.00    +0.000 OA
ATOM     27  C   UNL     1       1.639   8.121  20.037  0.00  0.00    +0.000 A 
ATOM     28  O   UNL     1       1.113   8.640  21.013  0.00  0.00    +0.000 OA
BRANCH  22  29
ATOM     29  C   UNL     1       6.249   5.266  16.419  0.00  0.00    +0.000 C 
ATOM     30 CL   UNL     1       5.715   4.083  15.214  0.00  0.00    +0.000 Cl
ENDBRANCH  22  29
ENDBRANCH  16  18
ENDBRANCH   1  16
TORSDOF 5
ENDMDL
