MODEL 1
REMARK VINA RESULT:      -7.0      0.000      0.000
REMARK  Name = 
REMARK  1 active torsions:
REMARK  status: ('A' for Active; 'I' for Inactive)
REMARK    1  A    between atoms: C_4  and  C_5
REMARK                            x       y       z     vdW  Elec       q    Type
REMARK                         _______ _______ _______ _____ _____    ______ ____
ROOT
ATOM      1  C   UNL     1      -6.552  12.301  20.433  0.00  0.00    +0.000 A 
ATOM      2  C   UNL     1      -7.412  11.559  19.650  0.00  0.00    +0.000 A 
ATOM      3  S   UNL     1      -6.623  11.119  18.185  0.00  0.00    +0.000 S 
ATOM      4  C   UNL     1      -5.181  11.911  18.715  0.00  0.00    +0.000 A 
ATOM      5  N   UNL     1      -4.028  11.830  18.002  0.00  0.00    +0.000 N 
ATOM      6  C   UNL     1      -2.783  11.906  18.554  0.00  0.00    +0.000 A 
ATOM      7  N   UNL     1      -1.764  11.224  18.072  0.00  0.00    +0.000 NA
ATOM      8  C   UNL     1      -0.867  10.973  19.100  0.00  0.00    +0.000 A 
ATOM      9  C   UNL     1       0.157  10.006  19.067  0.00  0.00    +0.000 A 
ATOM     10  C   UNL     1       0.684   9.643  20.291  0.00  0.00    +0.000 A 
ATOM     11  C   UNL     1       0.371  10.299  21.460  0.00  0.00    +0.000 A 
ATOM     12  C   UNL     1      -0.464  11.393  21.500  0.00  0.00    +0.000 A 
ATOM     13  C   UNL     1      -1.121  11.669  20.291  0.00  0.00    +0.000 A 
ATOM     14  S   UNL     1      -2.369  12.803  19.979  0.00  0.00    +0.000 S 
ATOM     15  O   UNL     1       0.923   9.696  22.551  0.00  0.00    +0.000 OA
ATOM     16  C   UNL     1       1.465   8.502  21.949  0.00  0.00    +0.000 C 
ATOM     17  O   UNL     1       1.482   8.560  20.508  0.00  0.00    +0.000 OA
ATOM     18  N   UNL     1      -5.309  12.516  19.871  0.00  0.00    +0.000 NA
ATOM     19  H   UNL     1      -4.061  11.200  17.210  0.00  0.00    +0.000 HD
ENDROOT
BRANCH   1  23
ATOM     20  C   UNL     1      -7.372  13.777  24.282  0.00  0.00    +0.000 A 
ATOM     21  C   UNL     1      -6.919  14.655  23.313  0.00  0.00    +0.000 A 
ATOM     22  C   UNL     1      -6.656  14.172  22.037  0.00  0.00    +0.000 A 
ATOM     23  C   UNL     1      -6.854  12.816  21.767  0.00  0.00    +0.000 A 
ATOM     24  N   UNL     1      -7.298  11.942  22.702  0.00  0.00    +0.000 NA
ATOM     25  C   UNL     1      -7.544  12.445  23.934  0.00  0.00    +0.000 A 
ENDBRANCH   1  23
TORSDOF 1
ENDMDL
MODEL 2
REMARK VINA RESULT:      -6.6      4.938      6.083
REMARK  Name = 
REMARK  1 active torsions:
REMARK  status: ('A' for Active; 'I' for Inactive)
REMARK    1  A    between atoms: C_4  and  C_5
REMARK                            x       y       z     vdW  Elec       q    Type
REMARK                         _______ _______ _______ _____ _____    ______ ____
ROOT
ATOM      1  C   UNL     1      -0.946  11.410  22.381  0.00  0.00    +0.000 A 
ATOM      2  C   UNL     1      -0.444  10.219  22.865  0.00  0.00    +0.000 A 
ATOM      3  S   UNL     1       0.611   9.520  21.699  0.00  0.00    +0.000 S 
ATOM      4  C   UNL     1       0.358  10.871  20.650  0.00  0.00    +0.000 A 
ATOM      5  N   UNL     1       1.060  11.010  19.495  0.00  0.00    +0.000 N 
ATOM      6  C   UNL     1       1.357  12.213  18.924  0.00  0.00    +0.000 A 
ATOM      7  N   UNL     1       2.482  12.414  18.270  0.00  0.00    +0.000 NA
ATOM      8  C   UNL     1       2.817  13.757  18.355  0.00  0.00    +0.000 A 
ATOM      9  C   UNL     1       4.089  14.298  18.084  0.00  0.00    +0.000 A 
ATOM     10  C   UNL     1       4.327  15.563  18.585  0.00  0.00    +0.000 A 
ATOM     11  C   UNL     1       3.343  16.333  19.160  0.00  0.00    +0.000 A 
ATOM     12  C   UNL     1       2.031  15.922  19.249  0.00  0.00    +0.000 A 
ATOM     13  C   UNL     1       1.814  14.584  18.884  0.00  0.00    +0.000 A 
ATOM     14  S   UNL     1       0.387  13.645  19.037  0.00  0.00    +0.000 S 
ATOM     15  O   UNL     1       3.835  17.493  19.680  0.00  0.00    +0.000 OA
ATOM     16  C   UNL     1       5.252  17.276  19.519  0.00  0.00    +0.000 C 
ATOM     17  O   UNL     1       5.553  16.154  18.663  0.00  0.00    +0.000 OA
ATOM     18  N   UNL     1      -0.505  11.741  21.114  0.00  0.00    +0.000 NA
ATOM     19  H   UNL     1       1.794  10.327  19.359  0.00  0.00    +0.000 HD
ENDROOT
BRANCH   1  23
ATOM     20  C   UNL     1      -3.499  13.980  24.510  0.00  0.00    +0.000 A 
ATOM     21  C   UNL     1      -2.258  14.449  24.114  0.00  0.00    +0.000 A 
ATOM     22  C   UNL     1      -1.415  13.605  23.402  0.00  0.00    +0.000 A 
ATOM     23  C   UNL     1      -1.841  12.308  23.106  0.00  0.00    +0.000 A 
ATOM     24  N   UNL     1      -3.052  11.832  23.484  0.00  0.00    +0.000 NA
ATOM     25  C   UNL     1      -3.847  12.680  24.177  0.00  0.00    +0.000 A 
ENDBRANCH   1  23
TORSDOF 1
ENDMDL
MODEL 3
REMARK VINA RESULT:      -6.4      5.144      6.292
REMARK  Name = 
REMARK  1 active torsions:
REMARK  status: ('A' for Active; 'I' for Inactive)
REMARK    1  A    between atoms: C_4  and  C_5
REMARK                            x       y       z     vdW  Elec       q    Type
REMARK                         _______ _______ _______ _____ _____    ______ ____
ROOT
ATOM      1  C   UNL     1      -0.827  11.642  22.301  0.00  0.00    +0.000 A 
ATOM      2  C   UNL     1      -0.371  10.413  22.732  0.00  0.00    +0.000 A 
ATOM      3  S   UNL     1       0.640   9.717  21.526  0.00  0.00    +0.000 S 
ATOM      4  C   UNL     1       0.434  11.119  20.534  0.00  0.00    +0.000 A 
ATOM      5  N   UNL     1       1.129  11.274  19.377  0.00  0.00    +0.000 N 
ATOM      6  C   UNL     1       1.471  12.484  18.851  0.00  0.00    +0.000 A 
ATOM      7  N   UNL     1       2.596  12.664  18.190  0.00  0.00    +0.000 NA
ATOM      8  C   UNL     1       2.989  13.987  18.325  0.00  0.00    +0.000 A 
ATOM      9  C   UNL     1       4.280  14.485  18.059  0.00  0.00    +0.000 A 
ATOM     10  C   UNL     1       4.578  15.717  18.607  0.00  0.00    +0.000 A 
ATOM     11  C   UNL     1       3.633  16.504  19.224  0.00  0.00    +0.000 A 
ATOM     12  C   UNL     1       2.306  16.146  19.313  0.00  0.00    +0.000 A 
ATOM     13  C   UNL     1       2.029  14.834  18.898  0.00  0.00    +0.000 A 
ATOM     14  S   UNL     1       0.564  13.950  19.031  0.00  0.00    +0.000 S 
ATOM     15  O   UNL     1       4.180  17.621  19.783  0.00  0.00    +0.000 OA
ATOM     16  C   UNL     1       5.585  17.350  19.596  0.00  0.00    +0.000 C 
ATOM     17  O   UNL     1       5.828  16.252  18.692  0.00  0.00    +0.000 OA
ATOM     18  N   UNL     1      -0.386  12.005  21.043  0.00  0.00    +0.000 NA
ATOM     19  H   UNL     1       1.831  10.566  19.206  0.00  0.00    +0.000 HD
ENDROOT
BRANCH   1  23
ATOM     20  C   UNL     1      -3.286  14.266  24.476  0.00  0.00    +0.000 A 
ATOM     21  C   UNL     1      -3.799  13.041  24.083  0.00  0.00    +0.000 A 
ATOM     22  C   UNL     1      -2.986  12.168  23.371  0.00  0.00    +0.000 A 
ATOM     23  C   UNL     1      -1.675  12.548  23.072  0.00  0.00    +0.000 A 
ATOM     24  N   UNL     1      -1.156  13.741  23.450  0.00  0.00    +0.000 NA
ATOM     25  C   UNL     1      -1.975  14.568  24.140  0.00  0.00    +0.000 A 
ENDBRANCH   1  23
TORSDOF 1
ENDMDL
MODEL 4
REMARK VINA RESULT:      -6.3      4.152      8.115
REMARK  Name = 
REMARK  1 active torsions:
REMARK  status: ('A' for Active; 'I' for Inactive)
REMARK    1  A    between atoms: C_4  and  C_5
REMARK                            x       y       z     vdW  Elec       q    Type
REMARK                         _______ _______ _______ _____ _____    ______ ____
ROOT
ATOM      1  C   UNL     1       0.757  11.455  21.264  0.00  0.00    +0.000 A 
ATOM      2  C   UNL     1       0.893  10.088  21.394  0.00  0.00    +0.000 A 
ATOM      3  S   UNL     1      -0.277   9.496  22.509  0.00  0.00    +0.000 S 
ATOM      4  C   UNL     1      -0.907  11.093  22.707  0.00  0.00    +0.000 A 
ATOM      5  N   UNL     1      -2.028  11.325  23.439  0.00  0.00    +0.000 N 
ATOM      6  C   UNL     1      -2.888  12.358  23.210  0.00  0.00    +0.000 A 
ATOM      7  N   UNL     1      -4.184  12.243  23.412  0.00  0.00    +0.000 NA
ATOM      8  C   UNL     1      -4.850  13.112  22.560  0.00  0.00    +0.000 A 
ATOM      9  C   UNL     1      -6.220  13.046  22.237  0.00  0.00    +0.000 A 
ATOM     10  C   UNL     1      -6.607  13.735  21.104  0.00  0.00    +0.000 A 
ATOM     11  C   UNL     1      -5.763  14.582  20.424  0.00  0.00    +0.000 A 
ATOM     12  C   UNL     1      -4.475  14.841  20.836  0.00  0.00    +0.000 A 
ATOM     13  C   UNL     1      -4.027  14.030  21.891  0.00  0.00    +0.000 A 
ATOM     14  S   UNL     1      -2.451  13.902  22.556  0.00  0.00    +0.000 S 
ATOM     15  O   UNL     1      -6.328  15.062  19.280  0.00  0.00    +0.000 OA
ATOM     16  C   UNL     1      -7.543  14.285  19.238  0.00  0.00    +0.000 C 
ATOM     17  O   UNL     1      -7.808  13.592  20.476  0.00  0.00    +0.000 OA
ATOM     18  N   UNL     1      -0.244  12.005  22.039  0.00  0.00    +0.000 NA
ATOM     19  H   UNL     1      -2.503  10.492  23.764  0.00  0.00    +0.000 HD
ENDROOT
BRANCH   1  23
ATOM     20  C   UNL     1       3.067  13.859  18.705  0.00  0.00    +0.000 A 
ATOM     21  C   UNL     1       2.309  12.838  18.158  0.00  0.00    +0.000 A 
ATOM     22  C   UNL     1       1.537  12.047  19.000  0.00  0.00    +0.000 A 
ATOM     23  C   UNL     1       1.547  12.302  20.373  0.00  0.00    +0.000 A 
ATOM     24  N   UNL     1       2.282  13.297  20.927  0.00  0.00    +0.000 NA
ATOM     25  C   UNL     1       3.023  14.048  20.078  0.00  0.00    +0.000 A 
ENDBRANCH   1  23
TORSDOF 1
ENDMDL
MODEL 5
REMARK VINA RESULT:      -6.2      6.210      8.112
REMARK  Name = 
REMARK  1 active torsions:
REMARK  status: ('A' for Active; 'I' for Inactive)
REMARK    1  A    between atoms: C_4  and  C_5
REMARK                            x       y       z     vdW  Elec       q    Type
REMARK                         _______ _______ _______ _____ _____    ______ ____
ROOT
ATOM      1  C   UNL     1       0.944  10.837  20.625  0.00  0.00    +0.000 A 
ATOM      2  C   UNL     1       0.640  10.867  21.971  0.00  0.00    +0.000 A 
ATOM      3  S   UNL     1       0.449   9.259  22.555  0.00  0.00    +0.000 S 
ATOM      4  C   UNL     1       0.825   8.637  20.985  0.00  0.00    +0.000 A 
ATOM      5  N   UNL     1       0.971   7.303  20.771  0.00  0.00    +0.000 N 
ATOM      6  C   UNL     1       1.773   6.771  19.804  0.00  0.00    +0.000 A 
ATOM      7  N   UNL     1       2.412   5.633  19.979  0.00  0.00    +0.000 NA
ATOM      8  C   UNL     1       3.563   5.642  19.205  0.00  0.00    +0.000 A 
ATOM      9  C   UNL     1       4.661   4.774  19.369  0.00  0.00    +0.000 A 
ATOM     10  C   UNL     1       5.843   5.176  18.778  0.00  0.00    +0.000 A 
ATOM     11  C   UNL     1       5.920   6.258  17.931  0.00  0.00    +0.000 A 
ATOM     12  C   UNL     1       4.820   7.005  17.573  0.00  0.00    +0.000 A 
ATOM     13  C   UNL     1       3.652   6.699  18.287  0.00  0.00    +0.000 A 
ATOM     14  S   UNL     1       2.143   7.516  18.284  0.00  0.00    +0.000 S 
ATOM     15  O   UNL     1       7.204   6.528  17.559  0.00  0.00    +0.000 OA
ATOM     16  C   UNL     1       7.925   5.608  18.404  0.00  0.00    +0.000 C 
ATOM     17  O   UNL     1       7.067   4.630  19.028  0.00  0.00    +0.000 OA
ATOM     18  N   UNL     1       1.010   9.569  20.083  0.00  0.00    +0.000 NA
ATOM     19  H   UNL     1       0.942   6.733  21.606  0.00  0.00    +0.000 HD
ENDROOT
BRANCH   1  23
ATOM     20  C   UNL     1       1.776  14.211  18.261  0.00  0.00    +0.000 A 
ATOM     21  C   UNL     1       2.322  12.991  17.899  0.00  0.00    +0.000 A 
ATOM     22  C   UNL     1       2.041  11.872  18.674  0.00  0.00    +0.000 A 
ATOM     23  C   UNL     1       1.218  12.007  19.794  0.00  0.00    +0.000 A 
ATOM     24  N   UNL     1       0.674  13.192  20.163  0.00  0.00    +0.000 NA
ATOM     25  C   UNL     1       0.969  14.262  19.387  0.00  0.00    +0.000 A 
ENDBRANCH   1  23
TORSDOF 1
ENDMDL
MODEL 6
REMARK VINA RESULT:      -6.2      5.315     10.146
REMARK  Name = 
REMARK  1 active torsions:
REMARK  status: ('A' for Active; 'I' for Inactive)
REMARK    1  A    between atoms: C_4  and  C_5
REMARK                            x       y       z     vdW  Elec       q    Type
REMARK                         _______ _______ _______ _____ _____    ______ ____
ROOT
ATOM      1  C   UNL     1       3.267   5.413  18.825  0.00  0.00    +0.000 A 
ATOM      2  C   UNL     1       2.889   4.280  19.515  0.00  0.00    +0.000 A 
ATOM      3  S   UNL     1       1.997   4.729  20.917  0.00  0.00    +0.000 S 
ATOM      4  C   UNL     1       2.141   6.396  20.483  0.00  0.00    +0.000 A 
ATOM      5  N   UNL     1       1.494   7.366  21.181  0.00  0.00    +0.000 N 
ATOM      6  C   UNL     1       1.084   8.549  20.640  0.00  0.00    +0.000 A 
ATOM      7  N   UNL     1      -0.017   9.151  21.037  0.00  0.00    +0.000 NA
ATOM      8  C   UNL     1      -0.519   9.905  19.987  0.00  0.00    +0.000 A 
ATOM      9  C   UNL     1      -1.831  10.413  19.903  0.00  0.00    +0.000 A 
ATOM     10  C   UNL     1      -2.251  10.795  18.644  0.00  0.00    +0.000 A 
ATOM     11  C   UNL     1      -1.404  10.852  17.562  0.00  0.00    +0.000 A 
ATOM     12  C   UNL     1      -0.059  10.570  17.653  0.00  0.00    +0.000 A 
ATOM     13  C   UNL     1       0.342  10.034  18.887  0.00  0.00    +0.000 A 
ATOM     14  S   UNL     1       1.862   9.378  19.333  0.00  0.00    +0.000 S 
ATOM     15  O   UNL     1      -2.064  11.147  16.407  0.00  0.00    +0.000 OA
ATOM     16  C   UNL     1      -3.432  11.094  16.862  0.00  0.00    +0.000 C 
ATOM     17  O   UNL     1      -3.543  11.061  18.300  0.00  0.00    +0.000 OA
ATOM     18  N   UNL     1       2.862   6.598  19.408  0.00  0.00    +0.000 NA
ATOM     19  H   UNL     1       0.859   7.026  21.892  0.00  0.00    +0.000 HD
ENDROOT
BRANCH   1  23
ATOM     20  C   UNL     1       5.425   5.452  15.218  0.00  0.00    +0.000 A 
ATOM     21  C   UNL     1       5.034   4.235  15.750  0.00  0.00    +0.000 A 
ATOM     22  C   UNL     1       4.313   4.219  16.937  0.00  0.00    +0.000 A 
ATOM     23  C   UNL     1       4.002   5.429  17.562  0.00  0.00    +0.000 A 
ATOM     24  N   UNL     1       4.374   6.630  17.057  0.00  0.00    +0.000 NA
ATOM     25  C   UNL     1       5.076   6.609  15.900  0.00  0.00    +0.000 A 
ENDBRANCH   1  23
TORSDOF 1
ENDMDL
MODEL 7
REMARK VINA RESULT:      -6.2      4.251      6.419
REMARK  Name = 
REMARK  1 active torsions:
REMARK  status: ('A' for Active; 'I' for Inactive)
REMARK    1  A    between atoms: C_4  and  C_5
REMARK                            x       y       z     vdW  Elec       q    Type
REMARK                         _______ _______ _______ _____ _____    ______ ____
ROOT
ATOM      1  C   UNL     1      -3.183  11.654  18.750  0.00  0.00    +0.000 A 
ATOM      2  C   UNL     1      -4.238  12.286  19.376  0.00  0.00    +0.000 A 
ATOM      3  S   UNL     1      -3.731  12.868  20.915  0.00  0.00    +0.000 S 
ATOM      4  C   UNL     1      -2.134  12.273  20.621  0.00  0.00    +0.000 A 
ATOM      5  N   UNL     1      -1.115  12.533  21.482  0.00  0.00    +0.000 N 
ATOM      6  C   UNL     1       0.194  12.620  21.108  0.00  0.00    +0.000 A 
ATOM      7  N   UNL     1       1.032  13.449  21.695  0.00  0.00    +0.000 NA
ATOM      8  C   UNL     1       2.023  13.800  20.790  0.00  0.00    +0.000 A 
ATOM      9  C   UNL     1       2.891  14.902  20.920  0.00  0.00    +0.000 A 
ATOM     10  C   UNL     1       3.532  15.306  19.765  0.00  0.00    +0.000 A 
ATOM     11  C   UNL     1       3.479  14.585  18.594  0.00  0.00    +0.000 A 
ATOM     12  C   UNL     1       2.814  13.384  18.487  0.00  0.00    +0.000 A 
ATOM     13  C   UNL     1       2.037  13.047  19.606  0.00  0.00    +0.000 A 
ATOM     14  S   UNL     1       0.923  11.756  19.794  0.00  0.00    +0.000 S 
ATOM     15  O   UNL     1       4.092  15.234  17.563  0.00  0.00    +0.000 OA
ATOM     16  C   UNL     1       4.376  16.505  18.181  0.00  0.00    +0.000 C 
ATOM     17  O   UNL     1       4.197  16.485  19.613  0.00  0.00    +0.000 OA
ATOM     18  N   UNL     1      -2.015  11.630  19.486  0.00  0.00    +0.000 NA
ATOM     19  H   UNL     1      -1.345  13.170  22.233  0.00  0.00    +0.000 HD
ENDROOT
BRANCH   1  23
ATOM     20  C   UNL     1      -3.257  10.008  14.884  0.00  0.00    +0.000 A 
ATOM     21  C   UNL     1      -2.292   9.573  15.776  0.00  0.00    +0.000 A 
ATOM     22  C   UNL     1      -2.270  10.109  17.058  0.00  0.00    +0.000 A 
ATOM     23  C   UNL     1      -3.221  11.070  17.412  0.00  0.00    +0.000 A 
ATOM     24  N   UNL     1      -4.174  11.506  16.553  0.00  0.00    +0.000 NA
ATOM     25  C   UNL     1      -4.166  10.964  15.313  0.00  0.00    +0.000 A 
ENDBRANCH   1  23
TORSDOF 1
ENDMDL
MODEL 8
REMARK VINA RESULT:      -6.1      7.894     11.932
REMARK  Name = 
REMARK  1 active torsions:
REMARK  status: ('A' for Active; 'I' for Inactive)
REMARK    1  A    between atoms: C_4  and  C_5
REMARK                            x       y       z     vdW  Elec       q    Type
REMARK                         _______ _______ _______ _____ _____    ______ ____
ROOT
ATOM      1  C   UNL     1       8.343  14.570  20.135  0.00  0.00    +0.000 A 
ATOM      2  C   UNL     1       8.797  15.384  21.153  0.00  0.00    +0.000 A 
ATOM      3  S   UNL     1       7.955  16.885  21.110  0.00  0.00    +0.000 S 
ATOM      4  C   UNL     1       7.019  16.329  19.768  0.00  0.00    +0.000 A 
ATOM      5  N   UNL     1       5.988  17.064  19.273  0.00  0.00    +0.000 N 
ATOM      6  C   UNL     1       4.896  16.526  18.658  0.00  0.00    +0.000 A 
ATOM      7  N   UNL     1       3.699  17.064  18.768  0.00  0.00    +0.000 NA
ATOM      8  C   UNL     1       2.745  16.067  18.625  0.00  0.00    +0.000 A 
ATOM      9  C   UNL     1       1.393  16.173  19.007  0.00  0.00    +0.000 A 
ATOM     10  C   UNL     1       0.708  14.982  19.142  0.00  0.00    +0.000 A 
ATOM     11  C   UNL     1       1.239  13.771  18.761  0.00  0.00    +0.000 A 
ATOM     12  C   UNL     1       2.482  13.652  18.180  0.00  0.00    +0.000 A 
ATOM     13  C   UNL     1       3.241  14.832  18.182  0.00  0.00    +0.000 A 
ATOM     14  S   UNL     1       4.883  15.057  17.739  0.00  0.00    +0.000 S 
ATOM     15  O   UNL     1       0.427  12.727  19.092  0.00  0.00    +0.000 OA
ATOM     16  C   UNL     1      -0.578  13.408  19.870  0.00  0.00    +0.000 C 
ATOM     17  O   UNL     1      -0.507  14.844  19.744  0.00  0.00    +0.000 OA
ATOM     18  N   UNL     1       7.363  15.138  19.345  0.00  0.00    +0.000 NA
ATOM     19  H   UNL     1       5.760  17.891  19.810  0.00  0.00    +0.000 HD
ENDROOT
BRANCH   1  23
ATOM     20  C   UNL     1       9.589  10.625  19.398  0.00  0.00    +0.000 A 
ATOM     21  C   UNL     1       9.366  11.467  18.322  0.00  0.00    +0.000 A 
ATOM     22  C   UNL     1       8.963  12.774  18.563  0.00  0.00    +0.000 A 
ATOM     23  C   UNL     1       8.793  13.204  19.881  0.00  0.00    +0.000 A 
ATOM     24  N   UNL     1       9.008  12.395  20.947  0.00  0.00    +0.000 NA
ATOM     25  C   UNL     1       9.399  11.128  20.677  0.00  0.00    +0.000 A 
ENDBRANCH   1  23
TORSDOF 1
ENDMDL
MODEL 9
REMARK VINA RESULT:      -6.1      4.463      7.711
REMARK  Name = 
REMARK  1 active torsions:
REMARK  status: ('A' for Active; 'I' for Inactive)
REMARK    1  A    between atoms: C_4  and  C_5
REMARK                            x       y       z     vdW  Elec       q    Type
REMARK                         _______ _______ _______ _____ _____    ______ ____
ROOT
ATOM      1  C   UNL     1      -2.199  10.718  18.196  0.00  0.00    +0.000 A 
ATOM      2  C   UNL     1      -1.739  10.279  16.972  0.00  0.00    +0.000 A 
ATOM      3  S   UNL     1      -3.029  10.289  15.833  0.00  0.00    +0.000 S 
ATOM      4  C   UNL     1      -4.098  10.915  17.039  0.00  0.00    +0.000 A 
ATOM      5  N   UNL     1      -5.367  11.293  16.731  0.00  0.00    +0.000 N 
ATOM      6  C   UNL     1      -6.055  12.263  17.397  0.00  0.00    +0.000 A 
ATOM      7  N   UNL     1      -6.912  13.054  16.786  0.00  0.00    +0.000 NA
ATOM      8  C   UNL     1      -6.972  14.261  17.466  0.00  0.00    +0.000 A 
ATOM      9  C   UNL     1      -7.501  15.461  16.950  0.00  0.00    +0.000 A 
ATOM     10  C   UNL     1      -7.130  16.617  17.608  0.00  0.00    +0.000 A 
ATOM     11  C   UNL     1      -6.438  16.607  18.797  0.00  0.00    +0.000 A 
ATOM     12  C   UNL     1      -6.090  15.444  19.447  0.00  0.00    +0.000 A 
ATOM     13  C   UNL     1      -6.325  14.272  18.710  0.00  0.00    +0.000 A 
ATOM     14  S   UNL     1      -5.861  12.661  19.073  0.00  0.00    +0.000 S 
ATOM     15  O   UNL     1      -6.088  17.861  19.199  0.00  0.00    +0.000 OA
ATOM     16  C   UNL     1      -6.486  18.631  18.046  0.00  0.00    +0.000 C 
ATOM     17  O   UNL     1      -7.310  17.881  17.129  0.00  0.00    +0.000 OA
ATOM     18  N   UNL     1      -3.542  11.040  18.219  0.00  0.00    +0.000 NA
ATOM     19  H   UNL     1      -5.588  11.271  15.744  0.00  0.00    +0.000 HD
ENDROOT
BRANCH   1  23
ATOM     20  C   UNL     1       0.118  11.166  21.674  0.00  0.00    +0.000 A 
ATOM     21  C   UNL     1       0.406  10.125  20.809  0.00  0.00    +0.000 A 
ATOM     22  C   UNL     1      -0.352   9.979  19.654  0.00  0.00    +0.000 A 
ATOM     23  C   UNL     1      -1.383  10.885  19.397  0.00  0.00    +0.000 A 
ATOM     24  N   UNL     1      -1.679  11.912  20.231  0.00  0.00    +0.000 NA
ATOM     25  C   UNL     1      -0.922  12.024  21.347  0.00  0.00    +0.000 A 
ENDBRANCH   1  23
TORSDOF 1
ENDMDL
