MODEL 1
REMARK VINA RESULT:      -6.9      0.000      0.000
REMARK  Name = 
REMARK  2 active torsions:
REMARK  status: ('A' for Active; 'I' for Inactive)
REMARK    1  A    between atoms: N_7  and  C_8
REMARK    2  A    between atoms: C_8  and  N_9
REMARK                            x       y       z     vdW  Elec       q    Type
REMARK                         _______ _______ _______ _____ _____    ______ ____
ROOT
ATOM      1  O   UNL     1       2.933   8.296  17.855  0.00  0.00    +0.000 OA
ATOM      2  C   UNL     1       3.154   7.132  18.188  0.00  0.00    +0.000 A 
ATOM      3  C   UNL     1       2.597   6.654  19.470  0.00  0.00    +0.000 A 
ATOM      4  C   UNL     1       2.257   5.378  19.512  0.00  0.00    +0.000 A 
ATOM      5  C   UNL     1       2.568   4.550  18.334  0.00  0.00    +0.000 A 
ATOM      6  N   UNL     1       3.410   4.874  17.409  0.00  0.00    +0.000 NA
ATOM      7  N   UNL     1       3.930   6.195  17.504  0.00  0.00    +0.000 N 
ATOM      8  C   UNL     1       1.716   3.324  18.364  0.00  0.00    +0.000 C 
ATOM      9  C   UNL     1       1.381   3.203  19.857  0.00  0.00    +0.000 C 
ATOM     10  C   UNL     1       1.443   4.605  20.478  0.00  0.00    +0.000 C 
ENDROOT
BRANCH   7  11
ATOM     11  C   UNL     1       4.739   6.659  16.375  0.00  0.00    +0.000 C 
BRANCH  11  12
ATOM     12  N   UNL     1       6.196   6.580  16.543  0.00  0.00    +0.000 NA
ATOM     13  C   UNL     1       6.864   5.419  15.958  0.00  0.00    +0.000 C 
ATOM     14  C   UNL     1       6.920   4.216  16.902  0.00  0.00    +0.000 C 
ATOM     15  O   UNL     1       7.625   4.546  18.105  0.00  0.00    +0.000 OA
ATOM     16  C   UNL     1       7.028   5.658  18.789  0.00  0.00    +0.000 C 
ATOM     17  C   UNL     1       6.757   6.875  17.871  0.00  0.00    +0.000 C 
ENDBRANCH  11  12
ENDBRANCH   7  11
TORSDOF 2
ENDMDL
MODEL 2
REMARK VINA RESULT:      -6.8      1.774      2.438
REMARK  Name = 
REMARK  2 active torsions:
REMARK  status: ('A' for Active; 'I' for Inactive)
REMARK    1  A    between atoms: N_7  and  C_8
REMARK    2  A    between atoms: C_8  and  N_9
REMARK                            x       y       z     vdW  Elec       q    Type
REMARK                         _______ _______ _______ _____ _____    ______ ____
ROOT
ATOM      1  O   UNL     1       3.443   6.470  17.677  0.00  0.00    +0.000 OA
ATOM      2  C   UNL     1       3.506   5.394  18.271  0.00  0.00    +0.000 A 
ATOM      3  C   UNL     1       3.302   5.390  19.734  0.00  0.00    +0.000 A 
ATOM      4  C   UNL     1       2.730   4.310  20.234  0.00  0.00    +0.000 A 
ATOM      5  C   UNL     1       2.462   3.191  19.315  0.00  0.00    +0.000 A 
ATOM      6  N   UNL     1       3.010   3.046  18.153  0.00  0.00    +0.000 NA
ATOM      7  N   UNL     1       3.802   4.146  17.720  0.00  0.00    +0.000 N 
ATOM      8  C   UNL     1       1.423   2.304  19.920  0.00  0.00    +0.000 C 
ATOM      9  C   UNL     1       1.569   2.614  21.416  0.00  0.00    +0.000 C 
ATOM     10  C   UNL     1       2.125   4.038  21.559  0.00  0.00    +0.000 C 
ENDROOT
BRANCH   7  11
ATOM     11  C   UNL     1       4.284   4.096  16.339  0.00  0.00    +0.000 C 
BRANCH  11  12
ATOM     12  N   UNL     1       5.710   3.797  16.158  0.00  0.00    +0.000 NA
ATOM     13  C   UNL     1       6.649   4.517  17.017  0.00  0.00    +0.000 C 
ATOM     14  C   UNL     1       7.093   5.859  16.433  0.00  0.00    +0.000 C 
ATOM     15  O   UNL     1       7.737   5.675  15.166  0.00  0.00    +0.000 OA
ATOM     16  C   UNL     1       6.885   5.006  14.224  0.00  0.00    +0.000 C 
ATOM     17  C   UNL     1       6.233   3.719  14.785  0.00  0.00    +0.000 C 
ENDBRANCH  11  12
ENDBRANCH   7  11
TORSDOF 2
ENDMDL
MODEL 3
REMARK VINA RESULT:      -6.8      2.259      5.563
REMARK  Name = 
REMARK  2 active torsions:
REMARK  status: ('A' for Active; 'I' for Inactive)
REMARK    1  A    between atoms: N_7  and  C_8
REMARK    2  A    between atoms: C_8  and  N_9
REMARK                            x       y       z     vdW  Elec       q    Type
REMARK                         _______ _______ _______ _____ _____    ______ ____
ROOT
ATOM      1  O   UNL     1       6.742   5.042  19.700  0.00  0.00    +0.000 OA
ATOM      2  C   UNL     1       6.246   5.232  18.590  0.00  0.00    +0.000 A 
ATOM      3  C   UNL     1       7.134   5.671  17.494  0.00  0.00    +0.000 A 
ATOM      4  C   UNL     1       6.810   5.250  16.284  0.00  0.00    +0.000 A 
ATOM      5  C   UNL     1       5.554   4.494  16.138  0.00  0.00    +0.000 A 
ATOM      6  N   UNL     1       4.601   4.477  17.011  0.00  0.00    +0.000 NA
ATOM      7  N   UNL     1       4.898   5.125  18.242  0.00  0.00    +0.000 N 
ATOM      8  C   UNL     1       5.600   3.720  14.862  0.00  0.00    +0.000 C 
ATOM      9  C   UNL     1       6.616   4.521  14.037  0.00  0.00    +0.000 C 
ATOM     10  C   UNL     1       7.563   5.240  15.009  0.00  0.00    +0.000 C 
ENDROOT
BRANCH   7  11
ATOM     11  C   UNL     1       3.917   4.966  19.316  0.00  0.00    +0.000 C 
BRANCH  11  12
ATOM     12  N   UNL     1       3.114   3.737  19.286  0.00  0.00    +0.000 NA
ATOM     13  C   UNL     1       1.671   3.897  19.116  0.00  0.00    +0.000 C 
ATOM     14  C   UNL     1       0.925   4.079  20.439  0.00  0.00    +0.000 C 
ATOM     15  O   UNL     1       1.126   2.949  21.297  0.00  0.00    +0.000 OA
ATOM     16  C   UNL     1       2.516   2.719  21.564  0.00  0.00    +0.000 C 
ATOM     17  C   UNL     1       3.396   2.700  20.291  0.00  0.00    +0.000 C 
ENDBRANCH  11  12
ENDBRANCH   7  11
TORSDOF 2
ENDMDL
MODEL 4
REMARK VINA RESULT:      -6.7      2.207      5.531
REMARK  Name = 
REMARK  2 active torsions:
REMARK  status: ('A' for Active; 'I' for Inactive)
REMARK    1  A    between atoms: N_7  and  C_8
REMARK    2  A    between atoms: C_8  and  N_9
REMARK                            x       y       z     vdW  Elec       q    Type
REMARK                         _______ _______ _______ _____ _____    ______ ____
ROOT
ATOM      1  O   UNL     1       4.847   2.603  19.891  0.00  0.00    +0.000 OA
ATOM      2  C   UNL     1       4.862   3.526  19.076  0.00  0.00    +0.000 A 
ATOM      3  C   UNL     1       5.637   4.738  19.407  0.00  0.00    +0.000 A 
ATOM      4  C   UNL     1       6.185   5.371  18.385  0.00  0.00    +0.000 A 
ATOM      5  C   UNL     1       5.877   4.876  17.032  0.00  0.00    +0.000 A 
ATOM      6  N   UNL     1       4.890   4.093  16.742  0.00  0.00    +0.000 NA
ATOM      7  N   UNL     1       4.175   3.585  17.862  0.00  0.00    +0.000 N 
ATOM      8  C   UNL     1       6.918   5.376  16.084  0.00  0.00    +0.000 C 
ATOM      9  C   UNL     1       7.441   6.622  16.812  0.00  0.00    +0.000 C 
ATOM     10  C   UNL     1       7.222   6.425  18.318  0.00  0.00    +0.000 C 
ENDROOT
BRANCH   7  11
ATOM     11  C   UNL     1       3.173   2.555  17.583  0.00  0.00    +0.000 C 
BRANCH  11  12
ATOM     12  N   UNL     1       1.781   2.900  17.894  0.00  0.00    +0.000 NA
ATOM     13  C   UNL     1       1.452   4.324  17.955  0.00  0.00    +0.000 C 
ATOM     14  C   UNL     1       1.673   4.934  19.340  0.00  0.00    +0.000 C 
ATOM     15  O   UNL     1       0.865   4.273  20.322  0.00  0.00    +0.000 OA
ATOM     16  C   UNL     1       1.133   2.864  20.377  0.00  0.00    +0.000 C 
ATOM     17  C   UNL     1       1.116   2.178  18.990  0.00  0.00    +0.000 C 
ENDBRANCH  11  12
ENDBRANCH   7  11
TORSDOF 2
ENDMDL
MODEL 5
REMARK VINA RESULT:      -6.5      0.982      1.348
REMARK  Name = 
REMARK  2 active torsions:
REMARK  status: ('A' for Active; 'I' for Inactive)
REMARK    1  A    between atoms: N_7  and  C_8
REMARK    2  A    between atoms: C_8  and  N_9
REMARK                            x       y       z     vdW  Elec       q    Type
REMARK                         _______ _______ _______ _____ _____    ______ ____
ROOT
ATOM      1  O   UNL     1       3.569   7.506  17.514  0.00  0.00    +0.000 OA
ATOM      2  C   UNL     1       3.520   6.383  18.016  0.00  0.00    +0.000 A 
ATOM      3  C   UNL     1       2.870   6.233  19.333  0.00  0.00    +0.000 A 
ATOM      4  C   UNL     1       2.250   5.086  19.544  0.00  0.00    +0.000 A 
ATOM      5  C   UNL     1       2.366   4.047  18.507  0.00  0.00    +0.000 A 
ATOM      6  N   UNL     1       3.259   4.037  17.573  0.00  0.00    +0.000 NA
ATOM      7  N   UNL     1       4.065   5.207  17.496  0.00  0.00    +0.000 N 
ATOM      8  C   UNL     1       1.257   3.061  18.682  0.00  0.00    +0.000 C 
ATOM      9  C   UNL     1       0.904   3.236  20.165  0.00  0.00    +0.000 C 
ATOM     10  C   UNL     1       1.283   4.664  20.583  0.00  0.00    +0.000 C 
ENDROOT
BRANCH   7  11
ATOM     11  C   UNL     1       4.957   5.309  16.341  0.00  0.00    +0.000 C 
BRANCH  11  12
ATOM     12  N   UNL     1       6.395   5.202  16.618  0.00  0.00    +0.000 NA
ATOM     13  C   UNL     1       6.779   4.540  17.864  0.00  0.00    +0.000 C 
ATOM     14  C   UNL     1       6.852   5.496  19.057  0.00  0.00    +0.000 C 
ATOM     15  O   UNL     1       7.811   6.534  18.818  0.00  0.00    +0.000 OA
ATOM     16  C   UNL     1       7.509   7.280  17.631  0.00  0.00    +0.000 C 
ATOM     17  C   UNL     1       7.233   6.390  16.395  0.00  0.00    +0.000 C 
ENDBRANCH  11  12
ENDBRANCH   7  11
TORSDOF 2
ENDMDL
MODEL 6
REMARK VINA RESULT:      -6.5      2.268      2.770
REMARK  Name = 
REMARK  2 active torsions:
REMARK  status: ('A' for Active; 'I' for Inactive)
REMARK    1  A    between atoms: N_7  and  C_8
REMARK    2  A    between atoms: C_8  and  N_9
REMARK                            x       y       z     vdW  Elec       q    Type
REMARK                         _______ _______ _______ _____ _____    ______ ____
ROOT
ATOM      1  O   UNL     1       2.160   3.118  16.346  0.00  0.00    +0.000 OA
ATOM      2  C   UNL     1       2.485   3.458  17.483  0.00  0.00    +0.000 A 
ATOM      3  C   UNL     1       1.415   3.719  18.467  0.00  0.00    +0.000 A 
ATOM      4  C   UNL     1       1.702   3.428  19.723  0.00  0.00    +0.000 A 
ATOM      5  C   UNL     1       3.075   2.989  20.026  0.00  0.00    +0.000 A 
ATOM      6  N   UNL     1       4.090   3.160  19.245  0.00  0.00    +0.000 NA
ATOM      7  N   UNL     1       3.780   3.678  17.957  0.00  0.00    +0.000 N 
ATOM      8  C   UNL     1       3.077   2.272  21.336  0.00  0.00    +0.000 C 
ATOM      9  C   UNL     1       1.827   2.846  22.018  0.00  0.00    +0.000 C 
ATOM     10  C   UNL     1       0.846   3.291  20.924  0.00  0.00    +0.000 C 
ENDROOT
BRANCH   7  11
ATOM     11  C   UNL     1       4.875   3.710  16.987  0.00  0.00    +0.000 C 
BRANCH  11  12
ATOM     12  N   UNL     1       5.113   4.996  16.318  0.00  0.00    +0.000 NA
ATOM     13  C   UNL     1       5.755   4.946  15.005  0.00  0.00    +0.000 C 
ATOM     14  C   UNL     1       7.283   4.963  15.079  0.00  0.00    +0.000 C 
ATOM     15  O   UNL     1       7.747   6.152  15.731  0.00  0.00    +0.000 OA
ATOM     16  C   UNL     1       7.206   6.285  17.053  0.00  0.00    +0.000 C 
ATOM     17  C   UNL     1       5.671   6.099  17.115  0.00  0.00    +0.000 C 
ENDBRANCH  11  12
ENDBRANCH   7  11
TORSDOF 2
ENDMDL
MODEL 7
REMARK VINA RESULT:      -6.4      1.983      5.026
REMARK  Name = 
REMARK  2 active torsions:
REMARK  status: ('A' for Active; 'I' for Inactive)
REMARK    1  A    between atoms: N_7  and  C_8
REMARK    2  A    between atoms: C_8  and  N_9
REMARK                            x       y       z     vdW  Elec       q    Type
REMARK                         _______ _______ _______ _____ _____    ______ ____
ROOT
ATOM      1  O   UNL     1       2.703   7.853  17.849  0.00  0.00    +0.000 OA
ATOM      2  C   UNL     1       3.443   6.874  17.953  0.00  0.00    +0.000 A 
ATOM      3  C   UNL     1       4.581   6.756  17.019  0.00  0.00    +0.000 A 
ATOM      4  C   UNL     1       5.663   6.170  17.498  0.00  0.00    +0.000 A 
ATOM      5  C   UNL     1       5.587   5.601  18.855  0.00  0.00    +0.000 A 
ATOM      6  N   UNL     1       4.488   5.348  19.486  0.00  0.00    +0.000 NA
ATOM      7  N   UNL     1       3.305   5.807  18.843  0.00  0.00    +0.000 N 
ATOM      8  C   UNL     1       6.973   5.429  19.386  0.00  0.00    +0.000 C 
ATOM      9  C   UNL     1       7.802   5.342  18.098  0.00  0.00    +0.000 C 
ATOM     10  C   UNL     1       7.054   6.103  16.994  0.00  0.00    +0.000 C 
ENDROOT
BRANCH   7  11
ATOM     11  C   UNL     1       2.064   5.704  19.611  0.00  0.00    +0.000 C 
BRANCH  11  12
ATOM     12  N   UNL     1       1.250   4.504  19.375  0.00  0.00    +0.000 NA
ATOM     13  C   UNL     1       1.154   3.546  20.476  0.00  0.00    +0.000 C 
ATOM     14  C   UNL     1       2.276   2.507  20.470  0.00  0.00    +0.000 C 
ATOM     15  O   UNL     1       2.264   1.752  19.251  0.00  0.00    +0.000 OA
ATOM     16  C   UNL     1       2.393   2.595  18.097  0.00  0.00    +0.000 C 
ATOM     17  C   UNL     1       1.416   3.796  18.097  0.00  0.00    +0.000 C 
ENDBRANCH  11  12
ENDBRANCH   7  11
TORSDOF 2
ENDMDL
MODEL 8
REMARK VINA RESULT:      -6.4      1.107      1.207
REMARK  Name = 
REMARK  2 active torsions:
REMARK  status: ('A' for Active; 'I' for Inactive)
REMARK    1  A    between atoms: N_7  and  C_8
REMARK    2  A    between atoms: C_8  and  N_9
REMARK                            x       y       z     vdW  Elec       q    Type
REMARK                         _______ _______ _______ _____ _____    ______ ____
ROOT
ATOM      1  O   UNL     1       2.209   8.057  19.152  0.00  0.00    +0.000 OA
ATOM      2  C   UNL     1       2.509   6.864  19.119  0.00  0.00    +0.000 A 
ATOM      3  C   UNL     1       2.140   6.018  20.271  0.00  0.00    +0.000 A 
ATOM      4  C   UNL     1       1.849   4.759  19.994  0.00  0.00    +0.000 A 
ATOM      5  C   UNL     1       2.031   4.307  18.604  0.00  0.00    +0.000 A 
ATOM      6  N   UNL     1       2.735   4.928  17.715  0.00  0.00    +0.000 NA
ATOM      7  N   UNL     1       3.220   6.204  18.114  0.00  0.00    +0.000 N 
ATOM      8  C   UNL     1       1.230   3.065  18.389  0.00  0.00    +0.000 C 
ATOM      9  C   UNL     1       1.097   2.518  19.817  0.00  0.00    +0.000 C 
ATOM     10  C   UNL     1       1.194   3.699  20.794  0.00  0.00    +0.000 C 
ENDROOT
BRANCH   7  11
ATOM     11  C   UNL     1       3.859   7.012  17.075  0.00  0.00    +0.000 C 
BRANCH  11  12
ATOM     12  N   UNL     1       5.271   6.719  16.799  0.00  0.00    +0.000 NA
ATOM     13  C   UNL     1       5.568   6.033  15.542  0.00  0.00    +0.000 C 
ATOM     14  C   UNL     1       5.511   4.509  15.659  0.00  0.00    +0.000 C 
ATOM     15  O   UNL     1       6.454   4.037  16.629  0.00  0.00    +0.000 OA
ATOM     16  C   UNL     1       6.231   4.620  17.921  0.00  0.00    +0.000 C 
ATOM     17  C   UNL     1       6.088   6.161  17.888  0.00  0.00    +0.000 C 
ENDBRANCH  11  12
ENDBRANCH   7  11
TORSDOF 2
ENDMDL
MODEL 9
REMARK VINA RESULT:      -6.4      2.448      5.288
REMARK  Name = 
REMARK  2 active torsions:
REMARK  status: ('A' for Active; 'I' for Inactive)
REMARK    1  A    between atoms: N_7  and  C_8
REMARK    2  A    between atoms: C_8  and  N_9
REMARK                            x       y       z     vdW  Elec       q    Type
REMARK                         _______ _______ _______ _____ _____    ______ ____
ROOT
ATOM      1  O   UNL     1       2.787   5.578  20.110  0.00  0.00    +0.000 OA
ATOM      2  C   UNL     1       3.728   5.288  19.371  0.00  0.00    +0.000 A 
ATOM      3  C   UNL     1       4.054   6.205  18.261  0.00  0.00    +0.000 A 
ATOM      4  C   UNL     1       5.331   6.280  17.930  0.00  0.00    +0.000 A 
ATOM      5  C   UNL     1       6.267   5.370  18.612  0.00  0.00    +0.000 A 
ATOM      6  N   UNL     1       5.919   4.309  19.263  0.00  0.00    +0.000 NA
ATOM      7  N   UNL     1       4.516   4.137  19.428  0.00  0.00    +0.000 N 
ATOM      8  C   UNL     1       7.654   5.908  18.474  0.00  0.00    +0.000 C 
ATOM      9  C   UNL     1       7.536   6.781  17.217  0.00  0.00    +0.000 C 
ATOM     10  C   UNL     1       6.078   7.244  17.090  0.00  0.00    +0.000 C 
ENDROOT
BRANCH   7  11
ATOM     11  C   UNL     1       4.093   3.052  20.315  0.00  0.00    +0.000 C 
BRANCH  11  12
ATOM     12  N   UNL     1       3.135   2.090  19.755  0.00  0.00    +0.000 NA
ATOM     13  C   UNL     1       3.227   1.829  18.320  0.00  0.00    +0.000 C 
ATOM     14  C   UNL     1       2.397   2.799  17.476  0.00  0.00    +0.000 C 
ATOM     15  O   UNL     1       1.010   2.723  17.831  0.00  0.00    +0.000 OA
ATOM     16  C   UNL     1       0.797   3.003  19.221  0.00  0.00    +0.000 C 
ATOM     17  C   UNL     1       1.726   2.200  20.163  0.00  0.00    +0.000 C 
ENDBRANCH  11  12
ENDBRANCH   7  11
TORSDOF 2
ENDMDL
