MODEL 1
REMARK VINA RESULT:      -8.4      0.000      0.000
REMARK  Name = 
REMARK  5 active torsions:
REMARK  status: ('A' for Active; 'I' for Inactive)
REMARK    1  A    between atoms: C_1  and  C_2
REMARK    2  A    between atoms: C_4  and  C_5
REMARK    3  A    between atoms: C_10  and  C_12
REMARK    4  A    between atoms: C_12  and  O_13
REMARK    5  A    between atoms: O_13  and  C_14
REMARK                            x       y       z     vdW  Elec       q    Type
REMARK                         _______ _______ _______ _____ _____    ______ ____
ROOT
ATOM      1  C   UNL     1       6.391   6.582  17.025  0.00  0.00    +0.000 C 
ATOM      2  C   UNL     1       7.718   6.687  17.802  0.00  0.00    +0.000 C 
ATOM      3  C   UNL     1       7.961   5.545  18.792  0.00  0.00    +0.000 C 
ATOM      4  C   UNL     1       6.735   5.278  19.656  0.00  0.00    +0.000 C 
ATOM      5  N   UNL     1       5.575   5.027  18.809  0.00  0.00    +0.000 N 
ATOM      6  C   UNL     1       4.818   3.879  19.016  0.00  0.00    +0.000 C 
ATOM      7  O   UNL     1       5.114   3.046  19.878  0.00  0.00    +0.000 OA
ATOM      8  C   UNL     1       5.217   6.132  17.914  0.00  0.00    +0.000 C 
ENDROOT
BRANCH   1  12
ATOM      9  C   UNL     1       5.804   3.489  12.944  0.00  0.00    +0.000 C 
ATOM     10  C   UNL     1       6.212   4.439  14.003  0.00  0.00    +0.000 A 
ATOM     11  C   UNL     1       5.537   5.006  15.064  0.00  0.00    +0.000 A 
ATOM     12  C   UNL     1       6.503   5.781  15.751  0.00  0.00    +0.000 A 
ATOM     13  N   UNL     1       7.687   5.740  15.121  0.00  0.00    +0.000 NA
ATOM     14  N   UNL     1       7.490   4.916  14.081  0.00  0.00    +0.000 N 
ATOM     15  H   UNL     1       8.274   4.715  13.472  0.00  0.00    +0.000 HD
ENDBRANCH   1  12
BRANCH   6  16
ATOM     16  C   UNL     1       3.626   3.624  18.094  0.00  0.00    +0.000 C 
BRANCH  16  17
ATOM     17  O   UNL     1       2.406   3.960  18.743  0.00  0.00    +0.000 OA
BRANCH  17  18
ATOM     18  C   UNL     1       2.190   5.291  18.988  0.00  0.00    +0.000 A 
ATOM     19  C   UNL     1       2.185   6.296  18.020  0.00  0.00    +0.000 A 
ATOM     20  C   UNL     1       1.983   7.623  18.400  0.00  0.00    +0.000 A 
ATOM     21  F   UNL     1       1.993   8.578  17.462  0.00  0.00    +0.000 F 
ATOM     22  C   UNL     1       1.780   7.974  19.730  0.00  0.00    +0.000 A 
ATOM     23  C   UNL     1       1.778   6.978  20.702  0.00  0.00    +0.000 A 
ATOM     24  C   UNL     1       1.985   5.650  20.328  0.00  0.00    +0.000 A 
ATOM     25  F   UNL     1       1.981   4.710  21.286  0.00  0.00    +0.000 F 
ENDBRANCH  17  18
ENDBRANCH  16  17
ENDBRANCH   6  16
TORSDOF 4
ENDMDL
MODEL 2
REMARK VINA RESULT:      -8.1      1.641      2.271
REMARK  Name = 
REMARK  5 active torsions:
REMARK  status: ('A' for Active; 'I' for Inactive)
REMARK    1  A    between atoms: C_1  and  C_2
REMARK    2  A    between atoms: C_4  and  C_5
REMARK    3  A    between atoms: C_10  and  C_12
REMARK    4  A    between atoms: C_12  and  O_13
REMARK    5  A    between atoms: O_13  and  C_14
REMARK                            x       y       z     vdW  Elec       q    Type
REMARK                         _______ _______ _______ _____ _____    ______ ____
ROOT
ATOM      1  C   UNL     1       5.909   6.057  16.200  0.00  0.00    +0.000 C 
ATOM      2  C   UNL     1       7.118   6.181  17.148  0.00  0.00    +0.000 C 
ATOM      3  C   UNL     1       7.260   5.028  18.143  0.00  0.00    +0.000 C 
ATOM      4  C   UNL     1       5.938   4.714  18.833  0.00  0.00    +0.000 C 
ATOM      5  N   UNL     1       4.908   4.449  17.836  0.00  0.00    +0.000 N 
ATOM      6  C   UNL     1       4.163   3.279  17.923  0.00  0.00    +0.000 C 
ATOM      7  O   UNL     1       4.365   2.438  18.804  0.00  0.00    +0.000 OA
ATOM      8  C   UNL     1       4.642   5.561  16.918  0.00  0.00    +0.000 C 
ENDROOT
BRANCH   1  12
ATOM      9  C   UNL     1       6.043   2.888  12.137  0.00  0.00    +0.000 C 
ATOM     10  C   UNL     1       6.233   3.902  13.199  0.00  0.00    +0.000 A 
ATOM     11  C   UNL     1       5.428   4.342  14.228  0.00  0.00    +0.000 A 
ATOM     12  C   UNL     1       6.212   5.284  14.940  0.00  0.00    +0.000 A 
ATOM     13  N   UNL     1       7.405   5.455  14.353  0.00  0.00    +0.000 NA
ATOM     14  N   UNL     1       7.399   4.603  13.316  0.00  0.00    +0.000 N 
ATOM     15  H   UNL     1       8.229   4.545  12.737  0.00  0.00    +0.000 HD
ENDBRANCH   1  12
BRANCH   6  16
ATOM     16  C   UNL     1       3.111   3.011  16.847  0.00  0.00    +0.000 C 
BRANCH  16  17
ATOM     17  O   UNL     1       1.806   3.298  17.334  0.00  0.00    +0.000 OA
BRANCH  17  18
ATOM     18  C   UNL     1       1.706   3.610  18.665  0.00  0.00    +0.000 A 
ATOM     19  C   UNL     1       1.808   4.895  19.200  0.00  0.00    +0.000 A 
ATOM     20  C   UNL     1       1.719   5.081  20.579  0.00  0.00    +0.000 A 
ATOM     21  F   UNL     1       1.831   6.318  21.078  0.00  0.00    +0.000 F 
ATOM     22  C   UNL     1       1.524   4.011  21.444  0.00  0.00    +0.000 A 
ATOM     23  C   UNL     1       1.416   2.726  20.921  0.00  0.00    +0.000 A 
ATOM     24  C   UNL     1       1.510   2.533  19.542  0.00  0.00    +0.000 A 
ATOM     25  F   UNL     1       1.404   1.284  19.064  0.00  0.00    +0.000 F 
ENDBRANCH  17  18
ENDBRANCH  16  17
ENDBRANCH   6  16
TORSDOF 4
ENDMDL
MODEL 3
REMARK VINA RESULT:      -8.0      2.176      4.095
REMARK  Name = 
REMARK  5 active torsions:
REMARK  status: ('A' for Active; 'I' for Inactive)
REMARK    1  A    between atoms: C_1  and  C_2
REMARK    2  A    between atoms: C_4  and  C_5
REMARK    3  A    between atoms: C_10  and  C_12
REMARK    4  A    between atoms: C_12  and  O_13
REMARK    5  A    between atoms: O_13  and  C_14
REMARK                            x       y       z     vdW  Elec       q    Type
REMARK                         _______ _______ _______ _____ _____    ______ ____
ROOT
ATOM      1  C   UNL     1       6.638   4.768  17.880  0.00  0.00    +0.000 C 
ATOM      2  C   UNL     1       6.609   3.996  16.546  0.00  0.00    +0.000 C 
ATOM      3  C   UNL     1       5.258   4.030  15.828  0.00  0.00    +0.000 C 
ATOM      4  C   UNL     1       4.109   3.710  16.775  0.00  0.00    +0.000 C 
ATOM      5  N   UNL     1       4.140   4.615  17.919  0.00  0.00    +0.000 N 
ATOM      6  C   UNL     1       2.993   5.324  18.256  0.00  0.00    +0.000 C 
ATOM      7  O   UNL     1       1.951   5.234  17.600  0.00  0.00    +0.000 OA
ATOM      8  C   UNL     1       5.367   4.550  18.719  0.00  0.00    +0.000 C 
ENDROOT
BRANCH   1  12
ATOM      9  C   UNL     1       8.481   9.572  18.190  0.00  0.00    +0.000 C 
ATOM     10  C   UNL     1       7.814   8.286  17.886  0.00  0.00    +0.000 A 
ATOM     11  C   UNL     1       7.993   7.003  18.360  0.00  0.00    +0.000 A 
ATOM     12  C   UNL     1       6.995   6.226  17.721  0.00  0.00    +0.000 A 
ATOM     13  N   UNL     1       6.282   6.971  16.864  0.00  0.00    +0.000 NA
ATOM     14  N   UNL     1       6.785   8.209  16.991  0.00  0.00    +0.000 N 
ATOM     15  H   UNL     1       6.369   8.954  16.444  0.00  0.00    +0.000 HD
ENDBRANCH   1  12
BRANCH   6  16
ATOM     16  C   UNL     1       3.063   6.289  19.439  0.00  0.00    +0.000 C 
BRANCH  16  17
ATOM     17  O   UNL     1       2.919   7.634  19.001  0.00  0.00    +0.000 OA
BRANCH  17  18
ATOM     18  C   UNL     1       1.869   8.340  19.528  0.00  0.00    +0.000 A 
ATOM     19  C   UNL     1       1.340   8.158  20.807  0.00  0.00    +0.000 A 
ATOM     20  C   UNL     1       0.246   8.920  21.220  0.00  0.00    +0.000 A 
ATOM     21  F   UNL     1      -0.257   8.727  22.445  0.00  0.00    +0.000 F 
ATOM     22  C   UNL     1      -0.335   9.866  20.384  0.00  0.00    +0.000 A 
ATOM     23  C   UNL     1       0.188  10.058  19.108  0.00  0.00    +0.000 A 
ATOM     24  C   UNL     1       1.279   9.296  18.689  0.00  0.00    +0.000 A 
ATOM     25  F   UNL     1       1.762   9.499  17.454  0.00  0.00    +0.000 F 
ENDBRANCH  17  18
ENDBRANCH  16  17
ENDBRANCH   6  16
TORSDOF 4
ENDMDL
MODEL 4
REMARK VINA RESULT:      -8.0      1.570      2.674
REMARK  Name = 
REMARK  5 active torsions:
REMARK  status: ('A' for Active; 'I' for Inactive)
REMARK    1  A    between atoms: C_1  and  C_2
REMARK    2  A    between atoms: C_4  and  C_5
REMARK    3  A    between atoms: C_10  and  C_12
REMARK    4  A    between atoms: C_12  and  O_13
REMARK    5  A    between atoms: O_13  and  C_14
REMARK                            x       y       z     vdW  Elec       q    Type
REMARK                         _______ _______ _______ _____ _____    ______ ____
ROOT
ATOM      1  C   UNL     1       6.018   6.023  16.203  0.00  0.00    +0.000 C 
ATOM      2  C   UNL     1       7.254   6.077  17.121  0.00  0.00    +0.000 C 
ATOM      3  C   UNL     1       7.376   4.896  18.085  0.00  0.00    +0.000 C 
ATOM      4  C   UNL     1       6.061   4.616  18.802  0.00  0.00    +0.000 C 
ATOM      5  N   UNL     1       4.996   4.416  17.827  0.00  0.00    +0.000 N 
ATOM      6  C   UNL     1       4.208   3.273  17.907  0.00  0.00    +0.000 C 
ATOM      7  O   UNL     1       4.399   2.404  18.762  0.00  0.00    +0.000 OA
ATOM      8  C   UNL     1       4.750   5.559  16.942  0.00  0.00    +0.000 C 
ENDROOT
BRANCH   1  12
ATOM      9  C   UNL     1       5.954   2.911  12.094  0.00  0.00    +0.000 C 
ATOM     10  C   UNL     1       6.194   3.911  13.159  0.00  0.00    +0.000 A 
ATOM     11  C   UNL     1       5.442   4.332  14.236  0.00  0.00    +0.000 A 
ATOM     12  C   UNL     1       6.257   5.269  14.918  0.00  0.00    +0.000 A 
ATOM     13  N   UNL     1       7.417   5.457  14.270  0.00  0.00    +0.000 NA
ATOM     14  N   UNL     1       7.361   4.619  13.224  0.00  0.00    +0.000 N 
ATOM     15  H   UNL     1       8.159   4.575  12.601  0.00  0.00    +0.000 HD
ENDBRANCH   1  12
BRANCH   6  16
ATOM     16  C   UNL     1       3.119   3.072  16.853  0.00  0.00    +0.000 C 
BRANCH  16  17
ATOM     17  O   UNL     1       1.826   3.204  17.431  0.00  0.00    +0.000 OA
BRANCH  17  18
ATOM     18  C   UNL     1       1.783   3.474  18.774  0.00  0.00    +0.000 A 
ATOM     19  C   UNL     1       1.695   2.516  19.785  0.00  0.00    +0.000 A 
ATOM     20  C   UNL     1       1.626   2.918  21.119  0.00  0.00    +0.000 A 
ATOM     21  F   UNL     1       1.531   1.988  22.076  0.00  0.00    +0.000 F 
ATOM     22  C   UNL     1       1.648   4.263  21.472  0.00  0.00    +0.000 A 
ATOM     23  C   UNL     1       1.741   5.226  20.472  0.00  0.00    +0.000 A 
ATOM     24  C   UNL     1       1.804   4.829  19.137  0.00  0.00    +0.000 A 
ATOM     25  F   UNL     1       1.890   5.778  18.192  0.00  0.00    +0.000 F 
ENDBRANCH  17  18
ENDBRANCH  16  17
ENDBRANCH   6  16
TORSDOF 4
ENDMDL
MODEL 5
REMARK VINA RESULT:      -7.9      1.984      3.599
REMARK  Name = 
REMARK  5 active torsions:
REMARK  status: ('A' for Active; 'I' for Inactive)
REMARK    1  A    between atoms: C_1  and  C_2
REMARK    2  A    between atoms: C_4  and  C_5
REMARK    3  A    between atoms: C_10  and  C_12
REMARK    4  A    between atoms: C_12  and  O_13
REMARK    5  A    between atoms: O_13  and  C_14
REMARK                            x       y       z     vdW  Elec       q    Type
REMARK                         _______ _______ _______ _____ _____    ______ ____
ROOT
ATOM      1  C   UNL     1       7.123   4.875  17.797  0.00  0.00    +0.000 C 
ATOM      2  C   UNL     1       7.102   4.190  16.417  0.00  0.00    +0.000 C 
ATOM      3  C   UNL     1       5.734   4.195  15.731  0.00  0.00    +0.000 C 
ATOM      4  C   UNL     1       4.627   3.752  16.680  0.00  0.00    +0.000 C 
ATOM      5  N   UNL     1       4.639   4.581  17.879  0.00  0.00    +0.000 N 
ATOM      6  C   UNL     1       3.463   5.202  18.287  0.00  0.00    +0.000 C 
ATOM      7  O   UNL     1       2.412   5.097  17.648  0.00  0.00    +0.000 OA
ATOM      8  C   UNL     1       5.886   4.533  18.647  0.00  0.00    +0.000 C 
ENDROOT
BRANCH   1  12
ATOM      9  C   UNL     1       8.600   9.768  18.464  0.00  0.00    +0.000 C 
ATOM     10  C   UNL     1       8.056   8.456  18.047  0.00  0.00    +0.000 A 
ATOM     11  C   UNL     1       8.269   7.169  18.493  0.00  0.00    +0.000 A 
ATOM     12  C   UNL     1       7.396   6.358  17.727  0.00  0.00    +0.000 A 
ATOM     13  N   UNL     1       6.727   7.091  16.825  0.00  0.00    +0.000 NA
ATOM     14  N   UNL     1       7.131   8.352  17.047  0.00  0.00    +0.000 N 
ATOM     15  H   UNL     1       6.725   9.091  16.485  0.00  0.00    +0.000 HD
ENDBRANCH   1  12
BRANCH   6  16
ATOM     16  C   UNL     1       3.510   6.092  19.528  0.00  0.00    +0.000 C 
BRANCH  16  17
ATOM     17  O   UNL     1       2.198   6.473  19.926  0.00  0.00    +0.000 OA
BRANCH  17  18
ATOM     18  C   UNL     1       1.848   7.780  19.704  0.00  0.00    +0.000 A 
ATOM     19  C   UNL     1       2.088   8.487  18.525  0.00  0.00    +0.000 A 
ATOM     20  C   UNL     1       1.710   9.827  18.432  0.00  0.00    +0.000 A 
ATOM     21  F   UNL     1       1.957  10.496  17.299  0.00  0.00    +0.000 F 
ATOM     22  C   UNL     1       1.092  10.481  19.491  0.00  0.00    +0.000 A 
ATOM     23  C   UNL     1       0.844   9.783  20.669  0.00  0.00    +0.000 A 
ATOM     24  C   UNL     1       1.224   8.445  20.769  0.00  0.00    +0.000 A 
ATOM     25  F   UNL     1       0.976   7.795  21.917  0.00  0.00    +0.000 F 
ENDBRANCH  17  18
ENDBRANCH  16  17
ENDBRANCH   6  16
TORSDOF 4
ENDMDL
MODEL 6
REMARK VINA RESULT:      -7.8      3.303      5.603
REMARK  Name = 
REMARK  5 active torsions:
REMARK  status: ('A' for Active; 'I' for Inactive)
REMARK    1  A    between atoms: C_1  and  C_2
REMARK    2  A    between atoms: C_4  and  C_5
REMARK    3  A    between atoms: C_10  and  C_12
REMARK    4  A    between atoms: C_12  and  O_13
REMARK    5  A    between atoms: O_13  and  C_14
REMARK                            x       y       z     vdW  Elec       q    Type
REMARK                         _______ _______ _______ _____ _____    ______ ____
ROOT
ATOM      1  C   UNL     1       1.243   3.828  19.094  0.00  0.00    +0.000 C 
ATOM      2  C   UNL     1       0.472   3.440  20.371  0.00  0.00    +0.000 C 
ATOM      3  C   UNL     1       1.358   2.952  21.519  0.00  0.00    +0.000 C 
ATOM      4  C   UNL     1       2.371   1.917  21.047  0.00  0.00    +0.000 C 
ATOM      5  N   UNL     1       3.157   2.457  19.944  0.00  0.00    +0.000 N 
ATOM      6  C   UNL     1       4.545   2.418  20.016  0.00  0.00    +0.000 C 
ATOM      7  O   UNL     1       5.138   1.965  21.000  0.00  0.00    +0.000 OA
ATOM      8  C   UNL     1       2.376   2.840  18.764  0.00  0.00    +0.000 C 
ENDROOT
BRANCH   1  12
ATOM      9  C   UNL     1       2.842   8.600  17.986  0.00  0.00    +0.000 C 
ATOM     10  C   UNL     1       2.382   7.317  18.562  0.00  0.00    +0.000 A 
ATOM     11  C   UNL     1       1.895   6.157  17.996  0.00  0.00    +0.000 A 
ATOM     12  C   UNL     1       1.695   5.267  19.080  0.00  0.00    +0.000 A 
ATOM     13  N   UNL     1       1.986   5.860  20.247  0.00  0.00    +0.000 NA
ATOM     14  N   UNL     1       2.410   7.087  19.908  0.00  0.00    +0.000 N 
ATOM     15  H   UNL     1       2.713   7.711  20.647  0.00  0.00    +0.000 HD
ENDBRANCH   1  12
BRANCH   6  16
ATOM     16  C   UNL     1       5.344   3.020  18.861  0.00  0.00    +0.000 C 
BRANCH  16  17
ATOM     17  O   UNL     1       6.217   4.041  19.329  0.00  0.00    +0.000 OA
BRANCH  17  18
ATOM     18  C   UNL     1       6.343   5.150  18.533  0.00  0.00    +0.000 A 
ATOM     19  C   UNL     1       5.451   5.522  17.527  0.00  0.00    +0.000 A 
ATOM     20  C   UNL     1       5.705   6.660  16.761  0.00  0.00    +0.000 A 
ATOM     21  F   UNL     1       4.846   6.999  15.792  0.00  0.00    +0.000 F 
ATOM     22  C   UNL     1       6.832   7.444  16.979  0.00  0.00    +0.000 A 
ATOM     23  C   UNL     1       7.726   7.083  17.983  0.00  0.00    +0.000 A 
ATOM     24  C   UNL     1       7.479   5.943  18.748  0.00  0.00    +0.000 A 
ATOM     25  F   UNL     1       8.357   5.617  19.709  0.00  0.00    +0.000 F 
ENDBRANCH  17  18
ENDBRANCH  16  17
ENDBRANCH   6  16
TORSDOF 4
ENDMDL
MODEL 7
REMARK VINA RESULT:      -7.8      2.440      4.160
REMARK  Name = 
REMARK  5 active torsions:
REMARK  status: ('A' for Active; 'I' for Inactive)
REMARK    1  A    between atoms: C_1  and  C_2
REMARK    2  A    between atoms: C_4  and  C_5
REMARK    3  A    between atoms: C_10  and  C_12
REMARK    4  A    between atoms: C_12  and  O_13
REMARK    5  A    between atoms: O_13  and  C_14
REMARK                            x       y       z     vdW  Elec       q    Type
REMARK                         _______ _______ _______ _____ _____    ______ ____
ROOT
ATOM      1  C   UNL     1       4.529   2.680  19.172  0.00  0.00    +0.000 C 
ATOM      2  C   UNL     1       3.831   1.547  18.393  0.00  0.00    +0.000 C 
ATOM      3  C   UNL     1       2.327   1.748  18.200  0.00  0.00    +0.000 C 
ATOM      4  C   UNL     1       1.640   2.143  19.502  0.00  0.00    +0.000 C 
ATOM      5  N   UNL     1       2.281   3.328  20.062  0.00  0.00    +0.000 N 
ATOM      6  C   UNL     1       1.499   4.426  20.401  0.00  0.00    +0.000 C 
ATOM      7  O   UNL     1       0.279   4.444  20.217  0.00  0.00    +0.000 OA
ATOM      8  C   UNL     1       3.703   3.166  20.377  0.00  0.00    +0.000 C 
ENDROOT
BRANCH   1  12
ATOM      9  C   UNL     1       5.273   6.317  15.596  0.00  0.00    +0.000 C 
ATOM     10  C   UNL     1       5.288   5.368  16.732  0.00  0.00    +0.000 A 
ATOM     11  C   UNL     1       4.360   4.471  17.217  0.00  0.00    +0.000 A 
ATOM     12  C   UNL     1       5.004   3.809  18.291  0.00  0.00    +0.000 A 
ATOM     13  N   UNL     1       6.233   4.306  18.493  0.00  0.00    +0.000 NA
ATOM     14  N   UNL     1       6.386   5.232  17.534  0.00  0.00    +0.000 N 
ATOM     15  H   UNL     1       7.270   5.726  17.480  0.00  0.00    +0.000 HD
ENDBRANCH   1  12
BRANCH   6  16
ATOM     16  C   UNL     1       2.199   5.666  20.956  0.00  0.00    +0.000 C 
BRANCH  16  17
ATOM     17  O   UNL     1       2.676   6.491  19.900  0.00  0.00    +0.000 OA
BRANCH  17  18
ATOM     18  C   UNL     1       2.020   7.680  19.710  0.00  0.00    +0.000 A 
ATOM     19  C   UNL     1       1.235   8.326  20.666  0.00  0.00    +0.000 A 
ATOM     20  C   UNL     1       0.592   9.521  20.342  0.00  0.00    +0.000 A 
ATOM     21  F   UNL     1      -0.168  10.123  21.266  0.00  0.00    +0.000 F 
ATOM     22  C   UNL     1       0.717  10.093  19.082  0.00  0.00    +0.000 A 
ATOM     23  C   UNL     1       1.502   9.460  18.123  0.00  0.00    +0.000 A 
ATOM     24  C   UNL     1       2.143   8.262  18.440  0.00  0.00    +0.000 A 
ATOM     25  F   UNL     1       2.892   7.670  17.498  0.00  0.00    +0.000 F 
ENDBRANCH  17  18
ENDBRANCH  16  17
ENDBRANCH   6  16
TORSDOF 4
ENDMDL
MODEL 8
REMARK VINA RESULT:      -7.7      5.456      8.351
REMARK  Name = 
REMARK  5 active torsions:
REMARK  status: ('A' for Active; 'I' for Inactive)
REMARK    1  A    between atoms: C_1  and  C_2
REMARK    2  A    between atoms: C_4  and  C_5
REMARK    3  A    between atoms: C_10  and  C_12
REMARK    4  A    between atoms: C_12  and  O_13
REMARK    5  A    between atoms: O_13  and  C_14
REMARK                            x       y       z     vdW  Elec       q    Type
REMARK                         _______ _______ _______ _____ _____    ______ ____
ROOT
ATOM      1  C   UNL     1      -2.002  11.204  19.291  0.00  0.00    +0.000 C 
ATOM      2  C   UNL     1      -1.892  12.680  19.720  0.00  0.00    +0.000 C 
ATOM      3  C   UNL     1      -0.573  13.352  19.333  0.00  0.00    +0.000 C 
ATOM      4  C   UNL     1       0.628  12.490  19.701  0.00  0.00    +0.000 C 
ATOM      5  N   UNL     1       0.493  11.168  19.101  0.00  0.00    +0.000 N 
ATOM      6  C   UNL     1       1.538  10.659  18.338  0.00  0.00    +0.000 C 
ATOM      7  O   UNL     1       2.570  11.303  18.127  0.00  0.00    +0.000 OA
ATOM      8  C   UNL     1      -0.697  10.421  19.520  0.00  0.00    +0.000 C 
ENDROOT
BRANCH   1  12
ATOM      9  C   UNL     1      -3.014  10.019  14.378  0.00  0.00    +0.000 C 
ATOM     10  C   UNL     1      -2.963  10.489  15.781  0.00  0.00    +0.000 A 
ATOM     11  C   UNL     1      -2.130  10.190  16.839  0.00  0.00    +0.000 A 
ATOM     12  C   UNL     1      -2.560  11.023  17.901  0.00  0.00    +0.000 A 
ATOM     13  N   UNL     1      -3.627  11.750  17.538  0.00  0.00    +0.000 NA
ATOM     14  N   UNL     1      -3.842  11.421  16.255  0.00  0.00    +0.000 N 
ATOM     15  H   UNL     1      -4.598  11.880  15.762  0.00  0.00    +0.000 HD
ENDBRANCH   1  12
BRANCH   6  16
ATOM     16  C   UNL     1       1.359   9.285  17.693  0.00  0.00    +0.000 C 
BRANCH  16  17
ATOM     17  O   UNL     1       2.620   8.679  17.435  0.00  0.00    +0.000 OA
BRANCH  17  18
ATOM     18  C   UNL     1       2.885   7.513  18.104  0.00  0.00    +0.000 A 
ATOM     19  C   UNL     1       2.274   7.110  19.293  0.00  0.00    +0.000 A 
ATOM     20  C   UNL     1       2.653   5.911  19.895  0.00  0.00    +0.000 A 
ATOM     21  F   UNL     1       2.066   5.544  21.041  0.00  0.00    +0.000 F 
ATOM     22  C   UNL     1       3.629   5.095  19.335  0.00  0.00    +0.000 A 
ATOM     23  C   UNL     1       4.241   5.484  18.148  0.00  0.00    +0.000 A 
ATOM     24  C   UNL     1       3.869   6.686  17.544  0.00  0.00    +0.000 A 
ATOM     25  F   UNL     1       4.476   7.039  16.401  0.00  0.00    +0.000 F 
ENDBRANCH  17  18
ENDBRANCH  16  17
ENDBRANCH   6  16
TORSDOF 4
ENDMDL
MODEL 9
REMARK VINA RESULT:      -7.5      2.487      4.052
REMARK  Name = 
REMARK  5 active torsions:
REMARK  status: ('A' for Active; 'I' for Inactive)
REMARK    1  A    between atoms: C_1  and  C_2
REMARK    2  A    between atoms: C_4  and  C_5
REMARK    3  A    between atoms: C_10  and  C_12
REMARK    4  A    between atoms: C_12  and  O_13
REMARK    5  A    between atoms: O_13  and  C_14
REMARK                            x       y       z     vdW  Elec       q    Type
REMARK                         _______ _______ _______ _____ _____    ______ ____
ROOT
ATOM      1  C   UNL     1       4.385   2.528  19.143  0.00  0.00    +0.000 C 
ATOM      2  C   UNL     1       3.599   1.452  18.370  0.00  0.00    +0.000 C 
ATOM      3  C   UNL     1       2.103   1.743  18.230  0.00  0.00    +0.000 C 
ATOM      4  C   UNL     1       1.483   2.154  19.559  0.00  0.00    +0.000 C 
ATOM      5  N   UNL     1       2.208   3.289  20.116  0.00  0.00    +0.000 N 
ATOM      6  C   UNL     1       1.503   4.425  20.498  0.00  0.00    +0.000 C 
ATOM      7  O   UNL     1       0.281   4.517  20.354  0.00  0.00    +0.000 OA
ATOM      8  C   UNL     1       3.628   3.040  20.382  0.00  0.00    +0.000 C 
ENDROOT
BRANCH   1  12
ATOM      9  C   UNL     1       5.394   5.987  15.457  0.00  0.00    +0.000 C 
ATOM     10  C   UNL     1       5.301   5.121  16.654  0.00  0.00    +0.000 A 
ATOM     11  C   UNL     1       4.391   4.162  17.048  0.00  0.00    +0.000 A 
ATOM     12  C   UNL     1       4.898   3.643  18.265  0.00  0.00    +0.000 A 
ATOM     13  N   UNL     1       6.020   4.282  18.628  0.00  0.00    +0.000 NA
ATOM     14  N   UNL     1       6.249   5.156  17.637  0.00  0.00    +0.000 N 
ATOM     15  H   UNL     1       7.077   5.737  17.691  0.00  0.00    +0.000 HD
ENDBRANCH   1  12
BRANCH   6  16
ATOM     16  C   UNL     1       2.292   5.613  21.049  0.00  0.00    +0.000 C 
BRANCH  16  17
ATOM     17  O   UNL     1       1.504   6.797  21.024  0.00  0.00    +0.000 OA
BRANCH  17  18
ATOM     18  C   UNL     1       1.695   7.636  19.957  0.00  0.00    +0.000 A 
ATOM     19  C   UNL     1       2.476   7.346  18.837  0.00  0.00    +0.000 A 
ATOM     20  C   UNL     1       2.618   8.297  17.826  0.00  0.00    +0.000 A 
ATOM     21  F   UNL     1       3.380   8.010  16.764  0.00  0.00    +0.000 F 
ATOM     22  C   UNL     1       1.993   9.536  17.904  0.00  0.00    +0.000 A 
ATOM     23  C   UNL     1       1.207   9.833  19.014  0.00  0.00    +0.000 A 
ATOM     24  C   UNL     1       1.066   8.887  20.030  0.00  0.00    +0.000 A 
ATOM     25  F   UNL     1       0.306   9.199  21.090  0.00  0.00    +0.000 F 
ENDBRANCH  17  18
ENDBRANCH  16  17
ENDBRANCH   6  16
TORSDOF 4
ENDMDL
