MODEL 1
REMARK VINA RESULT:      -7.0      0.000      0.000
REMARK  Name = 
REMARK  3 active torsions:
REMARK  status: ('A' for Active; 'I' for Inactive)
REMARK    1  A    between atoms: N_1  and  C_2
REMARK    2  A    between atoms: N_7  and  C_8
REMARK    3  A    between atoms: C_12  and  O_13
REMARK                            x       y       z     vdW  Elec       q    Type
REMARK                         _______ _______ _______ _____ _____    ______ ____
ROOT
ATOM      1  C   UNL     1       7.108   6.745  17.707  0.00  0.00    +0.000 A 
ATOM      2  N   UNL     1       7.811   6.281  18.750  0.00  0.00    +0.000 NA
ATOM      3  C   UNL     1       7.203   5.356  19.506  0.00  0.00    +0.000 A 
ATOM      4  N   UNL     1       5.977   4.844  19.309  0.00  0.00    +0.000 NA
ATOM      5  C   UNL     1       5.275   5.345  18.277  0.00  0.00    +0.000 A 
ATOM      6  N   UNL     1       3.991   4.848  18.021  0.00  0.00    +0.000 N 
ATOM      7  C   UNL     1       5.807   6.328  17.441  0.00  0.00    +0.000 A 
ATOM      8 CL   UNL     1       4.925   6.953  16.088  0.00  0.00    +0.000 Cl
ATOM      9  H   UNL     1       3.316   5.608  18.041  0.00  0.00    +0.000 HD
ENDROOT
BRANCH   6  10
ATOM     10  C   UNL     1       3.545   3.600  18.649  0.00  0.00    +0.000 C 
ATOM     11  C   UNL     1       2.278   3.123  17.908  0.00  0.00    +0.000 C 
ATOM     12  C   UNL     1       1.421   2.129  18.684  0.00  0.00    +0.000 C 
ATOM     13  C   UNL     1       1.111   2.637  20.081  0.00  0.00    +0.000 C 
ATOM     14  C   UNL     1       2.401   2.897  20.848  0.00  0.00    +0.000 C 
ATOM     15  C   UNL     1       3.285   3.913  20.136  0.00  0.00    +0.000 C 
BRANCH  14  16
ATOM     16  O   UNL     1       2.084   3.380  22.150  0.00  0.00    +0.000 OA
ATOM     17  H   UNL     1       1.253   3.885  22.093  0.00  0.00    +0.000 HD
ENDBRANCH  14  16
ENDBRANCH   6  10
BRANCH   1  18
ATOM     18  N   UNL     1       7.751   7.720  16.937  0.00  0.00    +0.000 N 
ATOM     19  H   UNL     1       7.289   7.768  16.033  0.00  0.00    +0.000 HD
ATOM     20  H   UNL     1       7.789   8.615  17.414  0.00  0.00    +0.000 HD
ENDBRANCH   1  18
TORSDOF 3
ENDMDL
MODEL 2
REMARK VINA RESULT:      -7.0      1.806      2.202
REMARK  Name = 
REMARK  3 active torsions:
REMARK  status: ('A' for Active; 'I' for Inactive)
REMARK    1  A    between atoms: N_1  and  C_2
REMARK    2  A    between atoms: N_7  and  C_8
REMARK    3  A    between atoms: C_12  and  O_13
REMARK                            x       y       z     vdW  Elec       q    Type
REMARK                         _______ _______ _______ _____ _____    ______ ____
ROOT
ATOM      1  C   UNL     1       6.807   5.853  16.594  0.00  0.00    +0.000 A 
ATOM      2  N   UNL     1       6.266   5.507  15.418  0.00  0.00    +0.000 NA
ATOM      3  C   UNL     1       5.303   4.575  15.464  0.00  0.00    +0.000 A 
ATOM      4  N   UNL     1       4.826   3.975  16.566  0.00  0.00    +0.000 NA
ATOM      5  C   UNL     1       5.403   4.311  17.733  0.00  0.00    +0.000 A 
ATOM      6  N   UNL     1       4.944   3.719  18.916  0.00  0.00    +0.000 N 
ATOM      7  C   UNL     1       6.429   5.255  17.793  0.00  0.00    +0.000 A 
ATOM      8 CL   UNL     1       7.155   5.722  19.295  0.00  0.00    +0.000 Cl
ATOM      9  H   UNL     1       5.713   3.247  19.386  0.00  0.00    +0.000 HD
ENDROOT
BRANCH   6  10
ATOM     10  C   UNL     1       3.666   3.000  18.934  0.00  0.00    +0.000 C 
ATOM     11  C   UNL     1       2.610   3.896  18.252  0.00  0.00    +0.000 C 
ATOM     12  C   UNL     1       1.165   3.540  18.579  0.00  0.00    +0.000 C 
ATOM     13  C   UNL     1       0.946   3.434  20.077  0.00  0.00    +0.000 C 
ATOM     14  C   UNL     1       1.871   2.383  20.675  0.00  0.00    +0.000 C 
ATOM     15  C   UNL     1       3.336   2.706  20.410  0.00  0.00    +0.000 C 
BRANCH  14  16
ATOM     16  O   UNL     1       1.653   2.310  22.082  0.00  0.00    +0.000 OA
ATOM     17  H   UNL     1       0.940   2.932  22.311  0.00  0.00    +0.000 HD
ENDBRANCH  14  16
ENDBRANCH   6  10
BRANCH   1  18
ATOM     18  N   UNL     1       7.819   6.816  16.527  0.00  0.00    +0.000 N 
ATOM     19  H   UNL     1       7.410   7.687  16.199  0.00  0.00    +0.000 HD
ATOM     20  H   UNL     1       8.308   6.914  17.411  0.00  0.00    +0.000 HD
ENDBRANCH   1  18
TORSDOF 3
ENDMDL
MODEL 3
REMARK VINA RESULT:      -6.9      3.195      6.123
REMARK  Name = 
REMARK  3 active torsions:
REMARK  status: ('A' for Active; 'I' for Inactive)
REMARK    1  A    between atoms: N_1  and  C_2
REMARK    2  A    between atoms: N_7  and  C_8
REMARK    3  A    between atoms: C_12  and  O_13
REMARK                            x       y       z     vdW  Elec       q    Type
REMARK                         _______ _______ _______ _____ _____    ______ ____
ROOT
ATOM      1  C   UNL     1       1.482   3.194  19.422  0.00  0.00    +0.000 A 
ATOM      2  N   UNL     1       1.808   2.168  18.623  0.00  0.00    +0.000 NA
ATOM      3  C   UNL     1       2.918   2.324  17.887  0.00  0.00    +0.000 A 
ATOM      4  N   UNL     1       3.732   3.391  17.888  0.00  0.00    +0.000 NA
ATOM      5  C   UNL     1       3.372   4.423  18.671  0.00  0.00    +0.000 A 
ATOM      6  N   UNL     1       4.184   5.563  18.714  0.00  0.00    +0.000 N 
ATOM      7  C   UNL     1       2.222   4.372  19.461  0.00  0.00    +0.000 A 
ATOM      8 CL   UNL     1       1.769   5.681  20.500  0.00  0.00    +0.000 Cl
ATOM      9  H   UNL     1       3.643   6.382  18.450  0.00  0.00    +0.000 HD
ENDROOT
BRANCH   6  10
ATOM     10  C   UNL     1       5.549   5.516  18.179  0.00  0.00    +0.000 C 
ATOM     11  C   UNL     1       6.499   5.141  19.336  0.00  0.00    +0.000 C 
ATOM     12  C   UNL     1       7.963   5.490  19.098  0.00  0.00    +0.000 C 
ATOM     13  C   UNL     1       8.125   6.937  18.670  0.00  0.00    +0.000 C 
ATOM     14  C   UNL     1       7.330   7.206  17.400  0.00  0.00    +0.000 C 
ATOM     15  C   UNL     1       5.848   6.908  17.589  0.00  0.00    +0.000 C 
BRANCH  14  16
ATOM     16  O   UNL     1       7.491   8.572  17.025  0.00  0.00    +0.000 OA
ATOM     17  H   UNL     1       6.830   8.778  16.340  0.00  0.00    +0.000 HD
ENDBRANCH  14  16
ENDBRANCH   6  10
BRANCH   1  18
ATOM     18  N   UNL     1       0.315   3.021  20.172  0.00  0.00    +0.000 N 
ATOM     19  H   UNL     1       0.216   3.818  20.796  0.00  0.00    +0.000 HD
ATOM     20  H   UNL     1      -0.497   2.874  19.582  0.00  0.00    +0.000 HD
ENDBRANCH   1  18
TORSDOF 3
ENDMDL
MODEL 4
REMARK VINA RESULT:      -6.9      1.907      1.928
REMARK  Name = 
REMARK  3 active torsions:
REMARK  status: ('A' for Active; 'I' for Inactive)
REMARK    1  A    between atoms: N_1  and  C_2
REMARK    2  A    between atoms: N_7  and  C_8
REMARK    3  A    between atoms: C_12  and  O_13
REMARK                            x       y       z     vdW  Elec       q    Type
REMARK                         _______ _______ _______ _____ _____    ______ ____
ROOT
ATOM      1  C   UNL     1       7.096   4.897  15.699  0.00  0.00    +0.000 A 
ATOM      2  N   UNL     1       7.827   5.039  16.814  0.00  0.00    +0.000 NA
ATOM      3  C   UNL     1       7.189   4.804  17.970  0.00  0.00    +0.000 A 
ATOM      4  N   UNL     1       5.909   4.429  18.113  0.00  0.00    +0.000 NA
ATOM      5  C   UNL     1       5.183   4.323  16.986  0.00  0.00    +0.000 A 
ATOM      6  N   UNL     1       3.841   3.932  17.073  0.00  0.00    +0.000 N 
ATOM      7  C   UNL     1       5.745   4.567  15.731  0.00  0.00    +0.000 A 
ATOM      8 CL   UNL     1       4.829   4.397  14.271  0.00  0.00    +0.000 Cl
ATOM      9  H   UNL     1       3.247   4.639  16.649  0.00  0.00    +0.000 HD
ENDROOT
BRANCH   6  10
ATOM     10  C   UNL     1       3.323   3.343  18.313  0.00  0.00    +0.000 C 
ATOM     11  C   UNL     1       1.953   2.706  17.999  0.00  0.00    +0.000 C 
ATOM     12  C   UNL     1       1.069   2.464  19.216  0.00  0.00    +0.000 C 
ATOM     13  C   UNL     1       0.938   3.716  20.064  0.00  0.00    +0.000 C 
ATOM     14  C   UNL     1       2.310   4.190  20.524  0.00  0.00    +0.000 C 
ATOM     15  C   UNL     1       3.230   4.483  19.346  0.00  0.00    +0.000 C 
BRANCH  14  16
ATOM     16  O   UNL     1       2.161   5.370  21.310  0.00  0.00    +0.000 OA
ATOM     17  H   UNL     1       2.665   6.084  20.882  0.00  0.00    +0.000 HD
ENDBRANCH  14  16
ENDBRANCH   6  10
BRANCH   1  18
ATOM     18  N   UNL     1       7.772   5.159  14.503  0.00  0.00    +0.000 N 
ATOM     19  H   UNL     1       7.466   6.064  14.156  0.00  0.00    +0.000 HD
ATOM     20  H   UNL     1       8.778   5.094  14.614  0.00  0.00    +0.000 HD
ENDBRANCH   1  18
TORSDOF 3
ENDMDL
MODEL 5
REMARK VINA RESULT:      -6.7      1.972      2.363
REMARK  Name = 
REMARK  3 active torsions:
REMARK  status: ('A' for Active; 'I' for Inactive)
REMARK    1  A    between atoms: N_1  and  C_2
REMARK    2  A    between atoms: N_7  and  C_8
REMARK    3  A    between atoms: C_12  and  O_13
REMARK                            x       y       z     vdW  Elec       q    Type
REMARK                         _______ _______ _______ _____ _____    ______ ____
ROOT
ATOM      1  C   UNL     1       6.987   5.604  15.577  0.00  0.00    +0.000 A 
ATOM      2  N   UNL     1       7.413   6.473  16.504  0.00  0.00    +0.000 NA
ATOM      3  C   UNL     1       6.641   6.599  17.592  0.00  0.00    +0.000 A 
ATOM      4  N   UNL     1       5.504   5.933  17.845  0.00  0.00    +0.000 NA
ATOM      5  C   UNL     1       5.075   5.089  16.890  0.00  0.00    +0.000 A 
ATOM      6  N   UNL     1       3.895   4.365  17.100  0.00  0.00    +0.000 N 
ATOM      7  C   UNL     1       5.793   4.900  15.708  0.00  0.00    +0.000 A 
ATOM      8 CL   UNL     1       5.269   3.789  14.488  0.00  0.00    +0.000 Cl
ATOM      9  H   UNL     1       3.233   4.559  16.353  0.00  0.00    +0.000 HD
ENDROOT
BRANCH   6  10
ATOM     10  C   UNL     1       3.312   4.277  18.443  0.00  0.00    +0.000 C 
ATOM     11  C   UNL     1       4.127   3.241  19.246  0.00  0.00    +0.000 C 
ATOM     12  C   UNL     1       3.414   2.681  20.471  0.00  0.00    +0.000 C 
ATOM     13  C   UNL     1       2.027   2.173  20.121  0.00  0.00    +0.000 C 
ATOM     14  C   UNL     1       1.189   3.293  19.519  0.00  0.00    +0.000 C 
ATOM     15  C   UNL     1       1.836   3.870  18.267  0.00  0.00    +0.000 C 
BRANCH  14  16
ATOM     16  O   UNL     1      -0.103   2.790  19.191  0.00  0.00    +0.000 OA
ATOM     17  H   UNL     1      -0.283   2.020  19.760  0.00  0.00    +0.000 HD
ENDBRANCH  14  16
ENDBRANCH   6  10
BRANCH   1  18
ATOM     18  N   UNL     1       7.796   5.494  14.441  0.00  0.00    +0.000 N 
ATOM     19  H   UNL     1       7.252   5.784  13.633  0.00  0.00    +0.000 HD
ATOM     20  H   UNL     1       8.664   6.009  14.543  0.00  0.00    +0.000 HD
ENDBRANCH   1  18
TORSDOF 3
ENDMDL
MODEL 6
REMARK VINA RESULT:      -6.7      3.363      6.027
REMARK  Name = 
REMARK  3 active torsions:
REMARK  status: ('A' for Active; 'I' for Inactive)
REMARK    1  A    between atoms: N_1  and  C_2
REMARK    2  A    between atoms: N_7  and  C_8
REMARK    3  A    between atoms: C_12  and  O_13
REMARK                            x       y       z     vdW  Elec       q    Type
REMARK                         _______ _______ _______ _____ _____    ______ ____
ROOT
ATOM      1  C   UNL     1       1.734   3.061  20.072  0.00  0.00    +0.000 A 
ATOM      2  N   UNL     1       2.487   2.485  21.019  0.00  0.00    +0.000 NA
ATOM      3  C   UNL     1       3.807   2.456  20.786  0.00  0.00    +0.000 A 
ATOM      4  N   UNL     1       4.438   2.959  19.714  0.00  0.00    +0.000 NA
ATOM      5  C   UNL     1       3.664   3.504  18.759  0.00  0.00    +0.000 A 
ATOM      6  N   UNL     1       4.268   4.048  17.618  0.00  0.00    +0.000 N 
ATOM      7  C   UNL     1       2.276   3.565  18.893  0.00  0.00    +0.000 A 
ATOM      8 CL   UNL     1       1.272   4.298  17.687  0.00  0.00    +0.000 Cl
ATOM      9  H   UNL     1       3.900   3.596  16.785  0.00  0.00    +0.000 HD
ENDROOT
BRANCH   6  10
ATOM     10  C   UNL     1       5.711   4.310  17.602  0.00  0.00    +0.000 C 
ATOM     11  C   UNL     1       5.978   5.547  18.484  0.00  0.00    +0.000 C 
ATOM     12  C   UNL     1       7.311   6.239  18.227  0.00  0.00    +0.000 C 
ATOM     13  C   UNL     1       7.506   6.534  16.750  0.00  0.00    +0.000 C 
ATOM     14  C   UNL     1       7.441   5.247  15.939  0.00  0.00    +0.000 C 
ATOM     15  C   UNL     1       6.111   4.528  16.130  0.00  0.00    +0.000 C 
BRANCH  14  16
ATOM     16  O   UNL     1       7.617   5.552  14.559  0.00  0.00    +0.000 OA
ATOM     17  H   UNL     1       8.438   5.126  14.256  0.00  0.00    +0.000 HD
ENDBRANCH  14  16
ENDBRANCH   6  10
BRANCH   1  18
ATOM     18  N   UNL     1       0.358   3.070  20.324  0.00  0.00    +0.000 N 
ATOM     19  H   UNL     1      -0.108   2.577  19.566  0.00  0.00    +0.000 HD
ATOM     20  H   UNL     1       0.138   2.693  21.239  0.00  0.00    +0.000 HD
ENDBRANCH   1  18
TORSDOF 3
ENDMDL
MODEL 7
REMARK VINA RESULT:      -6.7      1.590      2.054
REMARK  Name = 
REMARK  3 active torsions:
REMARK  status: ('A' for Active; 'I' for Inactive)
REMARK    1  A    between atoms: N_1  and  C_2
REMARK    2  A    between atoms: N_7  and  C_8
REMARK    3  A    between atoms: C_12  and  O_13
REMARK                            x       y       z     vdW  Elec       q    Type
REMARK                         _______ _______ _______ _____ _____    ______ ____
ROOT
ATOM      1  C   UNL     1       5.638   6.527  17.319  0.00  0.00    +0.000 A 
ATOM      2  N   UNL     1       4.466   7.159  17.465  0.00  0.00    +0.000 NA
ATOM      3  C   UNL     1       3.416   6.388  17.785  0.00  0.00    +0.000 A 
ATOM      4  N   UNL     1       3.434   5.061  17.988  0.00  0.00    +0.000 NA
ATOM      5  C   UNL     1       4.612   4.439  17.806  0.00  0.00    +0.000 A 
ATOM      6  N   UNL     1       4.691   3.056  18.006  0.00  0.00    +0.000 N 
ATOM      7  C   UNL     1       5.762   5.146  17.450  0.00  0.00    +0.000 A 
ATOM      8 CL   UNL     1       7.292   4.361  17.249  0.00  0.00    +0.000 Cl
ATOM      9  H   UNL     1       5.030   2.604  17.161  0.00  0.00    +0.000 HD
ENDROOT
BRANCH   6  10
ATOM     10  C   UNL     1       3.612   2.348  18.702  0.00  0.00    +0.000 C 
ATOM     11  C   UNL     1       2.306   2.584  17.915  0.00  0.00    +0.000 C 
ATOM     12  C   UNL     1       1.029   2.331  18.707  0.00  0.00    +0.000 C 
ATOM     13  C   UNL     1       1.041   3.074  20.030  0.00  0.00    +0.000 C 
ATOM     14  C   UNL     1       2.243   2.651  20.864  0.00  0.00    +0.000 C 
ATOM     15  C   UNL     1       3.555   2.913  20.135  0.00  0.00    +0.000 C 
BRANCH  14  16
ATOM     16  O   UNL     1       2.238   3.368  22.095  0.00  0.00    +0.000 OA
ATOM     17  H   UNL     1       3.014   3.956  22.108  0.00  0.00    +0.000 HD
ENDBRANCH  14  16
ENDBRANCH   6  10
BRANCH   1  18
ATOM     18  N   UNL     1       6.720   7.343  16.971  0.00  0.00    +0.000 N 
ATOM     19  H   UNL     1       7.255   6.871  16.247  0.00  0.00    +0.000 HD
ATOM     20  H   UNL     1       6.420   8.274  16.703  0.00  0.00    +0.000 HD
ENDBRANCH   1  18
TORSDOF 3
ENDMDL
MODEL 8
REMARK VINA RESULT:      -6.6      4.232      5.318
REMARK  Name = 
REMARK  3 active torsions:
REMARK  status: ('A' for Active; 'I' for Inactive)
REMARK    1  A    between atoms: N_1  and  C_2
REMARK    2  A    between atoms: N_7  and  C_8
REMARK    3  A    between atoms: C_12  and  O_13
REMARK                            x       y       z     vdW  Elec       q    Type
REMARK                         _______ _______ _______ _____ _____    ______ ____
ROOT
ATOM      1  C   UNL     1       4.109   2.997  18.800  0.00  0.00    +0.000 A 
ATOM      2  N   UNL     1       5.335   3.442  19.107  0.00  0.00    +0.000 NA
ATOM      3  C   UNL     1       5.455   4.767  19.280  0.00  0.00    +0.000 A 
ATOM      4  N   UNL     1       4.470   5.675  19.191  0.00  0.00    +0.000 NA
ATOM      5  C   UNL     1       3.254   5.213  18.850  0.00  0.00    +0.000 A 
ATOM      6  N   UNL     1       2.188   6.115  18.745  0.00  0.00    +0.000 N 
ATOM      7  C   UNL     1       3.026   3.854  18.626  0.00  0.00    +0.000 A 
ATOM      8 CL   UNL     1       1.456   3.245  18.223  0.00  0.00    +0.000 Cl
ATOM      9  H   UNL     1       1.782   6.063  17.814  0.00  0.00    +0.000 HD
ENDROOT
BRANCH   6  10
ATOM     10  C   UNL     1       2.308   7.467  19.299  0.00  0.00    +0.000 C 
ATOM     11  C   UNL     1       1.526   7.505  20.629  0.00  0.00    +0.000 C 
ATOM     12  C   UNL     1       1.150   8.902  21.108  0.00  0.00    +0.000 C 
ATOM     13  C   UNL     1       0.457   9.695  20.014  0.00  0.00    +0.000 C 
ATOM     14  C   UNL     1       1.358   9.807  18.791  0.00  0.00    +0.000 C 
ATOM     15  C   UNL     1       1.740   8.437  18.245  0.00  0.00    +0.000 C 
BRANCH  14  16
ATOM     16  O   UNL     1       0.683  10.546  17.776  0.00  0.00    +0.000 OA
ATOM     17  H   UNL     1      -0.275  10.461  17.926  0.00  0.00    +0.000 HD
ENDBRANCH  14  16
ENDBRANCH   6  10
BRANCH   1  18
ATOM     18  N   UNL     1       4.004   1.615  18.609  0.00  0.00    +0.000 N 
ATOM     19  H   UNL     1       3.588   1.450  17.696  0.00  0.00    +0.000 HD
ATOM     20  H   UNL     1       4.896   1.147  18.731  0.00  0.00    +0.000 HD
ENDBRANCH   1  18
TORSDOF 3
ENDMDL
MODEL 9
REMARK VINA RESULT:      -6.6      3.610      6.010
REMARK  Name = 
REMARK  3 active torsions:
REMARK  status: ('A' for Active; 'I' for Inactive)
REMARK    1  A    between atoms: N_1  and  C_2
REMARK    2  A    between atoms: N_7  and  C_8
REMARK    3  A    between atoms: C_12  and  O_13
REMARK                            x       y       z     vdW  Elec       q    Type
REMARK                         _______ _______ _______ _____ _____    ______ ____
ROOT
ATOM      1  C   UNL     1       2.112   3.160  21.104  0.00  0.00    +0.000 A 
ATOM      2  N   UNL     1       1.202   4.108  20.843  0.00  0.00    +0.000 NA
ATOM      3  C   UNL     1       1.521   4.980  19.875  0.00  0.00    +0.000 A 
ATOM      4  N   UNL     1       2.645   4.982  19.142  0.00  0.00    +0.000 NA
ATOM      5  C   UNL     1       3.560   4.043  19.440  0.00  0.00    +0.000 A 
ATOM      6  N   UNL     1       4.752   3.994  18.706  0.00  0.00    +0.000 N 
ATOM      7  C   UNL     1       3.337   3.100  20.445  0.00  0.00    +0.000 A 
ATOM      8 CL   UNL     1       4.493   1.864  20.812  0.00  0.00    +0.000 Cl
ATOM      9  H   UNL     1       5.547   4.081  19.333  0.00  0.00    +0.000 HD
ENDROOT
BRANCH   6  10
ATOM     10  C   UNL     1       4.870   4.730  17.443  0.00  0.00    +0.000 C 
ATOM     11  C   UNL     1       5.092   3.701  16.314  0.00  0.00    +0.000 C 
ATOM     12  C   UNL     1       5.689   4.276  15.035  0.00  0.00    +0.000 C 
ATOM     13  C   UNL     1       6.938   5.089  15.323  0.00  0.00    +0.000 C 
ATOM     14  C   UNL     1       6.619   6.226  16.286  0.00  0.00    +0.000 C 
ATOM     15  C   UNL     1       6.051   5.707  17.600  0.00  0.00    +0.000 C 
BRANCH  14  16
ATOM     16  O   UNL     1       7.808   6.968  16.547  0.00  0.00    +0.000 OA
ATOM     17  H   UNL     1       8.339   6.472  17.194  0.00  0.00    +0.000 HD
ENDBRANCH  14  16
ENDBRANCH   6  10
BRANCH   1  18
ATOM     18  N   UNL     1       1.771   2.267  22.125  0.00  0.00    +0.000 N 
ATOM     19  H   UNL     1       0.840   2.504  22.458  0.00  0.00    +0.000 HD
ATOM     20  H   UNL     1       1.852   1.301  21.826  0.00  0.00    +0.000 HD
ENDBRANCH   1  18
TORSDOF 3
ENDMDL
