MODEL 1
REMARK VINA RESULT:      -7.9      0.000      0.000
REMARK  Name = 
REMARK  7 active torsions:
REMARK  status: ('A' for Active; 'I' for Inactive)
REMARK    1  A    between atoms: C_1  and  C_2
REMARK    2  A    between atoms: C_2  and  N_3
REMARK    3  A    between atoms: C_2  and  C_18
REMARK    4  A    between atoms: N_3  and  C_4
REMARK    5  A    between atoms: N_7  and  C_8
REMARK    6  A    between atoms: C_11  and  C_12
REMARK    7  A    between atoms: C_12  and  O_14
REMARK                            x       y       z     vdW  Elec       q    Type
REMARK                         _______ _______ _______ _____ _____    ______ ____
ROOT
ATOM      1  C   UNL     1       2.554   7.825  19.146  0.00  0.00    +0.000 C 
ATOM      2  C   UNL     1       2.524   8.214  17.671  0.00  0.00    +0.000 C 
ATOM      3  C   UNL     1       2.031   9.644  17.765  0.00  0.00    +0.000 C 
ATOM      4  N   UNL     1       0.987   9.558  18.770  0.00  0.00    +0.000 N 
ATOM      5  C   UNL     1       1.238   8.428  19.648  0.00  0.00    +0.000 C 
ENDROOT
BRANCH   4   6
ATOM      6  C   UNL     1      -0.341  10.100  18.646  0.00  0.00    +0.000 A 
ATOM      7  C   UNL     1      -0.823  11.104  19.510  0.00  0.00    +0.000 A 
ATOM      8  C   UNL     1      -2.083  11.669  19.317  0.00  0.00    +0.000 A 
ATOM      9  C   UNL     1      -2.918  11.244  18.270  0.00  0.00    +0.000 A 
ATOM     10  C   UNL     1      -2.458  10.219  17.425  0.00  0.00    +0.000 A 
ATOM     11  C   UNL     1      -1.191   9.661  17.608  0.00  0.00    +0.000 A 
BRANCH   9  12
ATOM     12  C   UNL     1      -4.250  11.897  18.082  0.00  0.00    +0.000 C 
ATOM     13  O   UNL     1      -4.965  12.091  19.054  0.00  0.00    +0.000 OA
BRANCH  12  14
ATOM     14  O   UNL     1      -4.700  12.304  16.873  0.00  0.00    +0.000 OA
ATOM     15  H   UNL     1      -4.251  12.947  16.314  0.00  0.00    +0.000 HD
ENDBRANCH  12  14
ENDBRANCH   9  12
ENDBRANCH   4   6
BRANCH   1  16
ATOM     16  N   UNL     1       2.649   6.363  19.321  0.00  0.00    +0.000 NA
ATOM     17  H   UNL     1       3.393   6.178  20.037  0.00  0.00    +0.000 HD
BRANCH  16  19
ATOM     18  C   UNL     1       2.176   4.308  17.992  0.00  0.00    +0.000 C 
ATOM     19  C   UNL     1       2.985   5.602  18.097  0.00  0.00    +0.000 C 
BRANCH  19  20
ATOM     20  C   UNL     1       4.491   5.322  18.105  0.00  0.00    +0.000 A 
ATOM     21  C   UNL     1       5.169   5.452  19.335  0.00  0.00    +0.000 A 
ATOM     22  C   UNL     1       6.556   5.342  19.412  0.00  0.00    +0.000 A 
ATOM     23  C   UNL     1       7.304   5.104  18.266  0.00  0.00    +0.000 A 
ATOM     24  C   UNL     1       6.670   4.938  17.028  0.00  0.00    +0.000 A 
ATOM     25  C   UNL     1       7.442   4.701  15.885  0.00  0.00    +0.000 A 
ATOM     26  C   UNL     1       6.833   4.506  14.645  0.00  0.00    +0.000 A 
ATOM     27  C   UNL     1       5.443   4.534  14.543  0.00  0.00    +0.000 A 
ATOM     28  C   UNL     1       4.657   4.793  15.666  0.00  0.00    +0.000 A 
ATOM     29  C   UNL     1       5.249   5.022  16.932  0.00  0.00    +0.000 A 
ENDBRANCH  19  20
ENDBRANCH  16  19
ENDBRANCH   1  16
TORSDOF 6
ENDMDL
MODEL 2
REMARK VINA RESULT:      -7.9      2.993      4.594
REMARK  Name = 
REMARK  7 active torsions:
REMARK  status: ('A' for Active; 'I' for Inactive)
REMARK    1  A    between atoms: C_1  and  C_2
REMARK    2  A    between atoms: C_2  and  N_3
REMARK    3  A    between atoms: C_2  and  C_18
REMARK    4  A    between atoms: N_3  and  C_4
REMARK    5  A    between atoms: N_7  and  C_8
REMARK    6  A    between atoms: C_11  and  C_12
REMARK    7  A    between atoms: C_12  and  O_14
REMARK                            x       y       z     vdW  Elec       q    Type
REMARK                         _______ _______ _______ _____ _____    ______ ____
ROOT
ATOM      1  C   UNL     1       2.088   8.611  18.820  0.00  0.00    +0.000 C 
ATOM      2  C   UNL     1       1.244   9.458  17.872  0.00  0.00    +0.000 C 
ATOM      3  C   UNL     1       1.152  10.753  18.654  0.00  0.00    +0.000 C 
ATOM      4  N   UNL     1       0.923  10.292  20.011  0.00  0.00    +0.000 N 
ATOM      5  C   UNL     1       1.458   8.952  20.175  0.00  0.00    +0.000 C 
ENDROOT
BRANCH   4   6
ATOM      6  C   UNL     1      -0.101  10.779  20.898  0.00  0.00    +0.000 A 
ATOM      7  C   UNL     1      -0.238  10.301  22.217  0.00  0.00    +0.000 A 
ATOM      8  C   UNL     1      -1.187  10.847  23.081  0.00  0.00    +0.000 A 
ATOM      9  C   UNL     1      -2.048  11.875  22.660  0.00  0.00    +0.000 A 
ATOM     10  C   UNL     1      -1.940  12.333  21.334  0.00  0.00    +0.000 A 
ATOM     11  C   UNL     1      -0.983  11.797  20.472  0.00  0.00    +0.000 A 
BRANCH   9  12
ATOM     12  C   UNL     1      -3.031  12.452  23.627  0.00  0.00    +0.000 C 
ATOM     13  O   UNL     1      -3.905  11.735  24.092  0.00  0.00    +0.000 OA
BRANCH  12  14
ATOM     14  O   UNL     1      -2.988  13.742  24.031  0.00  0.00    +0.000 OA
ATOM     15  H   UNL     1      -3.031  14.500  23.438  0.00  0.00    +0.000 HD
ENDBRANCH  12  14
ENDBRANCH   9  12
ENDBRANCH   4   6
BRANCH   1  16
ATOM     16  N   UNL     1       2.025   7.180  18.473  0.00  0.00    +0.000 NA
ATOM     17  H   UNL     1       1.402   6.711  19.175  0.00  0.00    +0.000 HD
BRANCH  16  19
ATOM     18  C   UNL     1       4.230   6.958  17.330  0.00  0.00    +0.000 C 
ATOM     19  C   UNL     1       3.326   6.474  18.466  0.00  0.00    +0.000 C 
BRANCH  19  20
ATOM     20  C   UNL     1       3.056   4.970  18.364  0.00  0.00    +0.000 A 
ATOM     21  C   UNL     1       3.203   4.369  17.096  0.00  0.00    +0.000 A 
ATOM     22  C   UNL     1       2.856   3.036  16.883  0.00  0.00    +0.000 A 
ATOM     23  C   UNL     1       2.349   2.269  17.924  0.00  0.00    +0.000 A 
ATOM     24  C   UNL     1       2.215   2.816  19.207  0.00  0.00    +0.000 A 
ATOM     25  C   UNL     1       1.700   2.027  20.242  0.00  0.00    +0.000 A 
ATOM     26  C   UNL     1       1.582   2.541  21.534  0.00  0.00    +0.000 A 
ATOM     27  C   UNL     1       1.990   3.846  21.801  0.00  0.00    +0.000 A 
ATOM     28  C   UNL     1       2.482   4.657  20.778  0.00  0.00    +0.000 A 
ATOM     29  C   UNL     1       2.588   4.171  19.452  0.00  0.00    +0.000 A 
ENDBRANCH  19  20
ENDBRANCH  16  19
ENDBRANCH   1  16
TORSDOF 6
ENDMDL
MODEL 3
REMARK VINA RESULT:      -7.8      2.564      3.975
REMARK  Name = 
REMARK  7 active torsions:
REMARK  status: ('A' for Active; 'I' for Inactive)
REMARK    1  A    between atoms: C_1  and  C_2
REMARK    2  A    between atoms: C_2  and  N_3
REMARK    3  A    between atoms: C_2  and  C_18
REMARK    4  A    between atoms: N_3  and  C_4
REMARK    5  A    between atoms: N_7  and  C_8
REMARK    6  A    between atoms: C_11  and  C_12
REMARK    7  A    between atoms: C_12  and  O_14
REMARK                            x       y       z     vdW  Elec       q    Type
REMARK                         _______ _______ _______ _____ _____    ______ ____
ROOT
ATOM      1  C   UNL     1       1.435   9.896  17.968  0.00  0.00    +0.000 C 
ATOM      2  C   UNL     1       0.090   9.198  17.788  0.00  0.00    +0.000 C 
ATOM      3  C   UNL     1      -0.861  10.366  17.965  0.00  0.00    +0.000 C 
ATOM      4  N   UNL     1      -0.280  11.084  19.085  0.00  0.00    +0.000 N 
ATOM      5  C   UNL     1       1.144  10.814  19.161  0.00  0.00    +0.000 C 
ENDROOT
BRANCH   4   6
ATOM      6  C   UNL     1      -0.996  11.540  20.248  0.00  0.00    +0.000 A 
ATOM      7  C   UNL     1      -2.110  12.398  20.152  0.00  0.00    +0.000 A 
ATOM      8  C   UNL     1      -2.834  12.760  21.288  0.00  0.00    +0.000 A 
ATOM      9  C   UNL     1      -2.468  12.296  22.562  0.00  0.00    +0.000 A 
ATOM     10  C   UNL     1      -1.337  11.466  22.670  0.00  0.00    +0.000 A 
ATOM     11  C   UNL     1      -0.618  11.093  21.533  0.00  0.00    +0.000 A 
BRANCH   9  12
ATOM     12  C   UNL     1      -3.289  12.685  23.750  0.00  0.00    +0.000 C 
ATOM     13  O   UNL     1      -3.182  13.812  24.209  0.00  0.00    +0.000 OA
BRANCH  12  14
ATOM     14  O   UNL     1      -4.170  11.842  24.336  0.00  0.00    +0.000 OA
ATOM     15  H   UNL     1      -4.909  12.123  24.885  0.00  0.00    +0.000 HD
ENDBRANCH  12  14
ENDBRANCH   9  12
ENDBRANCH   4   6
BRANCH   1  16
ATOM     16  N   UNL     1       2.521   8.928  18.208  0.00  0.00    +0.000 NA
ATOM     17  H   UNL     1       3.040   8.805  17.305  0.00  0.00    +0.000 HD
BRANCH  16  19
ATOM     18  C   UNL     1       2.064   7.504  20.203  0.00  0.00    +0.000 C 
ATOM     19  C   UNL     1       2.085   7.593  18.676  0.00  0.00    +0.000 C 
BRANCH  19  20
ATOM     20  C   UNL     1       3.017   6.542  18.066  0.00  0.00    +0.000 A 
ATOM     21  C   UNL     1       4.175   7.007  17.407  0.00  0.00    +0.000 A 
ATOM     22  C   UNL     1       5.012   6.134  16.714  0.00  0.00    +0.000 A 
ATOM     23  C   UNL     1       4.716   4.778  16.656  0.00  0.00    +0.000 A 
ATOM     24  C   UNL     1       3.594   4.268  17.322  0.00  0.00    +0.000 A 
ATOM     25  C   UNL     1       3.312   2.900  17.249  0.00  0.00    +0.000 A 
ATOM     26  C   UNL     1       2.215   2.364  17.926  0.00  0.00    +0.000 A 
ATOM     27  C   UNL     1       1.399   3.195  18.690  0.00  0.00    +0.000 A 
ATOM     28  C   UNL     1       1.648   4.566  18.755  0.00  0.00    +0.000 A 
ATOM     29  C   UNL     1       2.738   5.142  18.057  0.00  0.00    +0.000 A 
ENDBRANCH  19  20
ENDBRANCH  16  19
ENDBRANCH   1  16
TORSDOF 6
ENDMDL
MODEL 4
REMARK VINA RESULT:      -7.7      2.496      2.821
REMARK  Name = 
REMARK  7 active torsions:
REMARK  status: ('A' for Active; 'I' for Inactive)
REMARK    1  A    between atoms: C_1  and  C_2
REMARK    2  A    between atoms: C_2  and  N_3
REMARK    3  A    between atoms: C_2  and  C_18
REMARK    4  A    between atoms: N_3  and  C_4
REMARK    5  A    between atoms: N_7  and  C_8
REMARK    6  A    between atoms: C_11  and  C_12
REMARK    7  A    between atoms: C_12  and  O_14
REMARK                            x       y       z     vdW  Elec       q    Type
REMARK                         _______ _______ _______ _____ _____    ______ ____
ROOT
ATOM      1  C   UNL     1       2.588   6.432  18.940  0.00  0.00    +0.000 C 
ATOM      2  C   UNL     1       1.858   7.206  17.846  0.00  0.00    +0.000 C 
ATOM      3  C   UNL     1       2.029   8.629  18.342  0.00  0.00    +0.000 C 
ATOM      4  N   UNL     1       1.791   8.501  19.769  0.00  0.00    +0.000 N 
ATOM      5  C   UNL     1       2.094   7.148  20.201  0.00  0.00    +0.000 C 
ENDROOT
BRANCH   4   6
ATOM      6  C   UNL     1       0.912   9.333  20.547  0.00  0.00    +0.000 A 
ATOM      7  C   UNL     1       0.350   8.896  21.764  0.00  0.00    +0.000 A 
ATOM      8  C   UNL     1      -0.434   9.751  22.538  0.00  0.00    +0.000 A 
ATOM      9  C   UNL     1      -0.704  11.065  22.123  0.00  0.00    +0.000 A 
ATOM     10  C   UNL     1      -0.175  11.498  20.893  0.00  0.00    +0.000 A 
ATOM     11  C   UNL     1       0.620  10.648  20.123  0.00  0.00    +0.000 A 
BRANCH   9  12
ATOM     12  C   UNL     1      -1.525  11.958  22.997  0.00  0.00    +0.000 C 
ATOM     13  O   UNL     1      -2.573  11.538  23.466  0.00  0.00    +0.000 OA
BRANCH  12  14
ATOM     14  O   UNL     1      -1.150  13.218  23.313  0.00  0.00    +0.000 OA
ATOM     15  H   UNL     1      -0.387  13.670  22.935  0.00  0.00    +0.000 HD
ENDBRANCH  12  14
ENDBRANCH   9  12
ENDBRANCH   4   6
BRANCH   1  16
ATOM     16  N   UNL     1       2.261   4.995  18.899  0.00  0.00    +0.000 NA
ATOM     17  H   UNL     1       2.575   4.574  19.807  0.00  0.00    +0.000 HD
BRANCH  16  19
ATOM     18  C   UNL     1       2.543   2.747  17.858  0.00  0.00    +0.000 C 
ATOM     19  C   UNL     1       2.890   4.236  17.795  0.00  0.00    +0.000 C 
BRANCH  19  20
ATOM     20  C   UNL     1       4.404   4.460  17.860  0.00  0.00    +0.000 A 
ATOM     21  C   UNL     1       4.971   4.695  19.130  0.00  0.00    +0.000 A 
ATOM     22  C   UNL     1       6.315   5.035  19.271  0.00  0.00    +0.000 A 
ATOM     23  C   UNL     1       7.128   5.155  18.151  0.00  0.00    +0.000 A 
ATOM     24  C   UNL     1       6.615   4.900  16.872  0.00  0.00    +0.000 A 
ATOM     25  C   UNL     1       7.449   5.028  15.757  0.00  0.00    +0.000 A 
ATOM     26  C   UNL     1       6.969   4.754  14.475  0.00  0.00    +0.000 A 
ATOM     27  C   UNL     1       5.649   4.338  14.304  0.00  0.00    +0.000 A 
ATOM     28  C   UNL     1       4.794   4.229  15.401  0.00  0.00    +0.000 A 
ATOM     29  C   UNL     1       5.247   4.526  16.709  0.00  0.00    +0.000 A 
ENDBRANCH  19  20
ENDBRANCH  16  19
ENDBRANCH   1  16
TORSDOF 6
ENDMDL
MODEL 5
REMARK VINA RESULT:      -7.7      0.981      1.511
REMARK  Name = 
REMARK  7 active torsions:
REMARK  status: ('A' for Active; 'I' for Inactive)
REMARK    1  A    between atoms: C_1  and  C_2
REMARK    2  A    between atoms: C_2  and  N_3
REMARK    3  A    between atoms: C_2  and  C_18
REMARK    4  A    between atoms: N_3  and  C_4
REMARK    5  A    between atoms: N_7  and  C_8
REMARK    6  A    between atoms: C_11  and  C_12
REMARK    7  A    between atoms: C_12  and  O_14
REMARK                            x       y       z     vdW  Elec       q    Type
REMARK                         _______ _______ _______ _____ _____    ______ ____
ROOT
ATOM      1  C   UNL     1       2.630   7.267  19.049  0.00  0.00    +0.000 C 
ATOM      2  C   UNL     1       2.249   7.692  17.634  0.00  0.00    +0.000 C 
ATOM      3  C   UNL     1       2.167   9.197  17.802  0.00  0.00    +0.000 C 
ATOM      4  N   UNL     1       1.488   9.340  19.077  0.00  0.00    +0.000 N 
ATOM      5  C   UNL     1       1.713   8.159  19.892  0.00  0.00    +0.000 C 
ENDROOT
BRANCH   4   6
ATOM      6  C   UNL     1       0.356  10.193  19.330  0.00  0.00    +0.000 A 
ATOM      7  C   UNL     1      -0.711  10.311  18.417  0.00  0.00    +0.000 A 
ATOM      8  C   UNL     1      -1.832  11.082  18.723  0.00  0.00    +0.000 A 
ATOM      9  C   UNL     1      -1.926  11.779  19.939  0.00  0.00    +0.000 A 
ATOM     10  C   UNL     1      -0.849  11.694  20.840  0.00  0.00    +0.000 A 
ATOM     11  C   UNL     1       0.269  10.913  20.541  0.00  0.00    +0.000 A 
BRANCH   9  12
ATOM     12  C   UNL     1      -3.157  12.571  20.239  0.00  0.00    +0.000 C 
ATOM     13  O   UNL     1      -3.366  12.943  21.385  0.00  0.00    +0.000 OA
BRANCH  12  14
ATOM     14  O   UNL     1      -4.054  12.917  19.287  0.00  0.00    +0.000 OA
ATOM     15  H   UNL     1      -3.883  13.552  18.583  0.00  0.00    +0.000 HD
ENDBRANCH  12  14
ENDBRANCH   9  12
ENDBRANCH   4   6
BRANCH   1  16
ATOM     16  N   UNL     1       2.418   5.823  19.258  0.00  0.00    +0.000 NA
ATOM     17  H   UNL     1       2.949   5.546  20.119  0.00  0.00    +0.000 HD
BRANCH  16  19
ATOM     18  C   UNL     1       2.282   3.541  18.262  0.00  0.00    +0.000 C 
ATOM     19  C   UNL     1       2.860   4.953  18.144  0.00  0.00    +0.000 C 
BRANCH  19  20
ATOM     20  C   UNL     1       4.391   4.931  18.130  0.00  0.00    +0.000 A 
ATOM     21  C   UNL     1       5.054   5.177  19.351  0.00  0.00    +0.000 A 
ATOM     22  C   UNL     1       6.441   5.303  19.408  0.00  0.00    +0.000 A 
ATOM     23  C   UNL     1       7.202   5.193  18.252  0.00  0.00    +0.000 A 
ATOM     24  C   UNL     1       6.589   4.919  17.023  0.00  0.00    +0.000 A 
ATOM     25  C   UNL     1       7.373   4.814  15.869  0.00  0.00    +0.000 A 
ATOM     26  C   UNL     1       6.788   4.515  14.638  0.00  0.00    +0.000 A 
ATOM     27  C   UNL     1       5.412   4.308  14.556  0.00  0.00    +0.000 A 
ATOM     28  C   UNL     1       4.610   4.433  15.690  0.00  0.00    +0.000 A 
ATOM     29  C   UNL     1       5.172   4.761  16.947  0.00  0.00    +0.000 A 
ENDBRANCH  19  20
ENDBRANCH  16  19
ENDBRANCH   1  16
TORSDOF 6
ENDMDL
MODEL 6
REMARK VINA RESULT:      -7.7      4.283      9.580
REMARK  Name = 
REMARK  7 active torsions:
REMARK  status: ('A' for Active; 'I' for Inactive)
REMARK    1  A    between atoms: C_1  and  C_2
REMARK    2  A    between atoms: C_2  and  N_3
REMARK    3  A    between atoms: C_2  and  C_18
REMARK    4  A    between atoms: N_3  and  C_4
REMARK    5  A    between atoms: N_7  and  C_8
REMARK    6  A    between atoms: C_11  and  C_12
REMARK    7  A    between atoms: C_12  and  O_14
REMARK                            x       y       z     vdW  Elec       q    Type
REMARK                         _______ _______ _______ _____ _____    ______ ____
ROOT
ATOM      1  C   UNL     1       1.124   9.978  19.120  0.00  0.00    +0.000 C 
ATOM      2  C   UNL     1       0.407   9.347  20.310  0.00  0.00    +0.000 C 
ATOM      3  C   UNL     1       1.480   8.406  20.822  0.00  0.00    +0.000 C 
ATOM      4  N   UNL     1       2.019   7.840  19.598  0.00  0.00    +0.000 N 
ATOM      5  C   UNL     1       1.806   8.757  18.494  0.00  0.00    +0.000 C 
ENDROOT
BRANCH   4   6
ATOM      6  C   UNL     1       2.231   6.438  19.349  0.00  0.00    +0.000 A 
ATOM      7  C   UNL     1       1.916   5.451  20.304  0.00  0.00    +0.000 A 
ATOM      8  C   UNL     1       2.056   4.096  20.007  0.00  0.00    +0.000 A 
ATOM      9  C   UNL     1       2.533   3.672  18.755  0.00  0.00    +0.000 A 
ATOM     10  C   UNL     1       2.883   4.652  17.808  0.00  0.00    +0.000 A 
ATOM     11  C   UNL     1       2.731   6.008  18.100  0.00  0.00    +0.000 A 
BRANCH   9  12
ATOM     12  C   UNL     1       2.642   2.209  18.467  0.00  0.00    +0.000 C 
ATOM     13  O   UNL     1       3.617   1.788  17.863  0.00  0.00    +0.000 OA
BRANCH  12  14
ATOM     14  O   UNL     1       1.708   1.315  18.866  0.00  0.00    +0.000 OA
ATOM     15  H   UNL     1       0.863   1.551  19.263  0.00  0.00    +0.000 HD
ENDBRANCH  12  14
ENDBRANCH   9  12
ENDBRANCH   4   6
BRANCH   1  16
ATOM     16  N   UNL     1       0.180  10.666  18.220  0.00  0.00    +0.000 NA
ATOM     17  H   UNL     1       0.670  11.508  17.832  0.00  0.00    +0.000 HD
BRANCH  16  19
ATOM     18  C   UNL     1      -2.265  11.025  17.886  0.00  0.00    +0.000 C 
ATOM     19  C   UNL     1      -1.081  11.115  18.851  0.00  0.00    +0.000 C 
BRANCH  19  20
ATOM     20  C   UNL     1      -0.880  12.546  19.359  0.00  0.00    +0.000 A 
ATOM     21  C   UNL     1      -0.419  13.505  18.432  0.00  0.00    +0.000 A 
ATOM     22  C   UNL     1      -0.087  14.797  18.832  0.00  0.00    +0.000 A 
ATOM     23  C   UNL     1      -0.201  15.168  20.166  0.00  0.00    +0.000 A 
ATOM     24  C   UNL     1      -0.684  14.258  21.116  0.00  0.00    +0.000 A 
ATOM     25  C   UNL     1      -0.789  14.650  22.455  0.00  0.00    +0.000 A 
ATOM     26  C   UNL     1      -1.293  13.771  23.415  0.00  0.00    +0.000 A 
ATOM     27  C   UNL     1      -1.705  12.495  23.037  0.00  0.00    +0.000 A 
ATOM     28  C   UNL     1      -1.585  12.076  21.712  0.00  0.00    +0.000 A 
ATOM     29  C   UNL     1      -1.053  12.937  20.721  0.00  0.00    +0.000 A 
ENDBRANCH  19  20
ENDBRANCH  16  19
ENDBRANCH   1  16
TORSDOF 6
ENDMDL
MODEL 7
REMARK VINA RESULT:      -7.7      2.537      3.935
REMARK  Name = 
REMARK  7 active torsions:
REMARK  status: ('A' for Active; 'I' for Inactive)
REMARK    1  A    between atoms: C_1  and  C_2
REMARK    2  A    between atoms: C_2  and  N_3
REMARK    3  A    between atoms: C_2  and  C_18
REMARK    4  A    between atoms: N_3  and  C_4
REMARK    5  A    between atoms: N_7  and  C_8
REMARK    6  A    between atoms: C_11  and  C_12
REMARK    7  A    between atoms: C_12  and  O_14
REMARK                            x       y       z     vdW  Elec       q    Type
REMARK                         _______ _______ _______ _____ _____    ______ ____
ROOT
ATOM      1  C   UNL     1       1.521   9.814  17.969  0.00  0.00    +0.000 C 
ATOM      2  C   UNL     1       0.171   9.167  17.675  0.00  0.00    +0.000 C 
ATOM      3  C   UNL     1      -0.762  10.342  17.898  0.00  0.00    +0.000 C 
ATOM      4  N   UNL     1      -0.218  10.958  19.095  0.00  0.00    +0.000 N 
ATOM      5  C   UNL     1       1.195  10.646  19.214  0.00  0.00    +0.000 C 
ENDROOT
BRANCH   4   6
ATOM      6  C   UNL     1      -0.978  11.343  20.256  0.00  0.00    +0.000 A 
ATOM      7  C   UNL     1      -0.597  10.965  21.559  0.00  0.00    +0.000 A 
ATOM      8  C   UNL     1      -1.305  11.418  22.672  0.00  0.00    +0.000 A 
ATOM      9  C   UNL     1      -2.430  12.248  22.529  0.00  0.00    +0.000 A 
ATOM     10  C   UNL     1      -2.837  12.602  21.230  0.00  0.00    +0.000 A 
ATOM     11  C   UNL     1      -2.122  12.159  20.115  0.00  0.00    +0.000 A 
BRANCH   9  12
ATOM     12  C   UNL     1      -3.143  12.735  23.750  0.00  0.00    +0.000 C 
ATOM     13  O   UNL     1      -4.028  12.048  24.240  0.00  0.00    +0.000 OA
BRANCH  12  14
ATOM     14  O   UNL     1      -2.839  13.905  24.355  0.00  0.00    +0.000 OA
ATOM     15  H   UNL     1      -2.044  14.419  24.179  0.00  0.00    +0.000 HD
ENDBRANCH  12  14
ENDBRANCH   9  12
ENDBRANCH   4   6
BRANCH   1  16
ATOM     16  N   UNL     1       2.573   8.804  18.183  0.00  0.00    +0.000 NA
ATOM     17  H   UNL     1       3.074   8.671  17.271  0.00  0.00    +0.000 HD
BRANCH  16  19
ATOM     18  C   UNL     1       2.028   7.398  20.170  0.00  0.00    +0.000 C 
ATOM     19  C   UNL     1       2.093   7.481  18.643  0.00  0.00    +0.000 C 
BRANCH  19  20
ATOM     20  C   UNL     1       3.017   6.406  18.063  0.00  0.00    +0.000 A 
ATOM     21  C   UNL     1       4.185   6.843  17.403  0.00  0.00    +0.000 A 
ATOM     22  C   UNL     1       5.017   5.946  16.735  0.00  0.00    +0.000 A 
ATOM     23  C   UNL     1       4.705   4.593  16.704  0.00  0.00    +0.000 A 
ATOM     24  C   UNL     1       3.572   4.111  17.372  0.00  0.00    +0.000 A 
ATOM     25  C   UNL     1       3.275   2.744  17.326  0.00  0.00    +0.000 A 
ATOM     26  C   UNL     1       2.167   2.236  18.006  0.00  0.00    +0.000 A 
ATOM     27  C   UNL     1       1.354   3.093  18.746  0.00  0.00    +0.000 A 
ATOM     28  C   UNL     1       1.620   4.462  18.784  0.00  0.00    +0.000 A 
ATOM     29  C   UNL     1       2.722   5.009  18.082  0.00  0.00    +0.000 A 
ENDBRANCH  19  20
ENDBRANCH  16  19
ENDBRANCH   1  16
TORSDOF 6
ENDMDL
MODEL 8
REMARK VINA RESULT:      -7.7      2.802      4.664
REMARK  Name = 
REMARK  7 active torsions:
REMARK  status: ('A' for Active; 'I' for Inactive)
REMARK    1  A    between atoms: C_1  and  C_2
REMARK    2  A    between atoms: C_2  and  N_3
REMARK    3  A    between atoms: C_2  and  C_18
REMARK    4  A    between atoms: N_3  and  C_4
REMARK    5  A    between atoms: N_7  and  C_8
REMARK    6  A    between atoms: C_11  and  C_12
REMARK    7  A    between atoms: C_12  and  O_14
REMARK                            x       y       z     vdW  Elec       q    Type
REMARK                         _______ _______ _______ _____ _____    ______ ____
ROOT
ATOM      1  C   UNL     1       0.961  10.432  18.458  0.00  0.00    +0.000 C 
ATOM      2  C   UNL     1      -0.386   9.793  18.134  0.00  0.00    +0.000 C 
ATOM      3  C   UNL     1      -1.322  10.958  18.389  0.00  0.00    +0.000 C 
ATOM      4  N   UNL     1      -0.787  11.537  19.608  0.00  0.00    +0.000 N 
ATOM      5  C   UNL     1       0.626  11.223  19.726  0.00  0.00    +0.000 C 
ENDROOT
BRANCH   4   6
ATOM      6  C   UNL     1      -1.555  11.883  20.776  0.00  0.00    +0.000 A 
ATOM      7  C   UNL     1      -2.769  12.594  20.689  0.00  0.00    +0.000 A 
ATOM      8  C   UNL     1      -3.533  12.847  21.828  0.00  0.00    +0.000 A 
ATOM      9  C   UNL     1      -3.109  12.418  23.098  0.00  0.00    +0.000 A 
ATOM     10  C   UNL     1      -1.882  11.738  23.196  0.00  0.00    +0.000 A 
ATOM     11  C   UNL     1      -1.122  11.474  22.056  0.00  0.00    +0.000 A 
BRANCH   9  12
ATOM     12  C   UNL     1      -3.973  12.685  24.289  0.00  0.00    +0.000 C 
ATOM     13  O   UNL     1      -4.875  11.906  24.561  0.00  0.00    +0.000 OA
BRANCH  12  14
ATOM     14  O   UNL     1      -3.788  13.750  25.101  0.00  0.00    +0.000 OA
ATOM     15  H   UNL     1      -4.220  14.603  24.987  0.00  0.00    +0.000 HD
ENDBRANCH  12  14
ENDBRANCH   9  12
ENDBRANCH   4   6
BRANCH   1  16
ATOM     16  N   UNL     1       2.013   9.416  18.646  0.00  0.00    +0.000 NA
ATOM     17  H   UNL     1       2.379   9.159  17.697  0.00  0.00    +0.000 HD
BRANCH  16  19
ATOM     18  C   UNL     1       1.634   8.308  20.847  0.00  0.00    +0.000 C 
ATOM     19  C   UNL     1       1.577   8.174  19.323  0.00  0.00    +0.000 C 
BRANCH  19  20
ATOM     20  C   UNL     1       2.458   7.023  18.829  0.00  0.00    +0.000 A 
ATOM     21  C   UNL     1       3.426   7.322  17.847  0.00  0.00    +0.000 A 
ATOM     22  C   UNL     1       4.183   6.317  17.248  0.00  0.00    +0.000 A 
ATOM     23  C   UNL     1       3.993   4.989  17.607  0.00  0.00    +0.000 A 
ATOM     24  C   UNL     1       3.064   4.649  18.600  0.00  0.00    +0.000 A 
ATOM     25  C   UNL     1       2.887   3.305  18.946  0.00  0.00    +0.000 A 
ATOM     26  C   UNL     1       1.987   2.944  19.950  0.00  0.00    +0.000 A 
ATOM     27  C   UNL     1       1.268   3.929  20.624  0.00  0.00    +0.000 A 
ATOM     28  C   UNL     1       1.412   5.272  20.276  0.00  0.00    +0.000 A 
ATOM     29  C   UNL     1       2.297   5.666  19.243  0.00  0.00    +0.000 A 
ENDBRANCH  19  20
ENDBRANCH  16  19
ENDBRANCH   1  16
TORSDOF 6
ENDMDL
MODEL 9
REMARK VINA RESULT:      -7.7      4.318      9.715
REMARK  Name = 
REMARK  7 active torsions:
REMARK  status: ('A' for Active; 'I' for Inactive)
REMARK    1  A    between atoms: C_1  and  C_2
REMARK    2  A    between atoms: C_2  and  N_3
REMARK    3  A    between atoms: C_2  and  C_18
REMARK    4  A    between atoms: N_3  and  C_4
REMARK    5  A    between atoms: N_7  and  C_8
REMARK    6  A    between atoms: C_11  and  C_12
REMARK    7  A    between atoms: C_12  and  O_14
REMARK                            x       y       z     vdW  Elec       q    Type
REMARK                         _______ _______ _______ _____ _____    ______ ____
ROOT
ATOM      1  C   UNL     1       0.868   9.921  19.308  0.00  0.00    +0.000 C 
ATOM      2  C   UNL     1       0.149   9.225  20.460  0.00  0.00    +0.000 C 
ATOM      3  C   UNL     1       1.287   8.425  21.062  0.00  0.00    +0.000 C 
ATOM      4  N   UNL     1       1.972   7.910  19.890  0.00  0.00    +0.000 N 
ATOM      5  C   UNL     1       1.730   8.781  18.754  0.00  0.00    +0.000 C 
ENDROOT
BRANCH   4   6
ATOM      6  C   UNL     1       2.364   6.540  19.685  0.00  0.00    +0.000 A 
ATOM      7  C   UNL     1       3.105   6.135  18.557  0.00  0.00    +0.000 A 
ATOM      8  C   UNL     1       3.541   4.817  18.422  0.00  0.00    +0.000 A 
ATOM      9  C   UNL     1       3.240   3.849  19.396  0.00  0.00    +0.000 A 
ATOM     10  C   UNL     1       2.472   4.238  20.508  0.00  0.00    +0.000 A 
ATOM     11  C   UNL     1       2.046   5.560  20.650  0.00  0.00    +0.000 A 
BRANCH   9  12
ATOM     12  C   UNL     1       3.752   2.454  19.227  0.00  0.00    +0.000 C 
ATOM     13  O   UNL     1       3.131   1.670  18.525  0.00  0.00    +0.000 OA
BRANCH  12  14
ATOM     14  O   UNL     1       4.893   2.019  19.808  0.00  0.00    +0.000 OA
ATOM     15  H   UNL     1       5.073   2.062  20.753  0.00  0.00    +0.000 HD
ENDBRANCH  12  14
ENDBRANCH   9  12
ENDBRANCH   4   6
BRANCH   1  16
ATOM     16  N   UNL     1      -0.085  10.481  18.332  0.00  0.00    +0.000 NA
ATOM     17  H   UNL     1       0.253  10.218  17.374  0.00  0.00    +0.000 HD
BRANCH  16  19
ATOM     18  C   UNL     1       0.943  12.631  19.064  0.00  0.00    +0.000 C 
ATOM     19  C   UNL     1      -0.244  11.951  18.377  0.00  0.00    +0.000 C 
BRANCH  19  20
ATOM     20  C   UNL     1      -1.561  12.270  19.091  0.00  0.00    +0.000 A 
ATOM     21  C   UNL     1      -1.480  12.849  20.375  0.00  0.00    +0.000 A 
ATOM     22  C   UNL     1      -2.620  13.054  21.149  0.00  0.00    +0.000 A 
ATOM     23  C   UNL     1      -3.869  12.685  20.668  0.00  0.00    +0.000 A 
ATOM     24  C   UNL     1      -4.001  12.136  19.386  0.00  0.00    +0.000 A 
ATOM     25  C   UNL     1      -5.268  11.769  18.920  0.00  0.00    +0.000 A 
ATOM     26  C   UNL     1      -5.428  11.245  17.636  0.00  0.00    +0.000 A 
ATOM     27  C   UNL     1      -4.319  11.095  16.805  0.00  0.00    +0.000 A 
ATOM     28  C   UNL     1      -3.044  11.431  17.260  0.00  0.00    +0.000 A 
ATOM     29  C   UNL     1      -2.848  11.941  18.567  0.00  0.00    +0.000 A 
ENDBRANCH  19  20
ENDBRANCH  16  19
ENDBRANCH   1  16
TORSDOF 6
ENDMDL
