MODEL 1
REMARK VINA RESULT:      -8.1      0.000      0.000
REMARK  Name = 
REMARK  5 active torsions:
REMARK  status: ('A' for Active; 'I' for Inactive)
REMARK    1  A    between atoms: C_8  and  C_9
REMARK    2  A    between atoms: C_9  and  N_10
REMARK    3  A    between atoms: N_10  and  C_11
REMARK    4  A    between atoms: C_14  and  C_15
REMARK    5  A    between atoms: C_15  and  O_17
REMARK                            x       y       z     vdW  Elec       q    Type
REMARK                         _______ _______ _______ _____ _____    ______ ____
ROOT
ATOM      1  N   UNL     1       0.400   3.188  20.413  0.00  0.00    +0.000 N 
ATOM      2  C   UNL     1       1.645   3.494  19.975  0.00  0.00    +0.000 A 
ATOM      3  N   UNL     1       2.653   2.756  20.305  0.00  0.00    +0.000 NA
ATOM      4  C   UNL     1       3.916   3.115  19.855  0.00  0.00    +0.000 A 
ATOM      5  O   UNL     1       4.906   2.439  20.115  0.00  0.00    +0.000 OA
ATOM      6  C   UNL     1       4.077   4.357  19.038  0.00  0.00    +0.000 A 
ATOM      7  N   UNL     1       5.318   4.756  18.638  0.00  0.00    +0.000 NA
ATOM      8  C   UNL     1       5.364   5.913  17.926  0.00  0.00    +0.000 A 
ATOM      9  C   UNL     1       4.195   6.612  17.626  0.00  0.00    +0.000 A 
ATOM     10  N   UNL     1       2.960   6.214  18.032  0.00  0.00    +0.000 NA
ATOM     11  C   UNL     1       2.918   5.069  18.754  0.00  0.00    +0.000 A 
ATOM     12  N   UNL     1       1.694   4.604  19.210  0.00  0.00    +0.000 N 
ATOM     13  H   UNL     1       0.372   2.258  20.827  0.00  0.00    +0.000 HD
ATOM     14  H   UNL     1      -0.351   3.318  19.747  0.00  0.00    +0.000 HD
ATOM     15  H   UNL     1       0.904   5.211  19.060  0.00  0.00    +0.000 HD
ENDROOT
BRANCH   8  16
ATOM     16  C   UNL     1       6.715   6.441  17.494  0.00  0.00    +0.000 C 
BRANCH  16  17
ATOM     17  N   UNL     1       7.519   5.414  16.829  0.00  0.00    +0.000 N 
ATOM     18  H   UNL     1       8.004   4.790  17.467  0.00  0.00    +0.000 HD
BRANCH  17  19
ATOM     19  C   UNL     1       7.034   4.781  15.682  0.00  0.00    +0.000 A 
ATOM     20  C   UNL     1       6.030   3.809  15.702  0.00  0.00    +0.000 A 
ATOM     21  C   UNL     1       5.520   3.265  14.517  0.00  0.00    +0.000 A 
ATOM     22  C   UNL     1       5.980   3.698  13.266  0.00  0.00    +0.000 A 
ATOM     23  C   UNL     1       6.970   4.683  13.230  0.00  0.00    +0.000 A 
ATOM     24 CL   UNL     1       7.648   5.282  11.757  0.00  0.00    +0.000 Cl
ATOM     25  C   UNL     1       7.471   5.225  14.425  0.00  0.00    +0.000 A 
BRANCH  22  26
ATOM     26  C   UNL     1       5.368   3.042  12.080  0.00  0.00    +0.000 C 
ATOM     27  O   UNL     1       4.430   3.546  11.480  0.00  0.00    +0.000 OA
BRANCH  26  28
ATOM     28  O   UNL     1       5.970   1.915  11.655  0.00  0.00    +0.000 OA
ATOM     29  H   UNL     1       5.383   1.142  11.546  0.00  0.00    +0.000 HD
ENDBRANCH  26  28
ENDBRANCH  22  26
ENDBRANCH  17  19
ENDBRANCH  16  17
ENDBRANCH   8  16
TORSDOF 5
ENDMDL
MODEL 2
REMARK VINA RESULT:      -8.0      6.402      8.343
REMARK  Name = 
REMARK  5 active torsions:
REMARK  status: ('A' for Active; 'I' for Inactive)
REMARK    1  A    between atoms: C_8  and  C_9
REMARK    2  A    between atoms: C_9  and  N_10
REMARK    3  A    between atoms: N_10  and  C_11
REMARK    4  A    between atoms: C_14  and  C_15
REMARK    5  A    between atoms: C_15  and  O_17
REMARK                            x       y       z     vdW  Elec       q    Type
REMARK                         _______ _______ _______ _____ _____    ______ ____
ROOT
ATOM      1  N   UNL     1      -5.837  12.119  17.157  0.00  0.00    +0.000 N 
ATOM      2  C   UNL     1      -4.589  11.593  17.141  0.00  0.00    +0.000 A 
ATOM      3  N   UNL     1      -4.208  10.842  16.161  0.00  0.00    +0.000 NA
ATOM      4  C   UNL     1      -2.929  10.304  16.193  0.00  0.00    +0.000 A 
ATOM      5  O   UNL     1      -2.505   9.605  15.279  0.00  0.00    +0.000 OA
ATOM      6  C   UNL     1      -2.048  10.577  17.369  0.00  0.00    +0.000 A 
ATOM      7  N   UNL     1      -0.811  10.009  17.445  0.00  0.00    +0.000 NA
ATOM      8  C   UNL     1      -0.099  10.294  18.566  0.00  0.00    +0.000 A 
ATOM      9  C   UNL     1      -0.623  11.132  19.549  0.00  0.00    +0.000 A 
ATOM     10  N   UNL     1      -1.858  11.693  19.474  0.00  0.00    +0.000 NA
ATOM     11  C   UNL     1      -2.573  11.396  18.363  0.00  0.00    +0.000 A 
ATOM     12  N   UNL     1      -3.847  11.925  18.219  0.00  0.00    +0.000 N 
ATOM     13  H   UNL     1      -6.298  12.002  16.256  0.00  0.00    +0.000 HD
ATOM     14  H   UNL     1      -5.915  13.071  17.490  0.00  0.00    +0.000 HD
ATOM     15  H   UNL     1      -4.212  12.427  19.011  0.00  0.00    +0.000 HD
ENDROOT
BRANCH   8  16
ATOM     16  C   UNL     1       1.263   9.654  18.739  0.00  0.00    +0.000 C 
BRANCH  16  17
ATOM     17  N   UNL     1       1.470   8.545  17.805  0.00  0.00    +0.000 N 
ATOM     18  H   UNL     1       1.436   8.815  16.827  0.00  0.00    +0.000 HD
BRANCH  17  19
ATOM     19  C   UNL     1       2.424   7.564  18.086  0.00  0.00    +0.000 A 
ATOM     20  C   UNL     1       3.662   7.483  17.442  0.00  0.00    +0.000 A 
ATOM     21  C   UNL     1       4.618   6.532  17.819  0.00  0.00    +0.000 A 
ATOM     22  C   UNL     1       4.377   5.645  18.877  0.00  0.00    +0.000 A 
ATOM     23  C   UNL     1       3.152   5.727  19.543  0.00  0.00    +0.000 A 
ATOM     24 CL   UNL     1       2.714   4.672  20.841  0.00  0.00    +0.000 Cl
ATOM     25  C   UNL     1       2.202   6.689  19.160  0.00  0.00    +0.000 A 
BRANCH  22  26
ATOM     26  C   UNL     1       5.464   4.676  19.180  0.00  0.00    +0.000 C 
ATOM     27  O   UNL     1       6.516   5.031  19.690  0.00  0.00    +0.000 OA
BRANCH  26  28
ATOM     28  O   UNL     1       5.179   3.381  18.948  0.00  0.00    +0.000 OA
ATOM     29  H   UNL     1       5.300   3.083  18.025  0.00  0.00    +0.000 HD
ENDBRANCH  26  28
ENDBRANCH  22  26
ENDBRANCH  17  19
ENDBRANCH  16  17
ENDBRANCH   8  16
TORSDOF 5
ENDMDL
MODEL 3
REMARK VINA RESULT:      -7.9      6.409      9.279
REMARK  Name = 
REMARK  5 active torsions:
REMARK  status: ('A' for Active; 'I' for Inactive)
REMARK    1  A    between atoms: C_8  and  C_9
REMARK    2  A    between atoms: C_9  and  N_10
REMARK    3  A    between atoms: N_10  and  C_11
REMARK    4  A    between atoms: C_14  and  C_15
REMARK    5  A    between atoms: C_15  and  O_17
REMARK                            x       y       z     vdW  Elec       q    Type
REMARK                         _______ _______ _______ _____ _____    ______ ____
ROOT
ATOM      1  N   UNL     1       3.850   0.917  18.040  0.00  0.00    +0.000 N 
ATOM      2  C   UNL     1       3.384   2.070  18.577  0.00  0.00    +0.000 A 
ATOM      3  N   UNL     1       2.540   2.041  19.555  0.00  0.00    +0.000 NA
ATOM      4  C   UNL     1       2.068   3.244  20.062  0.00  0.00    +0.000 A 
ATOM      5  O   UNL     1       1.287   3.280  21.006  0.00  0.00    +0.000 OA
ATOM      6  C   UNL     1       2.518   4.528  19.441  0.00  0.00    +0.000 A 
ATOM      7  N   UNL     1       2.019   5.716  19.888  0.00  0.00    +0.000 NA
ATOM      8  C   UNL     1       2.466   6.824  19.240  0.00  0.00    +0.000 A 
ATOM      9  C   UNL     1       3.389   6.718  18.201  0.00  0.00    +0.000 A 
ATOM     10  N   UNL     1       3.881   5.532  17.754  0.00  0.00    +0.000 NA
ATOM     11  C   UNL     1       3.423   4.428  18.391  0.00  0.00    +0.000 A 
ATOM     12  N   UNL     1       3.873   3.180  17.985  0.00  0.00    +0.000 N 
ATOM     13  H   UNL     1       3.608   0.115  18.620  0.00  0.00    +0.000 HD
ATOM     14  H   UNL     1       4.830   0.907  17.789  0.00  0.00    +0.000 HD
ATOM     15  H   UNL     1       4.448   3.162  17.159  0.00  0.00    +0.000 HD
ENDROOT
BRANCH   8  16
ATOM     16  C   UNL     1       1.913   8.172  19.651  0.00  0.00    +0.000 C 
BRANCH  16  17
ATOM     17  N   UNL     1       1.591   8.221  21.079  0.00  0.00    +0.000 N 
ATOM     18  H   UNL     1       2.393   8.105  21.689  0.00  0.00    +0.000 HD
BRANCH  17  19
ATOM     19  C   UNL     1       0.651   9.141  21.551  0.00  0.00    +0.000 A 
ATOM     20  C   UNL     1       0.209   9.183  22.876  0.00  0.00    +0.000 A 
ATOM     21  C   UNL     1      -0.672  10.177  23.318  0.00  0.00    +0.000 A 
ATOM     22  C   UNL     1      -1.119  11.184  22.452  0.00  0.00    +0.000 A 
ATOM     23  C   UNL     1      -0.671  11.166  21.130  0.00  0.00    +0.000 A 
ATOM     24 CL   UNL     1      -1.170  12.328  19.951  0.00  0.00    +0.000 Cl
ATOM     25  C   UNL     1       0.217  10.167  20.698  0.00  0.00    +0.000 A 
BRANCH  22  26
ATOM     26  C   UNL     1      -2.057  12.180  23.035  0.00  0.00    +0.000 C 
ATOM     27  O   UNL     1      -3.202  11.884  23.339  0.00  0.00    +0.000 OA
BRANCH  26  28
ATOM     28  O   UNL     1      -1.538  13.396  23.293  0.00  0.00    +0.000 OA
ATOM     29  H   UNL     1      -0.562  13.445  23.287  0.00  0.00    +0.000 HD
ENDBRANCH  26  28
ENDBRANCH  22  26
ENDBRANCH  17  19
ENDBRANCH  16  17
ENDBRANCH   8  16
TORSDOF 5
ENDMDL
MODEL 4
REMARK VINA RESULT:      -7.9      1.052      1.099
REMARK  Name = 
REMARK  5 active torsions:
REMARK  status: ('A' for Active; 'I' for Inactive)
REMARK    1  A    between atoms: C_8  and  C_9
REMARK    2  A    between atoms: C_9  and  N_10
REMARK    3  A    between atoms: N_10  and  C_11
REMARK    4  A    between atoms: C_14  and  C_15
REMARK    5  A    between atoms: C_15  and  O_17
REMARK                            x       y       z     vdW  Elec       q    Type
REMARK                         _______ _______ _______ _____ _____    ______ ____
ROOT
ATOM      1  N   UNL     1       0.966   2.426  22.356  0.00  0.00    +0.000 N 
ATOM      2  C   UNL     1       1.967   2.865  21.555  0.00  0.00    +0.000 A 
ATOM      3  N   UNL     1       3.059   2.183  21.440  0.00  0.00    +0.000 NA
ATOM      4  C   UNL     1       4.070   2.678  20.628  0.00  0.00    +0.000 A 
ATOM      5  O   UNL     1       5.117   2.062  20.461  0.00  0.00    +0.000 OA
ATOM      6  C   UNL     1       3.883   3.995  19.945  0.00  0.00    +0.000 A 
ATOM      7  N   UNL     1       4.889   4.523  19.192  0.00  0.00    +0.000 NA
ATOM      8  C   UNL     1       4.634   5.737  18.637  0.00  0.00    +0.000 A 
ATOM      9  C   UNL     1       3.405   6.365  18.831  0.00  0.00    +0.000 A 
ATOM     10  N   UNL     1       2.406   5.839  19.587  0.00  0.00    +0.000 NA
ATOM     11  C   UNL     1       2.667   4.636  20.152  0.00  0.00    +0.000 A 
ATOM     12  N   UNL     1       1.698   4.038  20.944  0.00  0.00    +0.000 N 
ATOM     13  H   UNL     1       1.125   1.464  22.651  0.00  0.00    +0.000 HD
ATOM     14  H   UNL     1       0.026   2.552  22.003  0.00  0.00    +0.000 HD
ATOM     15  H   UNL     1       0.880   4.591  21.139  0.00  0.00    +0.000 HD
ENDROOT
BRANCH   8  16
ATOM     16  C   UNL     1       5.727   6.406  17.830  0.00  0.00    +0.000 C 
BRANCH  16  17
ATOM     17  N   UNL     1       6.716   5.443  17.342  0.00  0.00    +0.000 N 
ATOM     18  H   UNL     1       7.075   4.819  18.057  0.00  0.00    +0.000 HD
BRANCH  17  19
ATOM     19  C   UNL     1       6.541   4.833  16.097  0.00  0.00    +0.000 A 
ATOM     20  C   UNL     1       5.599   3.829  15.854  0.00  0.00    +0.000 A 
ATOM     21  C   UNL     1       5.405   3.309  14.568  0.00  0.00    +0.000 A 
ATOM     22  C   UNL     1       6.131   3.798  13.474  0.00  0.00    +0.000 A 
ATOM     23  C   UNL     1       7.062   4.815  13.698  0.00  0.00    +0.000 A 
ATOM     24 CL   UNL     1       8.045   5.484  12.444  0.00  0.00    +0.000 Cl
ATOM     25  C   UNL     1       7.244   5.333  14.991  0.00  0.00    +0.000 A 
BRANCH  22  26
ATOM     26  C   UNL     1       5.843   3.163  12.161  0.00  0.00    +0.000 C 
ATOM     27  O   UNL     1       4.851   3.455  11.509  0.00  0.00    +0.000 OA
BRANCH  26  28
ATOM     28  O   UNL     1       6.786   2.322  11.694  0.00  0.00    +0.000 OA
ATOM     29  H   UNL     1       7.160   1.704  12.352  0.00  0.00    +0.000 HD
ENDBRANCH  26  28
ENDBRANCH  22  26
ENDBRANCH  17  19
ENDBRANCH  16  17
ENDBRANCH   8  16
TORSDOF 5
ENDMDL
MODEL 5
REMARK VINA RESULT:      -7.9      5.813      7.615
REMARK  Name = 
REMARK  5 active torsions:
REMARK  status: ('A' for Active; 'I' for Inactive)
REMARK    1  A    between atoms: C_8  and  C_9
REMARK    2  A    between atoms: C_9  and  N_10
REMARK    3  A    between atoms: N_10  and  C_11
REMARK    4  A    between atoms: C_14  and  C_15
REMARK    5  A    between atoms: C_15  and  O_17
REMARK                            x       y       z     vdW  Elec       q    Type
REMARK                         _______ _______ _______ _____ _____    ______ ____
ROOT
ATOM      1  N   UNL     1      -2.880  13.347  22.674  0.00  0.00    +0.000 N 
ATOM      2  C   UNL     1      -2.016  12.363  22.328  0.00  0.00    +0.000 A 
ATOM      3  N   UNL     1      -1.405  11.680  23.239  0.00  0.00    +0.000 NA
ATOM      4  C   UNL     1      -0.510  10.696  22.844  0.00  0.00    +0.000 A 
ATOM      5  O   UNL     1       0.080   9.999  23.663  0.00  0.00    +0.000 OA
ATOM      6  C   UNL     1      -0.252  10.481  21.387  0.00  0.00    +0.000 A 
ATOM      7  N   UNL     1       0.668   9.559  20.983  0.00  0.00    +0.000 NA
ATOM      8  C   UNL     1       0.852   9.460  19.640  0.00  0.00    +0.000 A 
ATOM      9  C   UNL     1       0.118  10.252  18.760  0.00  0.00    +0.000 A 
ATOM     10  N   UNL     1      -0.794  11.174  19.165  0.00  0.00    +0.000 NA
ATOM     11  C   UNL     1      -0.966  11.283  20.504  0.00  0.00    +0.000 A 
ATOM     12  N   UNL     1      -1.875  12.209  20.995  0.00  0.00    +0.000 N 
ATOM     13  H   UNL     1      -3.099  13.313  23.668  0.00  0.00    +0.000 HD
ATOM     14  H   UNL     1      -3.720  13.419  22.114  0.00  0.00    +0.000 HD
ATOM     15  H   UNL     1      -2.288  12.828  20.317  0.00  0.00    +0.000 HD
ENDROOT
BRANCH   8  16
ATOM     16  C   UNL     1       1.897   8.492  19.125  0.00  0.00    +0.000 C 
BRANCH  16  17
ATOM     17  N   UNL     1       2.287   7.513  20.142  0.00  0.00    +0.000 N 
ATOM     18  H   UNL     1       1.894   7.690  21.061  0.00  0.00    +0.000 HD
BRANCH  17  19
ATOM     19  C   UNL     1       2.361   6.157  19.813  0.00  0.00    +0.000 A 
ATOM     20  C   UNL     1       1.629   5.162  20.467  0.00  0.00    +0.000 A 
ATOM     21  C   UNL     1       1.676   3.828  20.045  0.00  0.00    +0.000 A 
ATOM     22  C   UNL     1       2.437   3.448  18.932  0.00  0.00    +0.000 A 
ATOM     23  C   UNL     1       3.159   4.435  18.256  0.00  0.00    +0.000 A 
ATOM     24 CL   UNL     1       4.163   4.098  16.890  0.00  0.00    +0.000 Cl
ATOM     25  C   UNL     1       3.101   5.771  18.685  0.00  0.00    +0.000 A 
BRANCH  22  26
ATOM     26  C   UNL     1       2.413   2.003  18.584  0.00  0.00    +0.000 C 
ATOM     27  O   UNL     1       3.441   1.374  18.377  0.00  0.00    +0.000 OA
BRANCH  26  28
ATOM     28  O   UNL     1       1.203   1.413  18.604  0.00  0.00    +0.000 OA
ATOM     29  H   UNL     1       0.536   1.842  19.175  0.00  0.00    +0.000 HD
ENDBRANCH  26  28
ENDBRANCH  22  26
ENDBRANCH  17  19
ENDBRANCH  16  17
ENDBRANCH   8  16
TORSDOF 5
ENDMDL
MODEL 6
REMARK VINA RESULT:      -7.8      6.247      8.214
REMARK  Name = 
REMARK  5 active torsions:
REMARK  status: ('A' for Active; 'I' for Inactive)
REMARK    1  A    between atoms: C_8  and  C_9
REMARK    2  A    between atoms: C_9  and  N_10
REMARK    3  A    between atoms: N_10  and  C_11
REMARK    4  A    between atoms: C_14  and  C_15
REMARK    5  A    between atoms: C_15  and  O_17
REMARK                            x       y       z     vdW  Elec       q    Type
REMARK                         _______ _______ _______ _____ _____    ______ ____
ROOT
ATOM      1  N   UNL     1       4.033   2.262  18.107  0.00  0.00    +0.000 N 
ATOM      2  C   UNL     1       4.488   3.535  18.020  0.00  0.00    +0.000 A 
ATOM      3  N   UNL     1       3.734   4.466  17.535  0.00  0.00    +0.000 NA
ATOM      4  C   UNL     1       4.246   5.754  17.441  0.00  0.00    +0.000 A 
ATOM      5  O   UNL     1       3.568   6.683  17.014  0.00  0.00    +0.000 OA
ATOM      6  C   UNL     1       5.655   6.016  17.865  0.00  0.00    +0.000 A 
ATOM      7  N   UNL     1       6.191   7.262  17.724  0.00  0.00    +0.000 NA
ATOM      8  C   UNL     1       7.488   7.391  18.110  0.00  0.00    +0.000 A 
ATOM      9  C   UNL     1       8.190   6.304  18.628  0.00  0.00    +0.000 A 
ATOM     10  N   UNL     1       7.654   5.062  18.762  0.00  0.00    +0.000 NA
ATOM     11  C   UNL     1       6.366   4.931  18.364  0.00  0.00    +0.000 A 
ATOM     12  N   UNL     1       5.753   3.691  18.463  0.00  0.00    +0.000 N 
ATOM     13  H   UNL     1       3.029   2.217  17.939  0.00  0.00    +0.000 HD
ATOM     14  H   UNL     1       4.290   1.754  18.943  0.00  0.00    +0.000 HD
ATOM     15  H   UNL     1       6.345   2.923  18.736  0.00  0.00    +0.000 HD
ENDROOT
BRANCH   8  16
ATOM     16  C   UNL     1       8.162   8.735  17.932  0.00  0.00    +0.000 C 
BRANCH  16  17
ATOM     17  N   UNL     1       8.991   9.091  19.086  0.00  0.00    +0.000 N 
ATOM     18  H   UNL     1       9.695   8.398  19.320  0.00  0.00    +0.000 HD
BRANCH  17  19
ATOM     19  C   UNL     1       9.419  10.409  19.259  0.00  0.00    +0.000 A 
ATOM     20  C   UNL     1       9.504  11.037  20.505  0.00  0.00    +0.000 A 
ATOM     21  C   UNL     1      10.018  12.333  20.633  0.00  0.00    +0.000 A 
ATOM     22  C   UNL     1      10.492  13.036  19.517  0.00  0.00    +0.000 A 
ATOM     23  C   UNL     1      10.431  12.414  18.268  0.00  0.00    +0.000 A 
ATOM     24 CL   UNL     1      10.951  13.181  16.809  0.00  0.00    +0.000 Cl
ATOM     25  C   UNL     1       9.918  11.112  18.152  0.00  0.00    +0.000 A 
BRANCH  22  26
ATOM     26  C   UNL     1      11.008  14.406  19.777  0.00  0.00    +0.000 C 
ATOM     27  O   UNL     1      12.203  14.660  19.746  0.00  0.00    +0.000 OA
BRANCH  26  28
ATOM     28  O   UNL     1      10.076  15.363  19.953  0.00  0.00    +0.000 OA
ATOM     29  H   UNL     1      10.422  16.249  20.177  0.00  0.00    +0.000 HD
ENDBRANCH  26  28
ENDBRANCH  22  26
ENDBRANCH  17  19
ENDBRANCH  16  17
ENDBRANCH   8  16
TORSDOF 5
ENDMDL
MODEL 7
REMARK VINA RESULT:      -7.8      6.430      8.389
REMARK  Name = 
REMARK  5 active torsions:
REMARK  status: ('A' for Active; 'I' for Inactive)
REMARK    1  A    between atoms: C_8  and  C_9
REMARK    2  A    between atoms: C_9  and  N_10
REMARK    3  A    between atoms: N_10  and  C_11
REMARK    4  A    between atoms: C_14  and  C_15
REMARK    5  A    between atoms: C_15  and  O_17
REMARK                            x       y       z     vdW  Elec       q    Type
REMARK                         _______ _______ _______ _____ _____    ______ ____
ROOT
ATOM      1  N   UNL     1      -5.775  12.192  17.622  0.00  0.00    +0.000 N 
ATOM      2  C   UNL     1      -4.541  11.648  17.491  0.00  0.00    +0.000 A 
ATOM      3  N   UNL     1      -4.260  10.905  16.472  0.00  0.00    +0.000 NA
ATOM      4  C   UNL     1      -2.991  10.347  16.385  0.00  0.00    +0.000 A 
ATOM      5  O   UNL     1      -2.659   9.655  15.428  0.00  0.00    +0.000 OA
ATOM      6  C   UNL     1      -2.007  10.590  17.484  0.00  0.00    +0.000 A 
ATOM      7  N   UNL     1      -0.778  10.001  17.444  0.00  0.00    +0.000 NA
ATOM      8  C   UNL     1       0.034  10.259  18.503  0.00  0.00    +0.000 A 
ATOM      9  C   UNL     1      -0.389  11.091  19.539  0.00  0.00    +0.000 A 
ATOM     10  N   UNL     1      -1.617  11.671  19.579  0.00  0.00    +0.000 NA
ATOM     11  C   UNL     1      -2.430  11.402  18.530  0.00  0.00    +0.000 A 
ATOM     12  N   UNL     1      -3.703  11.952  18.504  0.00  0.00    +0.000 N 
ATOM     13  H   UNL     1      -6.314  12.095  16.763  0.00  0.00    +0.000 HD
ATOM     14  H   UNL     1      -5.808  13.140  17.973  0.00  0.00    +0.000 HD
ATOM     15  H   UNL     1      -3.990  12.448  19.332  0.00  0.00    +0.000 HD
ENDROOT
BRANCH   8  16
ATOM     16  C   UNL     1       1.394   9.596  18.548  0.00  0.00    +0.000 C 
BRANCH  16  17
ATOM     17  N   UNL     1       1.478   8.586  19.605  0.00  0.00    +0.000 N 
ATOM     18  H   UNL     1       0.641   8.511  20.174  0.00  0.00    +0.000 HD
BRANCH  17  19
ATOM     19  C   UNL     1       2.099   7.361  19.351  0.00  0.00    +0.000 A 
ATOM     20  C   UNL     1       2.990   7.149  18.296  0.00  0.00    +0.000 A 
ATOM     21  C   UNL     1       3.650   5.925  18.134  0.00  0.00    +0.000 A 
ATOM     22  C   UNL     1       3.460   4.876  19.044  0.00  0.00    +0.000 A 
ATOM     23  C   UNL     1       2.587   5.079  20.115  0.00  0.00    +0.000 A 
ATOM     24 CL   UNL     1       2.239   3.860  21.290  0.00  0.00    +0.000 Cl
ATOM     25  C   UNL     1       1.935   6.313  20.271  0.00  0.00    +0.000 A 
BRANCH  22  26
ATOM     26  C   UNL     1       4.210   3.623  18.764  0.00  0.00    +0.000 C 
ATOM     27  O   UNL     1       3.751   2.745  18.049  0.00  0.00    +0.000 OA
BRANCH  26  28
ATOM     28  O   UNL     1       5.457   3.558  19.268  0.00  0.00    +0.000 OA
ATOM     29  H   UNL     1       5.704   2.701  19.668  0.00  0.00    +0.000 HD
ENDBRANCH  26  28
ENDBRANCH  22  26
ENDBRANCH  17  19
ENDBRANCH  16  17
ENDBRANCH   8  16
TORSDOF 5
ENDMDL
MODEL 8
REMARK VINA RESULT:      -7.7      6.186      9.305
REMARK  Name = 
REMARK  5 active torsions:
REMARK  status: ('A' for Active; 'I' for Inactive)
REMARK    1  A    between atoms: C_8  and  C_9
REMARK    2  A    between atoms: C_9  and  N_10
REMARK    3  A    between atoms: N_10  and  C_11
REMARK    4  A    between atoms: C_14  and  C_15
REMARK    5  A    between atoms: C_15  and  O_17
REMARK                            x       y       z     vdW  Elec       q    Type
REMARK                         _______ _______ _______ _____ _____    ______ ____
ROOT
ATOM      1  N   UNL     1       7.087   5.348  15.446  0.00  0.00    +0.000 N 
ATOM      2  C   UNL     1       6.249   5.416  16.508  0.00  0.00    +0.000 A 
ATOM      3  N   UNL     1       6.300   4.521  17.439  0.00  0.00    +0.000 NA
ATOM      4  C   UNL     1       5.409   4.612  18.500  0.00  0.00    +0.000 A 
ATOM      5  O   UNL     1       5.428   3.806  19.424  0.00  0.00    +0.000 OA
ATOM      6  C   UNL     1       4.400   5.715  18.516  0.00  0.00    +0.000 A 
ATOM      7  N   UNL     1       3.480   5.785  19.520  0.00  0.00    +0.000 NA
ATOM      8  C   UNL     1       2.586   6.805  19.430  0.00  0.00    +0.000 A 
ATOM      9  C   UNL     1       2.646   7.714  18.375  0.00  0.00    +0.000 A 
ATOM     10  N   UNL     1       3.561   7.638  17.372  0.00  0.00    +0.000 NA
ATOM     11  C   UNL     1       4.442   6.613  17.456  0.00  0.00    +0.000 A 
ATOM     12  N   UNL     1       5.400   6.465  16.464  0.00  0.00    +0.000 N 
ATOM     13  H   UNL     1       7.824   4.662  15.600  0.00  0.00    +0.000 HD
ATOM     14  H   UNL     1       7.465   6.228  15.120  0.00  0.00    +0.000 HD
ATOM     15  H   UNL     1       5.320   7.082  15.673  0.00  0.00    +0.000 HD
ENDROOT
BRANCH   8  16
ATOM     16  C   UNL     1       1.504   6.912  20.484  0.00  0.00    +0.000 C 
BRANCH  16  17
ATOM     17  N   UNL     1       1.786   7.972  21.454  0.00  0.00    +0.000 N 
ATOM     18  H   UNL     1       2.747   8.298  21.444  0.00  0.00    +0.000 HD
BRANCH  17  19
ATOM     19  C   UNL     1       0.849   8.984  21.674  0.00  0.00    +0.000 A 
ATOM     20  C   UNL     1       0.246   9.224  22.911  0.00  0.00    +0.000 A 
ATOM     21  C   UNL     1      -0.625  10.304  23.100  0.00  0.00    +0.000 A 
ATOM     22  C   UNL     1      -0.900  11.201  22.059  0.00  0.00    +0.000 A 
ATOM     23  C   UNL     1      -0.289  10.986  20.821  0.00  0.00    +0.000 A 
ATOM     24 CL   UNL     1      -0.567  11.995  19.446  0.00  0.00    +0.000 Cl
ATOM     25  C   UNL     1       0.587   9.902  20.645  0.00  0.00    +0.000 A 
BRANCH  22  26
ATOM     26  C   UNL     1      -1.844  12.305  22.377  0.00  0.00    +0.000 C 
ATOM     27  O   UNL     1      -2.998  12.300  21.974  0.00  0.00    +0.000 OA
BRANCH  26  28
ATOM     28  O   UNL     1      -1.380  13.255  23.211  0.00  0.00    +0.000 OA
ATOM     29  H   UNL     1      -0.424  13.446  23.138  0.00  0.00    +0.000 HD
ENDBRANCH  26  28
ENDBRANCH  22  26
ENDBRANCH  17  19
ENDBRANCH  16  17
ENDBRANCH   8  16
TORSDOF 5
ENDMDL
MODEL 9
REMARK VINA RESULT:      -7.7      5.926      7.961
REMARK  Name = 
REMARK  5 active torsions:
REMARK  status: ('A' for Active; 'I' for Inactive)
REMARK    1  A    between atoms: C_8  and  C_9
REMARK    2  A    between atoms: C_9  and  N_10
REMARK    3  A    between atoms: N_10  and  C_11
REMARK    4  A    between atoms: C_14  and  C_15
REMARK    5  A    between atoms: C_15  and  O_17
REMARK                            x       y       z     vdW  Elec       q    Type
REMARK                         _______ _______ _______ _____ _____    ______ ____
ROOT
ATOM      1  N   UNL     1      -5.187  12.609  18.287  0.00  0.00    +0.000 N 
ATOM      2  C   UNL     1      -4.066  11.907  17.997  0.00  0.00    +0.000 A 
ATOM      3  N   UNL     1      -4.007  11.182  16.930  0.00  0.00    +0.000 NA
ATOM      4  C   UNL     1      -2.848  10.459  16.680  0.00  0.00    +0.000 A 
ATOM      5  O   UNL     1      -2.726   9.774  15.669  0.00  0.00    +0.000 OA
ATOM      6  C   UNL     1      -1.725  10.512  17.664  0.00  0.00    +0.000 A 
ATOM      7  N   UNL     1      -0.603   9.762  17.463  0.00  0.00    +0.000 NA
ATOM      8  C   UNL     1       0.348   9.855  18.429  0.00  0.00    +0.000 A 
ATOM      9  C   UNL     1       0.165  10.687  19.532  0.00  0.00    +0.000 A 
ATOM     10  N   UNL     1      -0.956  11.429  19.732  0.00  0.00    +0.000 NA
ATOM     11  C   UNL     1      -1.910  11.324  18.777  0.00  0.00    +0.000 A 
ATOM     12  N   UNL     1      -3.086  12.045  18.916  0.00  0.00    +0.000 N 
ATOM     13  H   UNL     1      -5.826  12.629  17.494  0.00  0.00    +0.000 HD
ATOM     14  H   UNL     1      -5.047  13.536  18.670  0.00  0.00    +0.000 HD
ATOM     15  H   UNL     1      -3.206  12.536  19.787  0.00  0.00    +0.000 HD
ENDROOT
BRANCH   8  16
ATOM     16  C   UNL     1       1.597   9.010  18.295  0.00  0.00    +0.000 C 
BRANCH  16  17
ATOM     17  N   UNL     1       1.899   8.278  19.527  0.00  0.00    +0.000 N 
ATOM     18  H   UNL     1       1.219   8.415  20.268  0.00  0.00    +0.000 HD
BRANCH  17  19
ATOM     19  C   UNL     1       2.406   6.978  19.460  0.00  0.00    +0.000 A 
ATOM     20  C   UNL     1       2.096   5.979  20.387  0.00  0.00    +0.000 A 
ATOM     21  C   UNL     1       2.564   4.669  20.229  0.00  0.00    +0.000 A 
ATOM     22  C   UNL     1       3.338   4.307  19.118  0.00  0.00    +0.000 A 
ATOM     23  C   UNL     1       3.640   5.290  18.174  0.00  0.00    +0.000 A 
ATOM     24 CL   UNL     1       4.612   4.986  16.777  0.00  0.00    +0.000 Cl
ATOM     25  C   UNL     1       3.161   6.600  18.339  0.00  0.00    +0.000 A 
BRANCH  22  26
ATOM     26  C   UNL     1       3.781   2.889  19.063  0.00  0.00    +0.000 C 
ATOM     27  O   UNL     1       3.025   1.991  18.724  0.00  0.00    +0.000 OA
BRANCH  26  28
ATOM     28  O   UNL     1       5.086   2.670  19.316  0.00  0.00    +0.000 OA
ATOM     29  H   UNL     1       5.337   2.676  20.261  0.00  0.00    +0.000 HD
ENDBRANCH  26  28
ENDBRANCH  22  26
ENDBRANCH  17  19
ENDBRANCH  16  17
ENDBRANCH   8  16
TORSDOF 5
ENDMDL
