MODEL 1
REMARK VINA RESULT:      -8.3      0.000      0.000
REMARK  Name = 
REMARK  9 active torsions:
REMARK  status: ('A' for Active; 'I' for Inactive)
REMARK    1  A    between atoms: C_1  and  C_2
REMARK    2  A    between atoms: C_2  and  C_3
REMARK    3  A    between atoms: C_3  and  C_4
REMARK    4  A    between atoms: C_4  and  C_5
REMARK    5  A    between atoms: C_6  and  C_7
REMARK    6  A    between atoms: C_10  and  N_11
REMARK    7  A    between atoms: N_11  and  C_12
REMARK    8  A    between atoms: C_16  and  C_17
REMARK    9  A    between atoms: C_21  and  C_22
REMARK                            x       y       z     vdW  Elec       q    Type
REMARK                         _______ _______ _______ _____ _____    ______ ____
ROOT
ATOM      1  C   UNL     1       7.667   6.879  18.247  0.00  0.00    +0.000 A 
ATOM      2  C   UNL     1       7.450   5.860  19.173  0.00  0.00    +0.000 A 
ATOM      3  C   UNL     1       6.663   4.737  18.834  0.00  0.00    +0.000 A 
ATOM      4  C   UNL     1       6.077   4.593  17.572  0.00  0.00    +0.000 A 
ATOM      5  C   UNL     1       6.241   5.698  16.687  0.00  0.00    +0.000 A 
ATOM      6  C   UNL     1       7.037   6.804  17.012  0.00  0.00    +0.000 A 
ENDROOT
BRANCH   5   7
ATOM      7  C   UNL     1       5.578   5.796  15.353  0.00  0.00    +0.000 C 
ATOM      8  N   UNL     1       5.061   7.016  15.007  0.00  0.00    +0.000 N 
ATOM      9  O   UNL     1       5.545   4.860  14.567  0.00  0.00    +0.000 OA
ATOM     10  H   UNL     1       5.423   7.850  15.458  0.00  0.00    +0.000 HD
ATOM     11  H   UNL     1       4.781   7.099  14.036  0.00  0.00    +0.000 HD
ENDBRANCH   5   7
BRANCH   1  13
ATOM     12  C   UNL     1       8.825   9.195  18.529  0.00  0.00    +0.000 C 
ATOM     13  C   UNL     1       8.404   8.065  18.541  0.00  0.00    +0.000 C 
BRANCH  12  14
ATOM     14  C   UNL     1       8.943  10.635  18.295  0.00  0.00    +0.000 C 
BRANCH  14  15
ATOM     15  C   UNL     1      10.080  11.092  19.216  0.00  0.00    +0.000 C 
BRANCH  15  17
ATOM     16  C   UNL     1      10.877  12.507  17.359  0.00  0.00    +0.000 C 
ATOM     17  C   UNL     1      11.318  11.628  18.523  0.00  0.00    +0.000 C 
ENDBRANCH  15  17
ENDBRANCH  14  15
ENDBRANCH  12  14
ENDBRANCH   1  13
BRANCH   4  18
ATOM     18  N   UNL     1       5.381   3.481  17.154  0.00  0.00    +0.000 N 
ATOM     19  H   UNL     1       6.013   2.800  16.722  0.00  0.00    +0.000 HD
BRANCH  18  20
ATOM     20  C   UNL     1       4.023   2.938  17.204  0.00  0.00    +0.000 C 
ATOM     21  C   UNL     1       2.938   3.994  17.149  0.00  0.00    +0.000 C 
ATOM     22  C   UNL     1       2.474   4.452  18.515  0.00  0.00    +0.000 C 
ATOM     23  N   UNL     1       2.197   3.384  19.471  0.00  0.00    +0.000 N 
ATOM     24  C   UNL     1       1.578   3.818  20.654  0.00  0.00    +0.000 C 
ATOM     25  C   UNL     1       1.341   2.797  21.739  0.00  0.00    +0.000 C 
ATOM     26  O   UNL     1       1.244   4.991  20.834  0.00  0.00    +0.000 OA
ATOM     27  C   UNL     1       3.076   2.216  19.498  0.00  0.00    +0.000 C 
ATOM     28  C   UNL     1       3.715   1.813  18.176  0.00  0.00    +0.000 C 
ENDBRANCH  18  20
ENDBRANCH   4  18
TORSDOF 7
ENDMDL
MODEL 2
REMARK VINA RESULT:      -8.2      1.019      1.138
REMARK  Name = 
REMARK  9 active torsions:
REMARK  status: ('A' for Active; 'I' for Inactive)
REMARK    1  A    between atoms: C_1  and  C_2
REMARK    2  A    between atoms: C_2  and  C_3
REMARK    3  A    between atoms: C_3  and  C_4
REMARK    4  A    between atoms: C_4  and  C_5
REMARK    5  A    between atoms: C_6  and  C_7
REMARK    6  A    between atoms: C_10  and  N_11
REMARK    7  A    between atoms: N_11  and  C_12
REMARK    8  A    between atoms: C_16  and  C_17
REMARK    9  A    between atoms: C_21  and  C_22
REMARK                            x       y       z     vdW  Elec       q    Type
REMARK                         _______ _______ _______ _____ _____    ______ ____
ROOT
ATOM      1  C   UNL     1       7.176   7.006  17.589  0.00  0.00    +0.000 A 
ATOM      2  C   UNL     1       6.443   6.420  18.620  0.00  0.00    +0.000 A 
ATOM      3  C   UNL     1       5.736   5.218  18.405  0.00  0.00    +0.000 A 
ATOM      4  C   UNL     1       5.740   4.563  17.168  0.00  0.00    +0.000 A 
ATOM      5  C   UNL     1       6.420   5.241  16.114  0.00  0.00    +0.000 A 
ATOM      6  C   UNL     1       7.139   6.424  16.329  0.00  0.00    +0.000 A 
ENDROOT
BRANCH   5   7
ATOM      7  C   UNL     1       6.420   4.778  14.696  0.00  0.00    +0.000 C 
ATOM      8  N   UNL     1       7.474   5.172  13.915  0.00  0.00    +0.000 N 
ATOM      9  O   UNL     1       5.562   4.029  14.250  0.00  0.00    +0.000 OA
ATOM     10  H   UNL     1       8.343   5.441  14.363  0.00  0.00    +0.000 HD
ATOM     11  H   UNL     1       7.540   4.702  13.020  0.00  0.00    +0.000 HD
ENDBRANCH   5   7
BRANCH   1  13
ATOM     12  C   UNL     1       8.430   9.213  18.178  0.00  0.00    +0.000 C 
ATOM     13  C   UNL     1       7.868   8.248  17.723  0.00  0.00    +0.000 C 
BRANCH  12  14
ATOM     14  C   UNL     1       9.148  10.105  19.089  0.00  0.00    +0.000 C 
BRANCH  14  15
ATOM     15  C   UNL     1       9.959  11.031  18.176  0.00  0.00    +0.000 C 
BRANCH  15  17
ATOM     16  C   UNL     1      11.025  11.894  20.225  0.00  0.00    +0.000 C 
ATOM     17  C   UNL     1      10.535  12.271  18.833  0.00  0.00    +0.000 C 
ENDBRANCH  15  17
ENDBRANCH  14  15
ENDBRANCH  12  14
ENDBRANCH   1  13
BRANCH   4  18
ATOM     18  N   UNL     1       5.149   3.343  16.925  0.00  0.00    +0.000 N 
ATOM     19  H   UNL     1       5.835   2.676  16.559  0.00  0.00    +0.000 HD
BRANCH  18  20
ATOM     20  C   UNL     1       3.854   2.683  17.099  0.00  0.00    +0.000 C 
ATOM     21  C   UNL     1       2.669   3.622  17.002  0.00  0.00    +0.000 C 
ATOM     22  C   UNL     1       2.224   4.168  18.342  0.00  0.00    +0.000 C 
ATOM     23  N   UNL     1       2.096   3.178  19.407  0.00  0.00    +0.000 N 
ATOM     24  C   UNL     1       1.490   3.667  20.576  0.00  0.00    +0.000 C 
ATOM     25  C   UNL     1       1.403   2.741  21.764  0.00  0.00    +0.000 C 
ATOM     26  O   UNL     1       1.050   4.815  20.663  0.00  0.00    +0.000 OA
ATOM     27  C   UNL     1       3.086   2.106  19.497  0.00  0.00    +0.000 C 
ATOM     28  C   UNL     1       3.702   1.636  18.187  0.00  0.00    +0.000 C 
ENDBRANCH  18  20
ENDBRANCH   4  18
TORSDOF 7
ENDMDL
MODEL 3
REMARK VINA RESULT:      -7.7      0.970      1.286
REMARK  Name = 
REMARK  9 active torsions:
REMARK  status: ('A' for Active; 'I' for Inactive)
REMARK    1  A    between atoms: C_1  and  C_2
REMARK    2  A    between atoms: C_2  and  C_3
REMARK    3  A    between atoms: C_3  and  C_4
REMARK    4  A    between atoms: C_4  and  C_5
REMARK    5  A    between atoms: C_6  and  C_7
REMARK    6  A    between atoms: C_10  and  N_11
REMARK    7  A    between atoms: N_11  and  C_12
REMARK    8  A    between atoms: C_16  and  C_17
REMARK    9  A    between atoms: C_21  and  C_22
REMARK                            x       y       z     vdW  Elec       q    Type
REMARK                         _______ _______ _______ _____ _____    ______ ____
ROOT
ATOM      1  C   UNL     1       7.892   7.211  18.401  0.00  0.00    +0.000 A 
ATOM      2  C   UNL     1       7.547   6.270  19.369  0.00  0.00    +0.000 A 
ATOM      3  C   UNL     1       6.778   5.136  19.027  0.00  0.00    +0.000 A 
ATOM      4  C   UNL     1       6.339   4.901  17.720  0.00  0.00    +0.000 A 
ATOM      5  C   UNL     1       6.630   5.931  16.778  0.00  0.00    +0.000 A 
ATOM      6  C   UNL     1       7.408   7.049  17.110  0.00  0.00    +0.000 A 
ENDROOT
BRANCH   5   7
ATOM      7  C   UNL     1       6.128   5.934  15.373  0.00  0.00    +0.000 C 
ATOM      8  N   UNL     1       6.902   5.298  14.438  0.00  0.00    +0.000 N 
ATOM      9  O   UNL     1       5.050   6.419  15.062  0.00  0.00    +0.000 OA
ATOM     10  H   UNL     1       7.557   4.586  14.744  0.00  0.00    +0.000 HD
ATOM     11  H   UNL     1       6.455   5.162  13.539  0.00  0.00    +0.000 HD
ENDBRANCH   5   7
BRANCH   1  13
ATOM     12  C   UNL     1       9.124   9.497  18.603  0.00  0.00    +0.000 C 
ATOM     13  C   UNL     1       8.618   8.406  18.688  0.00  0.00    +0.000 C 
BRANCH  12  14
ATOM     14  C   UNL     1       9.434  10.859  18.165  0.00  0.00    +0.000 C 
BRANCH  14  15
ATOM     15  C   UNL     1      10.082  11.527  19.383  0.00  0.00    +0.000 C 
BRANCH  15  17
ATOM     16  C   UNL     1       9.631  12.422  21.636  0.00  0.00    +0.000 C 
ATOM     17  C   UNL     1       9.448  11.215  20.724  0.00  0.00    +0.000 C 
ENDBRANCH  15  17
ENDBRANCH  14  15
ENDBRANCH  12  14
ENDBRANCH   1  13
BRANCH   4  18
ATOM     18  N   UNL     1       5.671   3.770  17.309  0.00  0.00    +0.000 N 
ATOM     19  H   UNL     1       6.334   3.042  17.026  0.00  0.00    +0.000 HD
BRANCH  18  20
ATOM     20  C   UNL     1       4.302   3.259  17.222  0.00  0.00    +0.000 C 
ATOM     21  C   UNL     1       3.242   4.342  17.233  0.00  0.00    +0.000 C 
ATOM     22  C   UNL     1       2.711   4.649  18.617  0.00  0.00    +0.000 C 
ATOM     23  N   UNL     1       2.361   3.484  19.424  0.00  0.00    +0.000 N 
ATOM     24  C   UNL     1       1.685   3.793  20.615  0.00  0.00    +0.000 C 
ATOM     25  C   UNL     1       1.368   2.659  21.558  0.00  0.00    +0.000 C 
ATOM     26  O   UNL     1       1.363   4.945  20.914  0.00  0.00    +0.000 OA
ATOM     27  C   UNL     1       3.215   2.299  19.360  0.00  0.00    +0.000 C 
ATOM     28  C   UNL     1       3.919   2.037  18.036  0.00  0.00    +0.000 C 
ENDBRANCH  18  20
ENDBRANCH   4  18
TORSDOF 7
ENDMDL
MODEL 4
REMARK VINA RESULT:      -7.2      4.077      7.473
REMARK  Name = 
REMARK  9 active torsions:
REMARK  status: ('A' for Active; 'I' for Inactive)
REMARK    1  A    between atoms: C_1  and  C_2
REMARK    2  A    between atoms: C_2  and  C_3
REMARK    3  A    between atoms: C_3  and  C_4
REMARK    4  A    between atoms: C_4  and  C_5
REMARK    5  A    between atoms: C_6  and  C_7
REMARK    6  A    between atoms: C_10  and  N_11
REMARK    7  A    between atoms: N_11  and  C_12
REMARK    8  A    between atoms: C_16  and  C_17
REMARK    9  A    between atoms: C_21  and  C_22
REMARK                            x       y       z     vdW  Elec       q    Type
REMARK                         _______ _______ _______ _____ _____    ______ ____
ROOT
ATOM      1  C   UNL     1       1.436   7.697  20.665  0.00  0.00    +0.000 A 
ATOM      2  C   UNL     1       2.136   7.885  19.475  0.00  0.00    +0.000 A 
ATOM      3  C   UNL     1       2.619   6.778  18.743  0.00  0.00    +0.000 A 
ATOM      4  C   UNL     1       2.415   5.460  19.167  0.00  0.00    +0.000 A 
ATOM      5  C   UNL     1       1.780   5.311  20.434  0.00  0.00    +0.000 A 
ATOM      6  C   UNL     1       1.283   6.406  21.154  0.00  0.00    +0.000 A 
ENDROOT
BRANCH   5   7
ATOM      7  C   UNL     1       1.599   3.999  21.121  0.00  0.00    +0.000 C 
ATOM      8  N   UNL     1       0.621   3.174  20.631  0.00  0.00    +0.000 N 
ATOM      9  O   UNL     1       2.321   3.632  22.037  0.00  0.00    +0.000 OA
ATOM     10  H   UNL     1       0.310   3.295  19.673  0.00  0.00    +0.000 HD
ATOM     11  H   UNL     1       0.640   2.229  20.997  0.00  0.00    +0.000 HD
ENDBRANCH   5   7
BRANCH   1  13
ATOM     12  C   UNL     1       0.296   9.463  22.205  0.00  0.00    +0.000 C 
ATOM     13  C   UNL     1       0.969   8.771  21.482  0.00  0.00    +0.000 C 
BRANCH  12  14
ATOM     14  C   UNL     1      -0.726   9.903  23.156  0.00  0.00    +0.000 C 
BRANCH  14  15
ATOM     15  C   UNL     1      -0.932  11.391  22.851  0.00  0.00    +0.000 C 
BRANCH  15  17
ATOM     16  C   UNL     1      -0.429  12.862  20.936  0.00  0.00    +0.000 C 
ATOM     17  C   UNL     1      -1.321  11.727  21.424  0.00  0.00    +0.000 C 
ENDBRANCH  15  17
ENDBRANCH  14  15
ENDBRANCH  12  14
ENDBRANCH   1  13
BRANCH   4  18
ATOM     18  N   UNL     1       2.779   4.342  18.450  0.00  0.00    +0.000 N 
ATOM     19  H   UNL     1       1.982   3.980  17.918  0.00  0.00    +0.000 HD
BRANCH  18  20
ATOM     20  C   UNL     1       3.975   3.552  18.155  0.00  0.00    +0.000 C 
ATOM     21  C   UNL     1       5.246   4.118  18.755  0.00  0.00    +0.000 C 
ATOM     22  C   UNL     1       5.997   5.037  17.816  0.00  0.00    +0.000 C 
ATOM     23  N   UNL     1       6.169   4.534  16.456  0.00  0.00    +0.000 N 
ATOM     24  C   UNL     1       7.038   5.304  15.665  0.00  0.00    +0.000 C 
ATOM     25  C   UNL     1       7.201   4.913  14.217  0.00  0.00    +0.000 C 
ATOM     26  O   UNL     1       7.646   6.280  16.107  0.00  0.00    +0.000 OA
ATOM     27  C   UNL     1       5.068   3.807  15.828  0.00  0.00    +0.000 C 
ATOM     28  C   UNL     1       4.167   3.002  16.754  0.00  0.00    +0.000 C 
ENDBRANCH  18  20
ENDBRANCH   4  18
TORSDOF 7
ENDMDL
MODEL 5
REMARK VINA RESULT:      -7.1      3.769      7.272
REMARK  Name = 
REMARK  9 active torsions:
REMARK  status: ('A' for Active; 'I' for Inactive)
REMARK    1  A    between atoms: C_1  and  C_2
REMARK    2  A    between atoms: C_2  and  C_3
REMARK    3  A    between atoms: C_3  and  C_4
REMARK    4  A    between atoms: C_4  and  C_5
REMARK    5  A    between atoms: C_6  and  C_7
REMARK    6  A    between atoms: C_10  and  N_11
REMARK    7  A    between atoms: N_11  and  C_12
REMARK    8  A    between atoms: C_16  and  C_17
REMARK    9  A    between atoms: C_21  and  C_22
REMARK                            x       y       z     vdW  Elec       q    Type
REMARK                         _______ _______ _______ _____ _____    ______ ____
ROOT
ATOM      1  C   UNL     1       1.454   7.667  20.646  0.00  0.00    +0.000 A 
ATOM      2  C   UNL     1       2.169   7.846  19.463  0.00  0.00    +0.000 A 
ATOM      3  C   UNL     1       2.666   6.734  18.749  0.00  0.00    +0.000 A 
ATOM      4  C   UNL     1       2.464   5.420  19.184  0.00  0.00    +0.000 A 
ATOM      5  C   UNL     1       1.813   5.281  20.445  0.00  0.00    +0.000 A 
ATOM      6  C   UNL     1       1.302   6.381  21.147  0.00  0.00    +0.000 A 
ENDROOT
BRANCH   5   7
ATOM      7  C   UNL     1       1.630   3.975  21.143  0.00  0.00    +0.000 C 
ATOM      8  N   UNL     1       0.660   3.142  20.653  0.00  0.00    +0.000 N 
ATOM      9  O   UNL     1       2.345   3.621  22.070  0.00  0.00    +0.000 OA
ATOM     10  H   UNL     1       0.357   3.252  19.692  0.00  0.00    +0.000 HD
ATOM     11  H   UNL     1       0.679   2.201  21.029  0.00  0.00    +0.000 HD
ENDBRANCH   5   7
BRANCH   1  13
ATOM     12  C   UNL     1       0.491   9.794  21.802  0.00  0.00    +0.000 C 
ATOM     13  C   UNL     1       0.972   8.748  21.446  0.00  0.00    +0.000 C 
BRANCH  12  14
ATOM     14  C   UNL     1      -0.259  11.052  21.811  0.00  0.00    +0.000 C 
BRANCH  14  15
ATOM     15  C   UNL     1      -0.965  11.099  20.451  0.00  0.00    +0.000 C 
BRANCH  15  17
ATOM     16  C   UNL     1      -0.789  10.314  18.120  0.00  0.00    +0.000 C 
ATOM     17  C   UNL     1      -0.061  11.057  19.234  0.00  0.00    +0.000 C 
ENDBRANCH  15  17
ENDBRANCH  14  15
ENDBRANCH  12  14
ENDBRANCH   1  13
BRANCH   4  18
ATOM     18  N   UNL     1       2.841   4.296  18.484  0.00  0.00    +0.000 N 
ATOM     19  H   UNL     1       2.043   3.901  17.977  0.00  0.00    +0.000 HD
BRANCH  18  20
ATOM     20  C   UNL     1       4.052   3.532  18.180  0.00  0.00    +0.000 C 
ATOM     21  C   UNL     1       5.317   4.134  18.756  0.00  0.00    +0.000 C 
ATOM     22  C   UNL     1       6.033   5.061  17.797  0.00  0.00    +0.000 C 
ATOM     23  N   UNL     1       6.198   4.548  16.440  0.00  0.00    +0.000 N 
ATOM     24  C   UNL     1       7.037   5.329  15.629  0.00  0.00    +0.000 C 
ATOM     25  C   UNL     1       7.189   4.928  14.182  0.00  0.00    +0.000 C 
ATOM     26  O   UNL     1       7.628   6.324  16.053  0.00  0.00    +0.000 OA
ATOM     27  C   UNL     1       5.106   3.788  15.835  0.00  0.00    +0.000 C 
ATOM     28  C   UNL     1       4.237   2.971  16.782  0.00  0.00    +0.000 C 
ENDBRANCH  18  20
ENDBRANCH   4  18
TORSDOF 7
ENDMDL
MODEL 6
REMARK VINA RESULT:      -7.1      4.629      7.739
REMARK  Name = 
REMARK  9 active torsions:
REMARK  status: ('A' for Active; 'I' for Inactive)
REMARK    1  A    between atoms: C_1  and  C_2
REMARK    2  A    between atoms: C_2  and  C_3
REMARK    3  A    between atoms: C_3  and  C_4
REMARK    4  A    between atoms: C_4  and  C_5
REMARK    5  A    between atoms: C_6  and  C_7
REMARK    6  A    between atoms: C_10  and  N_11
REMARK    7  A    between atoms: N_11  and  C_12
REMARK    8  A    between atoms: C_16  and  C_17
REMARK    9  A    between atoms: C_21  and  C_22
REMARK                            x       y       z     vdW  Elec       q    Type
REMARK                         _______ _______ _______ _____ _____    ______ ____
ROOT
ATOM      1  C   UNL     1       1.112   8.037  21.030  0.00  0.00    +0.000 A 
ATOM      2  C   UNL     1       1.674   8.595  19.884  0.00  0.00    +0.000 A 
ATOM      3  C   UNL     1       2.185   7.769  18.858  0.00  0.00    +0.000 A 
ATOM      4  C   UNL     1       2.145   6.373  18.939  0.00  0.00    +0.000 A 
ATOM      5  C   UNL     1       1.651   5.840  20.165  0.00  0.00    +0.000 A 
ATOM      6  C   UNL     1       1.126   6.656  21.177  0.00  0.00    +0.000 A 
ENDROOT
BRANCH   5   7
ATOM      7  C   UNL     1       1.658   4.386  20.499  0.00  0.00    +0.000 C 
ATOM      8  N   UNL     1       2.300   4.018  21.652  0.00  0.00    +0.000 N 
ATOM      9  O   UNL     1       1.070   3.554  19.822  0.00  0.00    +0.000 OA
ATOM     10  H   UNL     1       2.432   4.709  22.383  0.00  0.00    +0.000 HD
ATOM     11  H   UNL     1       2.137   3.061  21.942  0.00  0.00    +0.000 HD
ENDBRANCH   5   7
BRANCH   1  13
ATOM     12  C   UNL     1       0.011   9.598  22.801  0.00  0.00    +0.000 C 
ATOM     13  C   UNL     1       0.629   8.812  22.127  0.00  0.00    +0.000 C 
BRANCH  12  14
ATOM     14  C   UNL     1      -1.022  10.526  23.265  0.00  0.00    +0.000 C 
BRANCH  14  15
ATOM     15  C   UNL     1      -0.957  11.707  22.290  0.00  0.00    +0.000 C 
BRANCH  15  17
ATOM     16  C   UNL     1      -3.141  12.400  23.204  0.00  0.00    +0.000 C 
ATOM     17  C   UNL     1      -1.816  12.905  22.644  0.00  0.00    +0.000 C 
ENDBRANCH  15  17
ENDBRANCH  14  15
ENDBRANCH  12  14
ENDBRANCH   1  13
BRANCH   4  18
ATOM     18  N   UNL     1       2.539   5.519  17.933  0.00  0.00    +0.000 N 
ATOM     19  H   UNL     1       1.725   5.149  17.433  0.00  0.00    +0.000 HD
BRANCH  18  20
ATOM     20  C   UNL     1       3.770   5.032  17.309  0.00  0.00    +0.000 C 
ATOM     21  C   UNL     1       4.495   3.979  18.123  0.00  0.00    +0.000 C 
ATOM     22  C   UNL     1       5.552   4.552  19.042  0.00  0.00    +0.000 C 
ATOM     23  N   UNL     1       6.446   5.532  18.432  0.00  0.00    +0.000 N 
ATOM     24  C   UNL     1       7.537   5.894  19.238  0.00  0.00    +0.000 C 
ATOM     25  C   UNL     1       8.460   6.973  18.727  0.00  0.00    +0.000 C 
ATOM     26  O   UNL     1       7.748   5.378  20.336  0.00  0.00    +0.000 OA
ATOM     27  C   UNL     1       5.892   6.496  17.482  0.00  0.00    +0.000 C 
ATOM     28  C   UNL     1       4.706   6.029  16.650  0.00  0.00    +0.000 C 
ENDBRANCH  18  20
ENDBRANCH   4  18
TORSDOF 7
ENDMDL
MODEL 7
REMARK VINA RESULT:      -7.0      1.906      2.926
REMARK  Name = 
REMARK  9 active torsions:
REMARK  status: ('A' for Active; 'I' for Inactive)
REMARK    1  A    between atoms: C_1  and  C_2
REMARK    2  A    between atoms: C_2  and  C_3
REMARK    3  A    between atoms: C_3  and  C_4
REMARK    4  A    between atoms: C_4  and  C_5
REMARK    5  A    between atoms: C_6  and  C_7
REMARK    6  A    between atoms: C_10  and  N_11
REMARK    7  A    between atoms: N_11  and  C_12
REMARK    8  A    between atoms: C_16  and  C_17
REMARK    9  A    between atoms: C_21  and  C_22
REMARK                            x       y       z     vdW  Elec       q    Type
REMARK                         _______ _______ _______ _____ _____    ______ ____
ROOT
ATOM      1  C   UNL     1       8.499   8.993  18.595  0.00  0.00    +0.000 A 
ATOM      2  C   UNL     1       7.643   9.271  17.531  0.00  0.00    +0.000 A 
ATOM      3  C   UNL     1       6.830   8.257  16.979  0.00  0.00    +0.000 A 
ATOM      4  C   UNL     1       6.839   6.947  17.469  0.00  0.00    +0.000 A 
ATOM      5  C   UNL     1       7.795   6.678  18.493  0.00  0.00    +0.000 A 
ATOM      6  C   UNL     1       8.589   7.686  19.056  0.00  0.00    +0.000 A 
ENDROOT
BRANCH   5   7
ATOM      7  C   UNL     1       8.055   5.317  19.046  0.00  0.00    +0.000 C 
ATOM      8  N   UNL     1       8.412   5.244  20.367  0.00  0.00    +0.000 N 
ATOM      9  O   UNL     1       7.901   4.300  18.386  0.00  0.00    +0.000 OA
ATOM     10  H   UNL     1       8.161   6.006  20.987  0.00  0.00    +0.000 HD
ATOM     11  H   UNL     1       8.407   4.308  20.757  0.00  0.00    +0.000 HD
ENDBRANCH   5   7
BRANCH   1  13
ATOM     12  C   UNL     1       9.830  10.919  19.737  0.00  0.00    +0.000 C 
ATOM     13  C   UNL     1       9.387   9.956  19.164  0.00  0.00    +0.000 C 
BRANCH  12  14
ATOM     14  C   UNL     1       9.948  12.092  20.605  0.00  0.00    +0.000 C 
BRANCH  14  15
ATOM     15  C   UNL     1      10.653  13.149  19.747  0.00  0.00    +0.000 C 
BRANCH  15  17
ATOM     16  C   UNL     1      10.657  13.373  17.291  0.00  0.00    +0.000 C 
ATOM     17  C   UNL     1       9.866  13.669  18.559  0.00  0.00    +0.000 C 
ENDBRANCH  15  17
ENDBRANCH  14  15
ENDBRANCH  12  14
ENDBRANCH   1  13
BRANCH   4  18
ATOM     18  N   UNL     1       6.003   5.942  17.036  0.00  0.00    +0.000 N 
ATOM     19  H   UNL     1       6.543   5.110  16.778  0.00  0.00    +0.000 HD
BRANCH  18  20
ATOM     20  C   UNL     1       4.572   5.672  16.897  0.00  0.00    +0.000 C 
ATOM     21  C   UNL     1       3.695   6.545  17.772  0.00  0.00    +0.000 C 
ATOM     22  C   UNL     1       3.371   5.921  19.112  0.00  0.00    +0.000 C 
ATOM     23  N   UNL     1       2.938   4.527  19.063  0.00  0.00    +0.000 N 
ATOM     24  C   UNL     1       2.450   4.034  20.284  0.00  0.00    +0.000 C 
ATOM     25  C   UNL     1       2.070   2.575  20.351  0.00  0.00    +0.000 C 
ATOM     26  O   UNL     1       2.341   4.741  21.287  0.00  0.00    +0.000 OA
ATOM     27  C   UNL     1       3.591   3.618  18.122  0.00  0.00    +0.000 C 
ATOM     28  C   UNL     1       4.099   4.231  16.824  0.00  0.00    +0.000 C 
ENDBRANCH  18  20
ENDBRANCH   4  18
TORSDOF 7
ENDMDL
MODEL 8
REMARK VINA RESULT:      -7.0      4.428      7.330
REMARK  Name = 
REMARK  9 active torsions:
REMARK  status: ('A' for Active; 'I' for Inactive)
REMARK    1  A    between atoms: C_1  and  C_2
REMARK    2  A    between atoms: C_2  and  C_3
REMARK    3  A    between atoms: C_3  and  C_4
REMARK    4  A    between atoms: C_4  and  C_5
REMARK    5  A    between atoms: C_6  and  C_7
REMARK    6  A    between atoms: C_10  and  N_11
REMARK    7  A    between atoms: N_11  and  C_12
REMARK    8  A    between atoms: C_16  and  C_17
REMARK    9  A    between atoms: C_21  and  C_22
REMARK                            x       y       z     vdW  Elec       q    Type
REMARK                         _______ _______ _______ _____ _____    ______ ____
ROOT
ATOM      1  C   UNL     1       5.206   4.978  15.830  0.00  0.00    +0.000 A 
ATOM      2  C   UNL     1       5.234   6.371  15.864  0.00  0.00    +0.000 A 
ATOM      3  C   UNL     1       4.485   7.081  16.828  0.00  0.00    +0.000 A 
ATOM      4  C   UNL     1       3.697   6.430  17.784  0.00  0.00    +0.000 A 
ATOM      5  C   UNL     1       3.619   5.013  17.658  0.00  0.00    +0.000 A 
ATOM      6  C   UNL     1       4.376   4.304  16.715  0.00  0.00    +0.000 A 
ENDROOT
BRANCH   5   7
ATOM      7  C   UNL     1       2.725   4.155  18.490  0.00  0.00    +0.000 C 
ATOM      8  N   UNL     1       2.025   3.175  17.838  0.00  0.00    +0.000 N 
ATOM      9  O   UNL     1       2.657   4.265  19.706  0.00  0.00    +0.000 OA
ATOM     10  H   UNL     1       2.368   2.837  16.945  0.00  0.00    +0.000 HD
ATOM     11  H   UNL     1       1.571   2.502  18.445  0.00  0.00    +0.000 HD
ENDBRANCH   5   7
BRANCH   1  13
ATOM     12  C   UNL     1       6.307   3.767  13.802  0.00  0.00    +0.000 C 
ATOM     13  C   UNL     1       5.894   4.201  14.849  0.00  0.00    +0.000 C 
BRANCH  12  14
ATOM     14  C   UNL     1       6.670   3.650  12.389  0.00  0.00    +0.000 C 
BRANCH  14  15
ATOM     15  C   UNL     1       5.528   2.849  11.754  0.00  0.00    +0.000 C 
BRANCH  15  17
ATOM     16  C   UNL     1       3.435   3.131  10.481  0.00  0.00    +0.000 C 
ATOM     17  C   UNL     1       4.167   3.519  11.760  0.00  0.00    +0.000 C 
ENDBRANCH  15  17
ENDBRANCH  14  15
ENDBRANCH  12  14
ENDBRANCH   1  13
BRANCH   4  18
ATOM     18  N   UNL     1       3.023   7.063  18.805  0.00  0.00    +0.000 N 
ATOM     19  H   UNL     1       3.646   7.229  19.601  0.00  0.00    +0.000 HD
BRANCH  18  20
ATOM     20  C   UNL     1       1.705   7.639  19.075  0.00  0.00    +0.000 C 
ATOM     21  C   UNL     1       1.160   8.482  17.940  0.00  0.00    +0.000 C 
ATOM     22  C   UNL     1       1.490   9.953  18.071  0.00  0.00    +0.000 C 
ATOM     23  N   UNL     1       1.251  10.531  19.391  0.00  0.00    +0.000 N 
ATOM     24  C   UNL     1       1.367  11.930  19.435  0.00  0.00    +0.000 C 
ATOM     25  C   UNL     1       1.232  12.604  20.778  0.00  0.00    +0.000 C 
ATOM     26  O   UNL     1       1.590  12.607  18.430  0.00  0.00    +0.000 OA
ATOM     27  C   UNL     1       1.571   9.738  20.577  0.00  0.00    +0.000 C 
ATOM     28  C   UNL     1       1.426   8.228  20.446  0.00  0.00    +0.000 C 
ENDBRANCH  18  20
ENDBRANCH   4  18
TORSDOF 7
ENDMDL
MODEL 9
REMARK VINA RESULT:      -6.9      6.835      9.610
REMARK  Name = 
REMARK  9 active torsions:
REMARK  status: ('A' for Active; 'I' for Inactive)
REMARK    1  A    between atoms: C_1  and  C_2
REMARK    2  A    between atoms: C_2  and  C_3
REMARK    3  A    between atoms: C_3  and  C_4
REMARK    4  A    between atoms: C_4  and  C_5
REMARK    5  A    between atoms: C_6  and  C_7
REMARK    6  A    between atoms: C_10  and  N_11
REMARK    7  A    between atoms: N_11  and  C_12
REMARK    8  A    between atoms: C_16  and  C_17
REMARK    9  A    between atoms: C_21  and  C_22
REMARK                            x       y       z     vdW  Elec       q    Type
REMARK                         _______ _______ _______ _____ _____    ______ ____
ROOT
ATOM      1  C   UNL     1       2.368   7.693  18.759  0.00  0.00    +0.000 A 
ATOM      2  C   UNL     1       1.912   8.512  17.728  0.00  0.00    +0.000 A 
ATOM      3  C   UNL     1       1.059   9.603  18.001  0.00  0.00    +0.000 A 
ATOM      4  C   UNL     1       0.641   9.914  19.300  0.00  0.00    +0.000 A 
ATOM      5  C   UNL     1       1.049   8.999  20.314  0.00  0.00    +0.000 A 
ATOM      6  C   UNL     1       1.911   7.926  20.050  0.00  0.00    +0.000 A 
ENDROOT
BRANCH   5   7
ATOM      7  C   UNL     1       0.592   9.077  21.733  0.00  0.00    +0.000 C 
ATOM      8  N   UNL     1      -0.617   8.505  22.027  0.00  0.00    +0.000 N 
ATOM      9  O   UNL     1       1.280   9.568  22.617  0.00  0.00    +0.000 OA
ATOM     10  H   UNL     1      -0.981   7.783  21.414  0.00  0.00    +0.000 HD
ATOM     11  H   UNL     1      -0.815   8.416  23.017  0.00  0.00    +0.000 HD
ENDBRANCH   5   7
BRANCH   1  13
ATOM     12  C   UNL     1       3.595   5.469  18.181  0.00  0.00    +0.000 C 
ATOM     13  C   UNL     1       3.186   6.542  18.547  0.00  0.00    +0.000 C 
BRANCH  12  14
ATOM     14  C   UNL     1       3.758   4.222  17.432  0.00  0.00    +0.000 C 
BRANCH  14  15
ATOM     15  C   UNL     1       2.349   3.627  17.346  0.00  0.00    +0.000 C 
BRANCH  15  17
ATOM     16  C   UNL     1       0.828   2.452  18.893  0.00  0.00    +0.000 C 
ATOM     17  C   UNL     1       2.129   2.333  18.108  0.00  0.00    +0.000 C 
ENDBRANCH  15  17
ENDBRANCH  14  15
ENDBRANCH  12  14
ENDBRANCH   1  13
BRANCH   4  18
ATOM     18  N   UNL     1      -0.111  11.017  19.638  0.00  0.00    +0.000 N 
ATOM     19  H   UNL     1      -0.055  11.197  20.645  0.00  0.00    +0.000 HD
BRANCH  18  20
ATOM     20  C   UNL     1      -0.909  12.057  18.989  0.00  0.00    +0.000 C 
ATOM     21  C   UNL     1      -1.598  12.996  19.959  0.00  0.00    +0.000 C 
ATOM     22  C   UNL     1      -3.006  12.568  20.313  0.00  0.00    +0.000 C 
ATOM     23  N   UNL     1      -3.844  12.183  19.181  0.00  0.00    +0.000 N 
ATOM     24  C   UNL     1      -5.196  11.988  19.508  0.00  0.00    +0.000 C 
ATOM     25  C   UNL     1      -6.118  11.496  18.420  0.00  0.00    +0.000 C 
ATOM     26  O   UNL     1      -5.639  12.188  20.641  0.00  0.00    +0.000 OA
ATOM     27  C   UNL     1      -3.246  11.423  18.086  0.00  0.00    +0.000 C 
ATOM     28  C   UNL     1      -1.774  11.686  17.798  0.00  0.00    +0.000 C 
ENDBRANCH  18  20
ENDBRANCH   4  18
TORSDOF 7
ENDMDL
