MODEL 1
REMARK VINA RESULT:      -7.9      0.000      0.000
REMARK  Name = 
REMARK  8 active torsions:
REMARK  status: ('A' for Active; 'I' for Inactive)
REMARK    1  A    between atoms: C_1  and  O_2
REMARK    2  A    between atoms: O_2  and  C_3
REMARK    3  A    between atoms: C_8  and  C_9
REMARK    4  A    between atoms: N_11  and  C_12
REMARK    5  A    between atoms: N_11  and  C_13
REMARK    6  A    between atoms: C_13  and  C_14
REMARK    7  A    between atoms: N_16  and  C_17
REMARK    8  A    between atoms: C_20  and  N_21
REMARK                            x       y       z     vdW  Elec       q    Type
REMARK                         _______ _______ _______ _____ _____    ______ ____
ROOT
ATOM      1  C   UNL     1       2.658   6.460  19.230  0.00  0.00    +0.000 C 
ATOM      2  O   UNL     1       2.230   6.279  18.096  0.00  0.00    +0.000 OA
ATOM      3  N   UNL     1       2.342   7.518  20.089  0.00  0.00    +0.000 N 
ATOM      4  H   UNL     1       2.824   7.569  20.979  0.00  0.00    +0.000 HD
ENDROOT
BRANCH   3   5
ATOM      5  C   UNL     1       1.440   8.561  19.816  0.00  0.00    +0.000 A 
ATOM      6  C   UNL     1       0.516   9.010  20.750  0.00  0.00    +0.000 A 
ATOM      7  C   UNL     1      -0.369  10.035  20.449  0.00  0.00    +0.000 A 
ATOM      8  C   UNL     1      -0.366  10.662  19.201  0.00  0.00    +0.000 A 
ATOM      9  C   UNL     1       0.579  10.215  18.264  0.00  0.00    +0.000 A 
ATOM     10  C   UNL     1       1.483   9.184  18.566  0.00  0.00    +0.000 A 
BRANCH   8  11
ATOM     11  N   UNL     1      -1.207  11.724  18.912  0.00  0.00    +0.000 N 
ATOM     12  C   UNL     1      -1.595  12.697  19.949  0.00  0.00    +0.000 C 
ATOM     13  C   UNL     1      -3.046  12.485  20.402  0.00  0.00    +0.000 C 
ATOM     14  O   UNL     1      -3.946  12.504  19.283  0.00  0.00    +0.000 OA
ATOM     15  C   UNL     1      -3.614  11.444  18.370  0.00  0.00    +0.000 C 
ATOM     16  C   UNL     1      -2.184  11.585  17.817  0.00  0.00    +0.000 C 
ENDBRANCH   8  11
ENDBRANCH   3   5
BRANCH   1  17
ATOM     17  C   UNL     1       3.590   5.450  19.884  0.00  0.00    +0.000 C 
BRANCH  17  20
ATOM     18  C   UNL     1       4.138   3.366  18.556  0.00  0.00    +0.000 C 
ATOM     19  O   UNL     1       3.959   2.155  18.377  0.00  0.00    +0.000 OA
ATOM     20  N   UNL     1       3.431   4.037  19.566  0.00  0.00    +0.000 N 
ATOM     21  C   UNL     1       2.448   3.287  20.345  0.00  0.00    +0.000 C 
BRANCH  18  27
ATOM     22  C   UNL     1       6.295   4.685  17.827  0.00  0.00    +0.000 A 
ATOM     23  C   UNL     1       6.987   5.309  16.773  0.00  0.00    +0.000 A 
ATOM     24  C   UNL     1       6.542   5.207  15.459  0.00  0.00    +0.000 A 
ATOM     25  C   UNL     1       5.387   4.495  15.178  0.00  0.00    +0.000 A 
ATOM     26  C   UNL     1       4.648   3.941  16.225  0.00  0.00    +0.000 A 
ATOM     27  C   UNL     1       5.062   4.048  17.572  0.00  0.00    +0.000 A 
BRANCH  22  29
ATOM     28  C   UNL     1       7.748   5.621  19.501  0.00  0.00    +0.000 C 
ATOM     29  O   UNL     1       6.812   4.636  19.088  0.00  0.00    +0.000 OA
ENDBRANCH  22  29
ENDBRANCH  18  27
ENDBRANCH  17  20
ENDBRANCH   1  17
TORSDOF 6
ENDMDL
MODEL 2
REMARK VINA RESULT:      -7.8      1.883      3.662
REMARK  Name = 
REMARK  8 active torsions:
REMARK  status: ('A' for Active; 'I' for Inactive)
REMARK    1  A    between atoms: C_1  and  O_2
REMARK    2  A    between atoms: O_2  and  C_3
REMARK    3  A    between atoms: C_8  and  C_9
REMARK    4  A    between atoms: N_11  and  C_12
REMARK    5  A    between atoms: N_11  and  C_13
REMARK    6  A    between atoms: C_13  and  C_14
REMARK    7  A    between atoms: N_16  and  C_17
REMARK    8  A    between atoms: C_20  and  N_21
REMARK                            x       y       z     vdW  Elec       q    Type
REMARK                         _______ _______ _______ _____ _____    ______ ____
ROOT
ATOM      1  C   UNL     1       4.317   6.355  18.162  0.00  0.00    +0.000 C 
ATOM      2  O   UNL     1       4.675   7.217  17.368  0.00  0.00    +0.000 OA
ATOM      3  N   UNL     1       3.265   6.441  19.079  0.00  0.00    +0.000 N 
ATOM      4  H   UNL     1       3.126   5.666  19.718  0.00  0.00    +0.000 HD
ENDROOT
BRANCH   3   5
ATOM      5  C   UNL     1       2.395   7.533  19.237  0.00  0.00    +0.000 A 
ATOM      6  C   UNL     1       1.789   7.835  20.449  0.00  0.00    +0.000 A 
ATOM      7  C   UNL     1       0.927   8.914  20.572  0.00  0.00    +0.000 A 
ATOM      8  C   UNL     1       0.635   9.746  19.488  0.00  0.00    +0.000 A 
ATOM      9  C   UNL     1       1.259   9.446  18.268  0.00  0.00    +0.000 A 
ATOM     10  C   UNL     1       2.140   8.360  18.140  0.00  0.00    +0.000 A 
BRANCH   8  11
ATOM     11  N   UNL     1      -0.180  10.858  19.616  0.00  0.00    +0.000 N 
ATOM     12  C   UNL     1      -1.496  10.923  18.954  0.00  0.00    +0.000 C 
ATOM     13  C   UNL     1      -1.466  11.862  17.741  0.00  0.00    +0.000 C 
ATOM     14  O   UNL     1      -0.982  13.165  18.106  0.00  0.00    +0.000 OA
ATOM     15  C   UNL     1       0.359  13.064  18.613  0.00  0.00    +0.000 C 
ATOM     16  C   UNL     1       0.437  12.172  19.866  0.00  0.00    +0.000 C 
ENDBRANCH   8  11
ENDBRANCH   3   5
BRANCH   1  17
ATOM     17  C   UNL     1       4.989   4.989  18.186  0.00  0.00    +0.000 C 
BRANCH  17  20
ATOM     18  C   UNL     1       3.427   3.054  17.714  0.00  0.00    +0.000 C 
ATOM     19  O   UNL     1       3.018   2.202  16.917  0.00  0.00    +0.000 OA
ATOM     20  N   UNL     1       4.458   3.929  17.339  0.00  0.00    +0.000 N 
ATOM     21  C   UNL     1       5.067   3.763  16.021  0.00  0.00    +0.000 C 
BRANCH  18  27
ATOM     22  C   UNL     1       3.433   2.634  20.312  0.00  0.00    +0.000 A 
ATOM     23  C   UNL     1       2.676   2.608  21.497  0.00  0.00    +0.000 A 
ATOM     24  C   UNL     1       1.359   3.058  21.522  0.00  0.00    +0.000 A 
ATOM     25  C   UNL     1       0.772   3.524  20.356  0.00  0.00    +0.000 A 
ATOM     26  C   UNL     1       1.487   3.479  19.158  0.00  0.00    +0.000 A 
ATOM     27  C   UNL     1       2.818   3.006  19.098  0.00  0.00    +0.000 A 
BRANCH  22  29
ATOM     28  C   UNL     1       5.235   1.152  20.905  0.00  0.00    +0.000 C 
ATOM     29  O   UNL     1       4.769   2.358  20.315  0.00  0.00    +0.000 OA
ENDBRANCH  22  29
ENDBRANCH  18  27
ENDBRANCH  17  20
ENDBRANCH   1  17
TORSDOF 6
ENDMDL
MODEL 3
REMARK VINA RESULT:      -7.8      1.012      1.667
REMARK  Name = 
REMARK  8 active torsions:
REMARK  status: ('A' for Active; 'I' for Inactive)
REMARK    1  A    between atoms: C_1  and  O_2
REMARK    2  A    between atoms: O_2  and  C_3
REMARK    3  A    between atoms: C_8  and  C_9
REMARK    4  A    between atoms: N_11  and  C_12
REMARK    5  A    between atoms: N_11  and  C_13
REMARK    6  A    between atoms: C_13  and  C_14
REMARK    7  A    between atoms: N_16  and  C_17
REMARK    8  A    between atoms: C_20  and  N_21
REMARK                            x       y       z     vdW  Elec       q    Type
REMARK                         _______ _______ _______ _____ _____    ______ ____
ROOT
ATOM      1  C   UNL     1       2.912   6.456  19.156  0.00  0.00    +0.000 C 
ATOM      2  O   UNL     1       2.706   6.549  17.951  0.00  0.00    +0.000 OA
ATOM      3  N   UNL     1       2.418   7.294  20.161  0.00  0.00    +0.000 N 
ATOM      4  H   UNL     1       2.725   7.130  21.113  0.00  0.00    +0.000 HD
ENDROOT
BRANCH   3   5
ATOM      5  C   UNL     1       1.558   8.391  19.972  0.00  0.00    +0.000 A 
ATOM      6  C   UNL     1       1.536   9.126  18.794  0.00  0.00    +0.000 A 
ATOM      7  C   UNL     1       0.683  10.210  18.641  0.00  0.00    +0.000 A 
ATOM      8  C   UNL     1      -0.191  10.604  19.657  0.00  0.00    +0.000 A 
ATOM      9  C   UNL     1      -0.175   9.850  20.841  0.00  0.00    +0.000 A 
ATOM     10  C   UNL     1       0.680   8.746  20.998  0.00  0.00    +0.000 A 
BRANCH   8  11
ATOM     11  N   UNL     1      -1.084  11.649  19.491  0.00  0.00    +0.000 N 
ATOM     12  C   UNL     1      -0.938  12.612  18.384  0.00  0.00    +0.000 C 
ATOM     13  C   UNL     1      -0.416  13.965  18.885  0.00  0.00    +0.000 C 
ATOM     14  O   UNL     1      -1.242  14.480  19.941  0.00  0.00    +0.000 OA
ATOM     15  C   UNL     1      -1.236  13.572  21.054  0.00  0.00    +0.000 C 
ATOM     16  C   UNL     1      -1.785  12.185  20.671  0.00  0.00    +0.000 C 
ENDBRANCH   8  11
ENDBRANCH   3   5
BRANCH   1  17
ATOM     17  C   UNL     1       3.729   5.304  19.722  0.00  0.00    +0.000 C 
BRANCH  17  20
ATOM     18  C   UNL     1       4.107   3.320  18.196  0.00  0.00    +0.000 C 
ATOM     19  O   UNL     1       3.823   2.155  17.895  0.00  0.00    +0.000 OA
ATOM     20  N   UNL     1       3.448   3.949  19.263  0.00  0.00    +0.000 N 
ATOM     21  C   UNL     1       2.389   3.219  19.957  0.00  0.00    +0.000 C 
BRANCH  18  27
ATOM     22  C   UNL     1       6.346   4.584  17.636  0.00  0.00    +0.000 A 
ATOM     23  C   UNL     1       7.113   5.227  16.648  0.00  0.00    +0.000 A 
ATOM     24  C   UNL     1       6.731   5.205  15.310  0.00  0.00    +0.000 A 
ATOM     25  C   UNL     1       5.565   4.553  14.941  0.00  0.00    +0.000 A 
ATOM     26  C   UNL     1       4.754   3.981  15.923  0.00  0.00    +0.000 A 
ATOM     27  C   UNL     1       5.105   4.009  17.292  0.00  0.00    +0.000 A 
BRANCH  22  29
ATOM     28  C   UNL     1       7.461   5.547  19.539  0.00  0.00    +0.000 C 
ATOM     29  O   UNL     1       6.798   4.455  18.916  0.00  0.00    +0.000 OA
ENDBRANCH  22  29
ENDBRANCH  18  27
ENDBRANCH  17  20
ENDBRANCH   1  17
TORSDOF 6
ENDMDL
MODEL 4
REMARK VINA RESULT:      -7.8      1.922      3.734
REMARK  Name = 
REMARK  8 active torsions:
REMARK  status: ('A' for Active; 'I' for Inactive)
REMARK    1  A    between atoms: C_1  and  O_2
REMARK    2  A    between atoms: O_2  and  C_3
REMARK    3  A    between atoms: C_8  and  C_9
REMARK    4  A    between atoms: N_11  and  C_12
REMARK    5  A    between atoms: N_11  and  C_13
REMARK    6  A    between atoms: C_13  and  C_14
REMARK    7  A    between atoms: N_16  and  C_17
REMARK    8  A    between atoms: C_20  and  N_21
REMARK                            x       y       z     vdW  Elec       q    Type
REMARK                         _______ _______ _______ _____ _____    ______ ____
ROOT
ATOM      1  C   UNL     1       4.075   6.551  17.961  0.00  0.00    +0.000 C 
ATOM      2  O   UNL     1       4.287   7.298  17.012  0.00  0.00    +0.000 OA
ATOM      3  N   UNL     1       3.125   6.724  18.972  0.00  0.00    +0.000 N 
ATOM      4  H   UNL     1       3.108   6.050  19.730  0.00  0.00    +0.000 HD
ENDROOT
BRANCH   3   5
ATOM      5  C   UNL     1       2.207   7.784  19.069  0.00  0.00    +0.000 A 
ATOM      6  C   UNL     1       1.774   8.498  17.960  0.00  0.00    +0.000 A 
ATOM      7  C   UNL     1       0.874   9.546  18.088  0.00  0.00    +0.000 A 
ATOM      8  C   UNL     1       0.361   9.923  19.332  0.00  0.00    +0.000 A 
ATOM      9  C   UNL     1       0.790   9.190  20.449  0.00  0.00    +0.000 A 
ATOM     10  C   UNL     1       1.694   8.122  20.324  0.00  0.00    +0.000 A 
BRANCH   8  11
ATOM     11  N   UNL     1      -0.580  10.931  19.461  0.00  0.00    +0.000 N 
ATOM     12  C   UNL     1      -0.783  11.930  18.396  0.00  0.00    +0.000 C 
ATOM     13  C   UNL     1      -0.192  13.291  18.786  0.00  0.00    +0.000 C 
ATOM     14  O   UNL     1      -0.708  13.739  20.050  0.00  0.00    +0.000 OA
ATOM     15  C   UNL     1      -0.360  12.800  21.081  0.00  0.00    +0.000 C 
ATOM     16  C   UNL     1      -0.945  11.401  20.809  0.00  0.00    +0.000 C 
ENDBRANCH   8  11
ENDBRANCH   3   5
BRANCH   1  17
ATOM     17  C   UNL     1       4.834   5.239  18.106  0.00  0.00    +0.000 C 
BRANCH  17  20
ATOM     18  C   UNL     1       3.497   3.125  17.721  0.00  0.00    +0.000 C 
ATOM     19  O   UNL     1       3.183   2.202  16.960  0.00  0.00    +0.000 OA
ATOM     20  N   UNL     1       4.421   4.095  17.303  0.00  0.00    +0.000 N 
ATOM     21  C   UNL     1       5.038   3.949  15.986  0.00  0.00    +0.000 C 
BRANCH  18  27
ATOM     22  C   UNL     1       3.495   2.560  20.292  0.00  0.00    +0.000 A 
ATOM     23  C   UNL     1       2.756   2.545  21.488  0.00  0.00    +0.000 A 
ATOM     24  C   UNL     1       1.493   3.125  21.562  0.00  0.00    +0.000 A 
ATOM     25  C   UNL     1       0.942   3.715  20.436  0.00  0.00    +0.000 A 
ATOM     26  C   UNL     1       1.632   3.664  19.223  0.00  0.00    +0.000 A 
ATOM     27  C   UNL     1       2.906   3.061  19.112  0.00  0.00    +0.000 A 
BRANCH  22  29
ATOM     28  C   UNL     1       5.252   1.179  21.186  0.00  0.00    +0.000 C 
ATOM     29  O   UNL     1       4.795   2.148  20.253  0.00  0.00    +0.000 OA
ENDBRANCH  22  29
ENDBRANCH  18  27
ENDBRANCH  17  20
ENDBRANCH   1  17
TORSDOF 6
ENDMDL
MODEL 5
REMARK VINA RESULT:      -7.7      2.625      9.607
REMARK  Name = 
REMARK  8 active torsions:
REMARK  status: ('A' for Active; 'I' for Inactive)
REMARK    1  A    between atoms: C_1  and  O_2
REMARK    2  A    between atoms: O_2  and  C_3
REMARK    3  A    between atoms: C_8  and  C_9
REMARK    4  A    between atoms: N_11  and  C_12
REMARK    5  A    between atoms: N_11  and  C_13
REMARK    6  A    between atoms: C_13  and  C_14
REMARK    7  A    between atoms: N_16  and  C_17
REMARK    8  A    between atoms: C_20  and  N_21
REMARK                            x       y       z     vdW  Elec       q    Type
REMARK                         _______ _______ _______ _____ _____    ______ ____
ROOT
ATOM      1  C   UNL     1      -0.047  10.748  19.350  0.00  0.00    +0.000 C 
ATOM      2  O   UNL     1      -1.068  10.075  19.441  0.00  0.00    +0.000 OA
ATOM      3  N   UNL     1       1.267  10.276  19.283  0.00  0.00    +0.000 N 
ATOM      4  H   UNL     1       2.018  10.957  19.272  0.00  0.00    +0.000 HD
ENDROOT
BRANCH   3   5
ATOM      5  C   UNL     1       1.660   8.926  19.277  0.00  0.00    +0.000 A 
ATOM      6  C   UNL     1       2.172   8.305  18.145  0.00  0.00    +0.000 A 
ATOM      7  C   UNL     1       2.542   6.968  18.166  0.00  0.00    +0.000 A 
ATOM      8  C   UNL     1       2.424   6.193  19.323  0.00  0.00    +0.000 A 
ATOM      9  C   UNL     1       1.919   6.828  20.468  0.00  0.00    +0.000 A 
ATOM     10  C   UNL     1       1.551   8.184  20.455  0.00  0.00    +0.000 A 
BRANCH   8  11
ATOM     11  N   UNL     1       2.844   4.875  19.367  0.00  0.00    +0.000 N 
ATOM     12  C   UNL     1       4.274   4.524  19.294  0.00  0.00    +0.000 C 
ATOM     13  C   UNL     1       4.638   3.938  17.924  0.00  0.00    +0.000 C 
ATOM     14  O   UNL     1       3.793   2.823  17.595  0.00  0.00    +0.000 OA
ATOM     15  C   UNL     1       2.422   3.249  17.538  0.00  0.00    +0.000 C 
ATOM     16  C   UNL     1       1.937   3.818  18.884  0.00  0.00    +0.000 C 
ENDBRANCH   8  11
ENDBRANCH   3   5
BRANCH   1  17
ATOM     17  C   UNL     1      -0.120  12.263  19.228  0.00  0.00    +0.000 C 
BRANCH  17  20
ATOM     18  C   UNL     1       0.483  13.396  21.410  0.00  0.00    +0.000 C 
ATOM     19  O   UNL     1       1.293  14.071  22.056  0.00  0.00    +0.000 OA
ATOM     20  N   UNL     1       0.748  13.079  20.068  0.00  0.00    +0.000 N 
ATOM     21  C   UNL     1       1.959  13.615  19.451  0.00  0.00    +0.000 C 
BRANCH  18  27
ATOM     22  C   UNL     1      -1.121  11.864  22.825  0.00  0.00    +0.000 A 
ATOM     23  C   UNL     1      -2.402  11.710  23.386  0.00  0.00    +0.000 A 
ATOM     24  C   UNL     1      -3.326  12.750  23.370  0.00  0.00    +0.000 A 
ATOM     25  C   UNL     1      -2.990  13.957  22.777  0.00  0.00    +0.000 A 
ATOM     26  C   UNL     1      -1.752  14.094  22.145  0.00  0.00    +0.000 A 
ATOM     27  C   UNL     1      -0.803  13.047  22.125  0.00  0.00    +0.000 A 
BRANCH  22  29
ATOM     28  C   UNL     1      -0.520   9.542  23.031  0.00  0.00    +0.000 C 
ATOM     29  O   UNL     1      -0.155  10.914  22.986  0.00  0.00    +0.000 OA
ENDBRANCH  22  29
ENDBRANCH  18  27
ENDBRANCH  17  20
ENDBRANCH   1  17
TORSDOF 6
ENDMDL
MODEL 6
REMARK VINA RESULT:      -7.7      1.837      2.601
REMARK  Name = 
REMARK  8 active torsions:
REMARK  status: ('A' for Active; 'I' for Inactive)
REMARK    1  A    between atoms: C_1  and  O_2
REMARK    2  A    between atoms: O_2  and  C_3
REMARK    3  A    between atoms: C_8  and  C_9
REMARK    4  A    between atoms: N_11  and  C_12
REMARK    5  A    between atoms: N_11  and  C_13
REMARK    6  A    between atoms: C_13  and  C_14
REMARK    7  A    between atoms: N_16  and  C_17
REMARK    8  A    between atoms: C_20  and  N_21
REMARK                            x       y       z     vdW  Elec       q    Type
REMARK                         _______ _______ _______ _____ _____    ______ ____
ROOT
ATOM      1  C   UNL     1       2.228   4.790  18.039  0.00  0.00    +0.000 C 
ATOM      2  O   UNL     1       1.116   4.784  17.522  0.00  0.00    +0.000 OA
ATOM      3  N   UNL     1       2.836   5.854  18.712  0.00  0.00    +0.000 N 
ATOM      4  H   UNL     1       3.789   5.731  19.035  0.00  0.00    +0.000 HD
ENDROOT
BRANCH   3   5
ATOM      5  C   UNL     1       2.263   7.116  18.949  0.00  0.00    +0.000 A 
ATOM      6  C   UNL     1       2.136   8.076  17.953  0.00  0.00    +0.000 A 
ATOM      7  C   UNL     1       1.576   9.316  18.220  0.00  0.00    +0.000 A 
ATOM      8  C   UNL     1       1.111   9.652  19.494  0.00  0.00    +0.000 A 
ATOM      9  C   UNL     1       1.228   8.674  20.494  0.00  0.00    +0.000 A 
ATOM     10  C   UNL     1       1.787   7.413  20.228  0.00  0.00    +0.000 A 
BRANCH   8  11
ATOM     11  N   UNL     1       0.499  10.866  19.754  0.00  0.00    +0.000 N 
ATOM     12  C   UNL     1      -0.931  11.081  19.466  0.00  0.00    +0.000 C 
ATOM     13  C   UNL     1      -1.127  11.960  18.224  0.00  0.00    +0.000 C 
ATOM     14  O   UNL     1      -0.411  13.199  18.348  0.00  0.00    +0.000 OA
ATOM     15  C   UNL     1       0.996  12.941  18.482  0.00  0.00    +0.000 C 
ATOM     16  C   UNL     1       1.311  12.096  19.730  0.00  0.00    +0.000 C 
ENDBRANCH   8  11
ENDBRANCH   3   5
BRANCH   1  17
ATOM     17  C   UNL     1       3.088   3.535  18.055  0.00  0.00    +0.000 C 
BRANCH  17  20
ATOM     18  C   UNL     1       5.551   4.112  18.153  0.00  0.00    +0.000 C 
ATOM     19  O   UNL     1       6.602   4.135  18.804  0.00  0.00    +0.000 OA
ATOM     20  N   UNL     1       4.384   3.578  18.721  0.00  0.00    +0.000 N 
ATOM     21  C   UNL     1       4.463   3.002  20.062  0.00  0.00    +0.000 C 
BRANCH  18  27
ATOM     22  C   UNL     1       5.587   5.916  16.236  0.00  0.00    +0.000 A 
ATOM     23  C   UNL     1       5.656   6.153  14.851  0.00  0.00    +0.000 A 
ATOM     24  C   UNL     1       5.908   5.120  13.954  0.00  0.00    +0.000 A 
ATOM     25  C   UNL     1       6.079   3.828  14.426  0.00  0.00    +0.000 A 
ATOM     26  C   UNL     1       5.932   3.567  15.790  0.00  0.00    +0.000 A 
ATOM     27  C   UNL     1       5.653   4.593  16.722  0.00  0.00    +0.000 A 
BRANCH  22  29
ATOM     28  C   UNL     1       6.695   7.627  17.516  0.00  0.00    +0.000 C 
ATOM     29  O   UNL     1       5.511   6.942  17.131  0.00  0.00    +0.000 OA
ENDBRANCH  22  29
ENDBRANCH  18  27
ENDBRANCH  17  20
ENDBRANCH   1  17
TORSDOF 6
ENDMDL
MODEL 7
REMARK VINA RESULT:      -7.6      1.511      2.184
REMARK  Name = 
REMARK  8 active torsions:
REMARK  status: ('A' for Active; 'I' for Inactive)
REMARK    1  A    between atoms: C_1  and  O_2
REMARK    2  A    between atoms: O_2  and  C_3
REMARK    3  A    between atoms: C_8  and  C_9
REMARK    4  A    between atoms: N_11  and  C_12
REMARK    5  A    between atoms: N_11  and  C_13
REMARK    6  A    between atoms: C_13  and  C_14
REMARK    7  A    between atoms: N_16  and  C_17
REMARK    8  A    between atoms: C_20  and  N_21
REMARK                            x       y       z     vdW  Elec       q    Type
REMARK                         _______ _______ _______ _____ _____    ______ ____
ROOT
ATOM      1  C   UNL     1       2.524   7.083  19.158  0.00  0.00    +0.000 C 
ATOM      2  O   UNL     1       2.028   7.390  18.080  0.00  0.00    +0.000 OA
ATOM      3  N   UNL     1       2.240   7.648  20.405  0.00  0.00    +0.000 N 
ATOM      4  H   UNL     1       2.777   7.333  21.205  0.00  0.00    +0.000 HD
ENDROOT
BRANCH   3   5
ATOM      5  C   UNL     1       1.299   8.662  20.657  0.00  0.00    +0.000 A 
ATOM      6  C   UNL     1       0.876   9.547  19.674  0.00  0.00    +0.000 A 
ATOM      7  C   UNL     1      -0.047  10.544  19.956  0.00  0.00    +0.000 A 
ATOM      8  C   UNL     1      -0.595  10.697  21.232  0.00  0.00    +0.000 A 
ATOM      9  C   UNL     1      -0.175   9.791  22.219  0.00  0.00    +0.000 A 
ATOM     10  C   UNL     1       0.752   8.775  21.938  0.00  0.00    +0.000 A 
BRANCH   8  11
ATOM     11  N   UNL     1      -1.558  11.653  21.506  0.00  0.00    +0.000 N 
ATOM     12  C   UNL     1      -1.881  12.714  20.535  0.00  0.00    +0.000 C 
ATOM     13  C   UNL     1      -1.310  14.068  20.975  0.00  0.00    +0.000 C 
ATOM     14  O   UNL     1      -1.739  14.405  22.304  0.00  0.00    +0.000 OA
ATOM     15  C   UNL     1      -1.276  13.413  23.234  0.00  0.00    +0.000 C 
ATOM     16  C   UNL     1      -1.829  12.013  22.909  0.00  0.00    +0.000 C 
ENDBRANCH   8  11
ENDBRANCH   3   5
BRANCH   1  17
ATOM     17  C   UNL     1       3.519   5.936  19.262  0.00  0.00    +0.000 C 
BRANCH  17  20
ATOM     18  C   UNL     1       3.748   3.740  18.023  0.00  0.00    +0.000 C 
ATOM     19  O   UNL     1       3.318   2.600  17.815  0.00  0.00    +0.000 OA
ATOM     20  N   UNL     1       3.079   4.589  18.918  0.00  0.00    +0.000 N 
ATOM     21  C   UNL     1       1.843   4.115  19.538  0.00  0.00    +0.000 C 
BRANCH  18  27
ATOM     22  C   UNL     1       6.228   4.531  17.634  0.00  0.00    +0.000 A 
ATOM     23  C   UNL     1       7.196   4.934  16.697  0.00  0.00    +0.000 A 
ATOM     24  C   UNL     1       6.951   4.858  15.329  0.00  0.00    +0.000 A 
ATOM     25  C   UNL     1       5.727   4.392  14.876  0.00  0.00    +0.000 A 
ATOM     26  C   UNL     1       4.730   4.065  15.797  0.00  0.00    +0.000 A 
ATOM     27  C   UNL     1       4.942   4.156  17.192  0.00  0.00    +0.000 A 
BRANCH  22  29
ATOM     28  C   UNL     1       7.234   5.492  19.597  0.00  0.00    +0.000 C 
ATOM     29  O   UNL     1       6.518   4.441  18.964  0.00  0.00    +0.000 OA
ENDBRANCH  22  29
ENDBRANCH  18  27
ENDBRANCH  17  20
ENDBRANCH   1  17
TORSDOF 6
ENDMDL
MODEL 8
REMARK VINA RESULT:      -7.6      1.898      9.429
REMARK  Name = 
REMARK  8 active torsions:
REMARK  status: ('A' for Active; 'I' for Inactive)
REMARK    1  A    between atoms: C_1  and  O_2
REMARK    2  A    between atoms: O_2  and  C_3
REMARK    3  A    between atoms: C_8  and  C_9
REMARK    4  A    between atoms: N_11  and  C_12
REMARK    5  A    between atoms: N_11  and  C_13
REMARK    6  A    between atoms: C_13  and  C_14
REMARK    7  A    between atoms: N_16  and  C_17
REMARK    8  A    between atoms: C_20  and  N_21
REMARK                            x       y       z     vdW  Elec       q    Type
REMARK                         _______ _______ _______ _____ _____    ______ ____
ROOT
ATOM      1  C   UNL     1       0.970   9.212  20.722  0.00  0.00    +0.000 C 
ATOM      2  O   UNL     1       1.431   8.712  21.742  0.00  0.00    +0.000 OA
ATOM      3  N   UNL     1       1.294   8.881  19.403  0.00  0.00    +0.000 N 
ATOM      4  H   UNL     1       0.875   9.426  18.657  0.00  0.00    +0.000 HD
ENDROOT
BRANCH   3   5
ATOM      5  C   UNL     1       2.195   7.879  19.000  0.00  0.00    +0.000 A 
ATOM      6  C   UNL     1       2.354   6.693  19.705  0.00  0.00    +0.000 A 
ATOM      7  C   UNL     1       3.259   5.728  19.289  0.00  0.00    +0.000 A 
ATOM      8  C   UNL     1       4.043   5.902  18.145  0.00  0.00    +0.000 A 
ATOM      9  C   UNL     1       3.869   7.096  17.428  0.00  0.00    +0.000 A 
ATOM     10  C   UNL     1       2.948   8.073  17.840  0.00  0.00    +0.000 A 
BRANCH   8  11
ATOM     11  N   UNL     1       4.907   4.919  17.693  0.00  0.00    +0.000 N 
ATOM     12  C   UNL     1       6.047   4.466  18.510  0.00  0.00    +0.000 C 
ATOM     13  C   UNL     1       7.376   5.006  17.964  0.00  0.00    +0.000 C 
ATOM     14  O   UNL     1       7.541   4.671  16.577  0.00  0.00    +0.000 OA
ATOM     15  C   UNL     1       6.482   5.256  15.803  0.00  0.00    +0.000 C 
ATOM     16  C   UNL     1       5.096   4.746  16.241  0.00  0.00    +0.000 C 
ENDBRANCH   8  11
ENDBRANCH   3   5
BRANCH   1  17
ATOM     17  C   UNL     1      -0.122  10.270  20.795  0.00  0.00    +0.000 C 
BRANCH  17  20
ATOM     18  C   UNL     1      -0.672  12.176  19.223  0.00  0.00    +0.000 C 
ATOM     19  O   UNL     1      -0.400  13.308  18.806  0.00  0.00    +0.000 OA
ATOM     20  N   UNL     1       0.129  11.581  20.211  0.00  0.00    +0.000 N 
ATOM     21  C   UNL     1       1.311  12.303  20.677  0.00  0.00    +0.000 C 
BRANCH  18  27
ATOM     22  C   UNL     1      -3.209  11.715  18.695  0.00  0.00    +0.000 A 
ATOM     23  C   UNL     1      -4.134  10.921  17.994  0.00  0.00    +0.000 A 
ATOM     24  C   UNL     1      -3.715   9.985  17.053  0.00  0.00    +0.000 A 
ATOM     25  C   UNL     1      -2.361   9.817  16.809  0.00  0.00    +0.000 A 
ATOM     26  C   UNL     1      -1.431  10.541  17.557  0.00  0.00    +0.000 A 
ATOM     27  C   UNL     1      -1.827  11.481  18.536  0.00  0.00    +0.000 A 
BRANCH  22  29
ATOM     28  C   UNL     1      -4.325  12.471  20.689  0.00  0.00    +0.000 C 
ATOM     29  O   UNL     1      -3.614  12.746  19.490  0.00  0.00    +0.000 OA
ENDBRANCH  22  29
ENDBRANCH  18  27
ENDBRANCH  17  20
ENDBRANCH   1  17
TORSDOF 6
ENDMDL
MODEL 9
REMARK VINA RESULT:      -7.5      2.808      9.511
REMARK  Name = 
REMARK  8 active torsions:
REMARK  status: ('A' for Active; 'I' for Inactive)
REMARK    1  A    between atoms: C_1  and  O_2
REMARK    2  A    between atoms: O_2  and  C_3
REMARK    3  A    between atoms: C_8  and  C_9
REMARK    4  A    between atoms: N_11  and  C_12
REMARK    5  A    between atoms: N_11  and  C_13
REMARK    6  A    between atoms: C_13  and  C_14
REMARK    7  A    between atoms: N_16  and  C_17
REMARK    8  A    between atoms: C_20  and  N_21
REMARK                            x       y       z     vdW  Elec       q    Type
REMARK                         _______ _______ _______ _____ _____    ______ ____
ROOT
ATOM      1  C   UNL     1      -0.253  11.302  18.880  0.00  0.00    +0.000 C 
ATOM      2  O   UNL     1      -1.126  10.676  18.290  0.00  0.00    +0.000 OA
ATOM      3  N   UNL     1       0.974  10.809  19.335  0.00  0.00    +0.000 N 
ATOM      4  H   UNL     1       1.571  11.433  19.866  0.00  0.00    +0.000 HD
ENDROOT
BRANCH   3   5
ATOM      5  C   UNL     1       1.449   9.496  19.168  0.00  0.00    +0.000 A 
ATOM      6  C   UNL     1       1.935   9.029  17.954  0.00  0.00    +0.000 A 
ATOM      7  C   UNL     1       2.388   7.725  17.817  0.00  0.00    +0.000 A 
ATOM      8  C   UNL     1       2.382   6.831  18.890  0.00  0.00    +0.000 A 
ATOM      9  C   UNL     1       1.904   7.311  20.119  0.00  0.00    +0.000 A 
ATOM     10  C   UNL     1       1.452   8.633  20.266  0.00  0.00    +0.000 A 
BRANCH   8  11
ATOM     11  N   UNL     1       2.885   5.546  18.776  0.00  0.00    +0.000 N 
ATOM     12  C   UNL     1       2.345   4.597  17.784  0.00  0.00    +0.000 C 
ATOM     13  C   UNL     1       1.475   3.524  18.452  0.00  0.00    +0.000 C 
ATOM     14  O   UNL     1       2.191   2.855  19.502  0.00  0.00    +0.000 OA
ATOM     15  C   UNL     1       2.572   3.801  20.515  0.00  0.00    +0.000 C 
ATOM     16  C   UNL     1       3.489   4.905  19.958  0.00  0.00    +0.000 C 
ENDBRANCH   8  11
ENDBRANCH   3   5
BRANCH   1  17
ATOM     17  C   UNL     1      -0.402  12.795  19.138  0.00  0.00    +0.000 C 
BRANCH  17  20
ATOM     18  C   UNL     1       0.419  13.559  21.407  0.00  0.00    +0.000 C 
ATOM     19  O   UNL     1       1.299  14.114  22.075  0.00  0.00    +0.000 OA
ATOM     20  N   UNL     1       0.557  13.457  20.014  0.00  0.00    +0.000 N 
ATOM     21  C   UNL     1       1.722  14.070  19.381  0.00  0.00    +0.000 C 
BRANCH  18  27
ATOM     22  C   UNL     1      -1.055  11.866  22.780  0.00  0.00    +0.000 A 
ATOM     23  C   UNL     1      -2.290  11.630  23.409  0.00  0.00    +0.000 A 
ATOM     24  C   UNL     1      -3.232  12.645  23.552  0.00  0.00    +0.000 A 
ATOM     25  C   UNL     1      -2.960  13.908  23.051  0.00  0.00    +0.000 A 
ATOM     26  C   UNL     1      -1.772  14.132  22.353  0.00  0.00    +0.000 A 
ATOM     27  C   UNL     1      -0.807  13.115  22.172  0.00  0.00    +0.000 A 
BRANCH  22  29
ATOM     28  C   UNL     1      -0.347   9.609  23.225  0.00  0.00    +0.000 C 
ATOM     29  O   UNL     1      -0.062  10.930  22.786  0.00  0.00    +0.000 OA
ENDBRANCH  22  29
ENDBRANCH  18  27
ENDBRANCH  17  20
ENDBRANCH   1  17
TORSDOF 6
ENDMDL
