MODEL 1
REMARK VINA RESULT:      -7.2      0.000      0.000
REMARK  Name = 
REMARK  3 active torsions:
REMARK  status: ('A' for Active; 'I' for Inactive)
REMARK    1  A    between atoms: C_1  and  C_2
REMARK    2  A    between atoms: C_4  and  N_5
REMARK    3  A    between atoms: N_5  and  C_6
REMARK                            x       y       z     vdW  Elec       q    Type
REMARK                         _______ _______ _______ _____ _____    ______ ____
ROOT
ATOM      1  C   UNL     1       7.869   8.802  17.412  0.00  0.00    +0.000 C 
ATOM      2  C   UNL     1       7.575   7.394  17.828  0.00  0.00    +0.000 A 
ATOM      3  C   UNL     1       6.690   6.623  17.114  0.00  0.00    +0.000 A 
ATOM      4  C   UNL     1       6.472   5.332  17.559  0.00  0.00    +0.000 A 
ATOM      5  N   UNL     1       7.069   4.855  18.662  0.00  0.00    +0.000 NA
ATOM      6  C   UNL     1       7.905   5.681  19.302  0.00  0.00    +0.000 A 
ATOM      7  N   UNL     1       8.564   5.195  20.414  0.00  0.00    +0.000 N 
ATOM      8  N   UNL     1       8.203   6.926  18.921  0.00  0.00    +0.000 NA
ATOM      9  H   UNL     1       8.636   4.191  20.354  0.00  0.00    +0.000 HD
ATOM     10  H   UNL     1       9.421   5.717  20.544  0.00  0.00    +0.000 HD
ENDROOT
BRANCH   4  11
ATOM     11  N   UNL     1       5.575   4.486  16.887  0.00  0.00    +0.000 N 
ATOM     12  H   UNL     1       5.715   4.533  15.883  0.00  0.00    +0.000 HD
BRANCH  11  13
ATOM     13  C   UNL     1       4.302   4.054  17.293  0.00  0.00    +0.000 A 
ATOM     14  C   UNL     1       3.270   4.954  17.604  0.00  0.00    +0.000 A 
ATOM     15  C   UNL     1       2.056   4.505  18.127  0.00  0.00    +0.000 A 
ATOM     16  C   UNL     1       1.857   3.144  18.329  0.00  0.00    +0.000 A 
ATOM     17 CL   UNL     1       0.390   2.590  19.035  0.00  0.00    +0.000 Cl
ATOM     18  C   UNL     1       2.848   2.229  17.976  0.00  0.00    +0.000 A 
ATOM     19  C   UNL     1       4.061   2.685  17.448  0.00  0.00    +0.000 A 
ENDBRANCH  11  13
ENDBRANCH   4  11
TORSDOF 2
ENDMDL
MODEL 2
REMARK VINA RESULT:      -7.2      1.547      2.464
REMARK  Name = 
REMARK  3 active torsions:
REMARK  status: ('A' for Active; 'I' for Inactive)
REMARK    1  A    between atoms: C_1  and  C_2
REMARK    2  A    between atoms: C_4  and  N_5
REMARK    3  A    between atoms: N_5  and  C_6
REMARK                            x       y       z     vdW  Elec       q    Type
REMARK                         _______ _______ _______ _____ _____    ______ ____
ROOT
ATOM      1  C   UNL     1       8.130   8.279  18.077  0.00  0.00    +0.000 C 
ATOM      2  C   UNL     1       7.596   6.951  17.637  0.00  0.00    +0.000 A 
ATOM      3  C   UNL     1       7.007   6.099  18.540  0.00  0.00    +0.000 A 
ATOM      4  C   UNL     1       6.537   4.891  18.058  0.00  0.00    +0.000 A 
ATOM      5  N   UNL     1       6.677   4.543  16.769  0.00  0.00    +0.000 NA
ATOM      6  C   UNL     1       7.276   5.429  15.965  0.00  0.00    +0.000 A 
ATOM      7  N   UNL     1       7.390   5.109  14.626  0.00  0.00    +0.000 N 
ATOM      8  N   UNL     1       7.723   6.631  16.337  0.00  0.00    +0.000 NA
ATOM      9  H   UNL     1       6.666   4.454  14.371  0.00  0.00    +0.000 HD
ATOM     10  H   UNL     1       7.458   5.962  14.087  0.00  0.00    +0.000 HD
ENDROOT
BRANCH   4  11
ATOM     11  N   UNL     1       5.930   3.965  18.920  0.00  0.00    +0.000 N 
ATOM     12  H   UNL     1       6.588   3.248  19.205  0.00  0.00    +0.000 HD
BRANCH  11  13
ATOM     13  C   UNL     1       4.576   3.602  19.008  0.00  0.00    +0.000 A 
ATOM     14  C   UNL     1       4.150   2.468  19.719  0.00  0.00    +0.000 A 
ATOM     15  C   UNL     1       2.816   2.056  19.686  0.00  0.00    +0.000 A 
ATOM     16  C   UNL     1       1.890   2.789  18.952  0.00  0.00    +0.000 A 
ATOM     17 CL   UNL     1       0.260   2.250  18.852  0.00  0.00    +0.000 Cl
ATOM     18  C   UNL     1       2.281   3.948  18.284  0.00  0.00    +0.000 A 
ATOM     19  C   UNL     1       3.618   4.358  18.325  0.00  0.00    +0.000 A 
ENDBRANCH  11  13
ENDBRANCH   4  11
TORSDOF 2
ENDMDL
MODEL 3
REMARK VINA RESULT:      -7.2      2.089      3.041
REMARK  Name = 
REMARK  3 active torsions:
REMARK  status: ('A' for Active; 'I' for Inactive)
REMARK    1  A    between atoms: C_1  and  C_2
REMARK    2  A    between atoms: C_4  and  N_5
REMARK    3  A    between atoms: N_5  and  C_6
REMARK                            x       y       z     vdW  Elec       q    Type
REMARK                         _______ _______ _______ _____ _____    ______ ____
ROOT
ATOM      1  C   UNL     1       7.755   6.909  18.146  0.00  0.00    +0.000 C 
ATOM      2  C   UNL     1       7.115   5.940  17.201  0.00  0.00    +0.000 A 
ATOM      3  C   UNL     1       6.187   5.032  17.650  0.00  0.00    +0.000 A 
ATOM      4  C   UNL     1       5.639   4.171  16.717  0.00  0.00    +0.000 A 
ATOM      5  N   UNL     1       6.018   4.191  15.430  0.00  0.00    +0.000 NA
ATOM      6  C   UNL     1       6.939   5.099  15.085  0.00  0.00    +0.000 A 
ATOM      7  N   UNL     1       7.310   5.165  13.756  0.00  0.00    +0.000 N 
ATOM      8  N   UNL     1       7.490   5.992  15.910  0.00  0.00    +0.000 NA
ATOM      9  H   UNL     1       6.565   4.812  13.177  0.00  0.00    +0.000 HD
ATOM     10  H   UNL     1       7.655   6.096  13.556  0.00  0.00    +0.000 HD
ENDROOT
BRANCH   4  11
ATOM     11  N   UNL     1       4.689   3.211  17.101  0.00  0.00    +0.000 N 
ATOM     12  H   UNL     1       4.288   2.752  16.291  0.00  0.00    +0.000 HD
BRANCH  11  13
ATOM     13  C   UNL     1       3.899   3.173  18.262  0.00  0.00    +0.000 A 
ATOM     14  C   UNL     1       4.380   2.659  19.477  0.00  0.00    +0.000 A 
ATOM     15  C   UNL     1       3.539   2.514  20.582  0.00  0.00    +0.000 A 
ATOM     16  C   UNL     1       2.206   2.899  20.484  0.00  0.00    +0.000 A 
ATOM     17 CL   UNL     1       1.148   2.661  21.818  0.00  0.00    +0.000 Cl
ATOM     18  C   UNL     1       1.722   3.462  19.304  0.00  0.00    +0.000 A 
ATOM     19  C   UNL     1       2.572   3.609  18.203  0.00  0.00    +0.000 A 
ENDBRANCH  11  13
ENDBRANCH   4  11
TORSDOF 2
ENDMDL
MODEL 4
REMARK VINA RESULT:      -7.1      0.529      1.302
REMARK  Name = 
REMARK  3 active torsions:
REMARK  status: ('A' for Active; 'I' for Inactive)
REMARK    1  A    between atoms: C_1  and  C_2
REMARK    2  A    between atoms: C_4  and  N_5
REMARK    3  A    between atoms: N_5  and  C_6
REMARK                            x       y       z     vdW  Elec       q    Type
REMARK                         _______ _______ _______ _____ _____    ______ ____
ROOT
ATOM      1  C   UNL     1       8.194   9.179  17.543  0.00  0.00    +0.000 C 
ATOM      2  C   UNL     1       7.683   7.806  17.852  0.00  0.00    +0.000 A 
ATOM      3  C   UNL     1       6.621   7.281  17.157  0.00  0.00    +0.000 A 
ATOM      4  C   UNL     1       6.207   6.006  17.498  0.00  0.00    +0.000 A 
ATOM      5  N   UNL     1       6.792   5.317  18.490  0.00  0.00    +0.000 NA
ATOM      6  C   UNL     1       7.809   5.912  19.123  0.00  0.00    +0.000 A 
ATOM      7  N   UNL     1       8.453   5.202  20.117  0.00  0.00    +0.000 N 
ATOM      8  N   UNL     1       8.298   7.121  18.832  0.00  0.00    +0.000 NA
ATOM      9  H   UNL     1       8.338   4.213  19.957  0.00  0.00    +0.000 HD
ATOM     10  H   UNL     1       9.398   5.552  20.213  0.00  0.00    +0.000 HD
ENDROOT
BRANCH   4  11
ATOM     11  N   UNL     1       5.124   5.405  16.838  0.00  0.00    +0.000 N 
ATOM     12  H   UNL     1       4.897   5.904  15.984  0.00  0.00    +0.000 HD
BRANCH  11  13
ATOM     13  C   UNL     1       4.076   4.644  17.382  0.00  0.00    +0.000 A 
ATOM     14  C   UNL     1       4.087   3.239  17.367  0.00  0.00    +0.000 A 
ATOM     15  C   UNL     1       2.979   2.506  17.798  0.00  0.00    +0.000 A 
ATOM     16  C   UNL     1       1.853   3.175  18.264  0.00  0.00    +0.000 A 
ATOM     17 CL   UNL     1       0.461   2.280  18.733  0.00  0.00    +0.000 Cl
ATOM     18  C   UNL     1       1.843   4.567  18.338  0.00  0.00    +0.000 A 
ATOM     19  C   UNL     1       2.958   5.296  17.910  0.00  0.00    +0.000 A 
ENDBRANCH  11  13
ENDBRANCH   4  11
TORSDOF 2
ENDMDL
MODEL 5
REMARK VINA RESULT:      -7.1      2.004      2.766
REMARK  Name = 
REMARK  3 active torsions:
REMARK  status: ('A' for Active; 'I' for Inactive)
REMARK    1  A    between atoms: C_1  and  C_2
REMARK    2  A    between atoms: C_4  and  N_5
REMARK    3  A    between atoms: N_5  and  C_6
REMARK                            x       y       z     vdW  Elec       q    Type
REMARK                         _______ _______ _______ _____ _____    ______ ____
ROOT
ATOM      1  C   UNL     1       7.687   6.881  18.191  0.00  0.00    +0.000 C 
ATOM      2  C   UNL     1       7.186   5.920  17.157  0.00  0.00    +0.000 A 
ATOM      3  C   UNL     1       6.305   4.922  17.497  0.00  0.00    +0.000 A 
ATOM      4  C   UNL     1       5.886   4.075  16.487  0.00  0.00    +0.000 A 
ATOM      5  N   UNL     1       6.343   4.195  15.231  0.00  0.00    +0.000 NA
ATOM      6  C   UNL     1       7.208   5.187  14.994  0.00  0.00    +0.000 A 
ATOM      7  N   UNL     1       7.656   5.355  13.698  0.00  0.00    +0.000 N 
ATOM      8  N   UNL     1       7.635   6.072  15.899  0.00  0.00    +0.000 NA
ATOM      9  H   UNL     1       6.978   4.979  13.054  0.00  0.00    +0.000 HD
ATOM     10  H   UNL     1       7.938   6.318  13.569  0.00  0.00    +0.000 HD
ENDROOT
BRANCH   4  11
ATOM     11  N   UNL     1       4.993   3.026  16.759  0.00  0.00    +0.000 N 
ATOM     12  H   UNL     1       4.868   2.436  15.944  0.00  0.00    +0.000 HD
BRANCH  11  13
ATOM     13  C   UNL     1       3.947   2.983  17.695  0.00  0.00    +0.000 A 
ATOM     14  C   UNL     1       2.638   3.375  17.373  0.00  0.00    +0.000 A 
ATOM     15  C   UNL     1       1.645   3.445  18.352  0.00  0.00    +0.000 A 
ATOM     16  C   UNL     1       1.952   3.104  19.665  0.00  0.00    +0.000 A 
ATOM     17 CL   UNL     1       0.751   3.252  20.888  0.00  0.00    +0.000 Cl
ATOM     18  C   UNL     1       3.231   2.660  19.996  0.00  0.00    +0.000 A 
ATOM     19  C   UNL     1       4.220   2.588  19.009  0.00  0.00    +0.000 A 
ENDBRANCH  11  13
ENDBRANCH   4  11
TORSDOF 2
ENDMDL
MODEL 6
REMARK VINA RESULT:      -6.9      2.143      2.847
REMARK  Name = 
REMARK  3 active torsions:
REMARK  status: ('A' for Active; 'I' for Inactive)
REMARK    1  A    between atoms: C_1  and  C_2
REMARK    2  A    between atoms: C_4  and  N_5
REMARK    3  A    between atoms: N_5  and  C_6
REMARK                            x       y       z     vdW  Elec       q    Type
REMARK                         _______ _______ _______ _____ _____    ______ ____
ROOT
ATOM      1  C   UNL     1       7.271   4.647  13.402  0.00  0.00    +0.000 C 
ATOM      2  C   UNL     1       6.743   4.546  14.800  0.00  0.00    +0.000 A 
ATOM      3  C   UNL     1       5.392   4.461  15.034  0.00  0.00    +0.000 A 
ATOM      4  C   UNL     1       4.981   4.368  16.351  0.00  0.00    +0.000 A 
ATOM      5  N   UNL     1       5.857   4.394  17.366  0.00  0.00    +0.000 NA
ATOM      6  C   UNL     1       7.152   4.493  17.046  0.00  0.00    +0.000 A 
ATOM      7  N   UNL     1       8.073   4.476  18.075  0.00  0.00    +0.000 N 
ATOM      8  N   UNL     1       7.638   4.547  15.803  0.00  0.00    +0.000 NA
ATOM      9  H   UNL     1       7.684   3.996  18.872  0.00  0.00    +0.000 HD
ATOM     10  H   UNL     1       8.961   4.144  17.719  0.00  0.00    +0.000 HD
ENDROOT
BRANCH   4  11
ATOM     11  N   UNL     1       3.616   4.286  16.669  0.00  0.00    +0.000 N 
ATOM     12  H   UNL     1       3.074   4.937  16.112  0.00  0.00    +0.000 HD
BRANCH  11  13
ATOM     13  C   UNL     1       3.018   3.889  17.876  0.00  0.00    +0.000 A 
ATOM     14  C   UNL     1       2.806   4.785  18.937  0.00  0.00    +0.000 A 
ATOM     15  C   UNL     1       2.327   4.341  20.171  0.00  0.00    +0.000 A 
ATOM     16  C   UNL     1       2.039   2.992  20.349  0.00  0.00    +0.000 A 
ATOM     17 CL   UNL     1       1.514   2.427  21.886  0.00  0.00    +0.000 Cl
ATOM     18  C   UNL     1       2.191   2.095  19.293  0.00  0.00    +0.000 A 
ATOM     19  C   UNL     1       2.666   2.547  18.058  0.00  0.00    +0.000 A 
ENDBRANCH  11  13
ENDBRANCH   4  11
TORSDOF 2
ENDMDL
MODEL 7
REMARK VINA RESULT:      -6.9      2.111      2.796
REMARK  Name = 
REMARK  3 active torsions:
REMARK  status: ('A' for Active; 'I' for Inactive)
REMARK    1  A    between atoms: C_1  and  C_2
REMARK    2  A    between atoms: C_4  and  N_5
REMARK    3  A    between atoms: N_5  and  C_6
REMARK                            x       y       z     vdW  Elec       q    Type
REMARK                         _______ _______ _______ _____ _____    ______ ____
ROOT
ATOM      1  C   UNL     1       6.941   4.630  14.271  0.00  0.00    +0.000 C 
ATOM      2  C   UNL     1       6.477   5.358  15.495  0.00  0.00    +0.000 A 
ATOM      3  C   UNL     1       5.156   5.327  15.870  0.00  0.00    +0.000 A 
ATOM      4  C   UNL     1       4.804   6.022  17.012  0.00  0.00    +0.000 A 
ATOM      5  N   UNL     1       5.704   6.728  17.713  0.00  0.00    +0.000 NA
ATOM      6  C   UNL     1       6.966   6.713  17.268  0.00  0.00    +0.000 A 
ATOM      7  N   UNL     1       7.916   7.397  18.000  0.00  0.00    +0.000 N 
ATOM      8  N   UNL     1       7.398   6.039  16.199  0.00  0.00    +0.000 NA
ATOM      9  H   UNL     1       7.616   7.471  18.960  0.00  0.00    +0.000 HD
ATOM     10  H   UNL     1       8.825   6.988  17.826  0.00  0.00    +0.000 HD
ENDROOT
BRANCH   4  11
ATOM     11  N   UNL     1       3.472   6.045  17.453  0.00  0.00    +0.000 N 
ATOM     12  H   UNL     1       3.055   6.957  17.304  0.00  0.00    +0.000 HD
BRANCH  11  13
ATOM     13  C   UNL     1       2.863   5.265  18.451  0.00  0.00    +0.000 A 
ATOM     14  C   UNL     1       2.484   5.802  19.692  0.00  0.00    +0.000 A 
ATOM     15  C   UNL     1       1.998   4.983  20.714  0.00  0.00    +0.000 A 
ATOM     16  C   UNL     1       1.872   3.616  20.494  0.00  0.00    +0.000 A 
ATOM     17 CL   UNL     1       1.339   2.592  21.769  0.00  0.00    +0.000 Cl
ATOM     18  C   UNL     1       2.192   3.070  19.252  0.00  0.00    +0.000 A 
ATOM     19  C   UNL     1       2.673   3.897  18.231  0.00  0.00    +0.000 A 
ENDBRANCH  11  13
ENDBRANCH   4  11
TORSDOF 2
ENDMDL
MODEL 8
REMARK VINA RESULT:      -6.9      3.327      4.559
REMARK  Name = 
REMARK  3 active torsions:
REMARK  status: ('A' for Active; 'I' for Inactive)
REMARK    1  A    between atoms: C_1  and  C_2
REMARK    2  A    between atoms: C_4  and  N_5
REMARK    3  A    between atoms: N_5  and  C_6
REMARK                            x       y       z     vdW  Elec       q    Type
REMARK                         _______ _______ _______ _____ _____    ______ ____
ROOT
ATOM      1  C   UNL     1       5.304   3.074  12.056  0.00  0.00    +0.000 C 
ATOM      2  C   UNL     1       6.122   3.798  13.082  0.00  0.00    +0.000 A 
ATOM      3  C   UNL     1       5.840   3.670  14.420  0.00  0.00    +0.000 A 
ATOM      4  C   UNL     1       6.640   4.368  15.306  0.00  0.00    +0.000 A 
ATOM      5  N   UNL     1       7.631   5.166  14.883  0.00  0.00    +0.000 NA
ATOM      6  C   UNL     1       7.825   5.242  13.562  0.00  0.00    +0.000 A 
ATOM      7  N   UNL     1       8.869   6.024  13.107  0.00  0.00    +0.000 N 
ATOM      8  N   UNL     1       7.127   4.574  12.640  0.00  0.00    +0.000 NA
ATOM      9  H   UNL     1       9.572   6.102  13.826  0.00  0.00    +0.000 HD
ATOM     10  H   UNL     1       9.164   5.686  12.200  0.00  0.00    +0.000 HD
ENDROOT
BRANCH   4  11
ATOM     11  N   UNL     1       6.409   4.293  16.689  0.00  0.00    +0.000 N 
ATOM     12  H   UNL     1       6.865   3.481  17.091  0.00  0.00    +0.000 HD
BRANCH  11  13
ATOM     13  C   UNL     1       5.323   4.794  17.426  0.00  0.00    +0.000 A 
ATOM     14  C   UNL     1       4.647   5.968  17.058  0.00  0.00    +0.000 A 
ATOM     15  C   UNL     1       3.655   6.515  17.875  0.00  0.00    +0.000 A 
ATOM     16  C   UNL     1       3.319   5.878  19.065  0.00  0.00    +0.000 A 
ATOM     17 CL   UNL     1       2.146   6.582  20.107  0.00  0.00    +0.000 Cl
ATOM     18  C   UNL     1       3.939   4.683  19.422  0.00  0.00    +0.000 A 
ATOM     19  C   UNL     1       4.929   4.137  18.597  0.00  0.00    +0.000 A 
ENDBRANCH  11  13
ENDBRANCH   4  11
TORSDOF 2
ENDMDL
MODEL 9
REMARK VINA RESULT:      -6.9      3.404      4.771
REMARK  Name = 
REMARK  3 active torsions:
REMARK  status: ('A' for Active; 'I' for Inactive)
REMARK    1  A    between atoms: C_1  and  C_2
REMARK    2  A    between atoms: C_4  and  N_5
REMARK    3  A    between atoms: N_5  and  C_6
REMARK                            x       y       z     vdW  Elec       q    Type
REMARK                         _______ _______ _______ _____ _____    ______ ____
ROOT
ATOM      1  C   UNL     1       5.282   3.102  11.986  0.00  0.00    +0.000 C 
ATOM      2  C   UNL     1       6.101   3.802  13.027  0.00  0.00    +0.000 A 
ATOM      3  C   UNL     1       5.823   3.640  14.363  0.00  0.00    +0.000 A 
ATOM      4  C   UNL     1       6.625   4.318  15.263  0.00  0.00    +0.000 A 
ATOM      5  N   UNL     1       7.614   5.128  14.856  0.00  0.00    +0.000 NA
ATOM      6  C   UNL     1       7.804   5.237  13.536  0.00  0.00    +0.000 A 
ATOM      7  N   UNL     1       8.845   6.031  13.098  0.00  0.00    +0.000 N 
ATOM      8  N   UNL     1       7.104   4.590  12.601  0.00  0.00    +0.000 NA
ATOM      9  H   UNL     1       9.550   6.093  13.817  0.00  0.00    +0.000 HD
ATOM     10  H   UNL     1       9.138   5.716  12.182  0.00  0.00    +0.000 HD
ENDROOT
BRANCH   4  11
ATOM     11  N   UNL     1       6.398   4.209  16.644  0.00  0.00    +0.000 N 
ATOM     12  H   UNL     1       6.624   3.278  16.977  0.00  0.00    +0.000 HD
BRANCH  11  13
ATOM     13  C   UNL     1       5.496   4.928  17.445  0.00  0.00    +0.000 A 
ATOM     14  C   UNL     1       5.195   4.544  18.762  0.00  0.00    +0.000 A 
ATOM     15  C   UNL     1       4.202   5.198  19.494  0.00  0.00    +0.000 A 
ATOM     16  C   UNL     1       3.510   6.258  18.917  0.00  0.00    +0.000 A 
ATOM     17 CL   UNL     1       2.241   7.024  19.788  0.00  0.00    +0.000 Cl
ATOM     18  C   UNL     1       3.831   6.690  17.632  0.00  0.00    +0.000 A 
ATOM     19  C   UNL     1       4.831   6.033  16.905  0.00  0.00    +0.000 A 
ENDBRANCH  11  13
ENDBRANCH   4  11
TORSDOF 2
ENDMDL
