MODEL 1
REMARK VINA RESULT:      -8.4      0.000      0.000
REMARK  Name = 
REMARK  4 active torsions:
REMARK  status: ('A' for Active; 'I' for Inactive)
REMARK    1  A    between atoms: C_2  and  C_22
REMARK    2  A    between atoms: N_3  and  C_4
REMARK    3  A    between atoms: C_14  and  C_15
REMARK    4  A    between atoms: C_25  and  C_26
REMARK                            x       y       z     vdW  Elec       q    Type
REMARK                         _______ _______ _______ _____ _____    ______ ____
ROOT
ATOM      1  C   UNL     1       0.757  10.972  19.599  0.00  0.00    +0.000 C 
ATOM      2  C   UNL     1       0.055  10.901  20.934  0.00  0.00    +0.000 A 
ATOM      3  C   UNL     1      -0.680  11.994  21.425  0.00  0.00    +0.000 A 
ATOM      4  C   UNL     1      -1.369  11.902  22.637  0.00  0.00    +0.000 A 
ATOM      5  C   UNL     1      -1.337  10.718  23.369  0.00  0.00    +0.000 A 
ATOM      6  C   UNL     1      -0.598   9.633  22.898  0.00  0.00    +0.000 A 
ATOM      7  C   UNL     1       0.100   9.728  21.691  0.00  0.00    +0.000 A 
ATOM      8  O   UNL     1       0.817   8.615  21.324  0.00  0.00    +0.000 OA
ATOM      9  C   UNL     1       1.388   8.586  20.078  0.00  0.00    +0.000 A 
ATOM     10  C   UNL     1       2.082   7.416  19.747  0.00  0.00    +0.000 A 
ATOM     11  C   UNL     1       2.722   7.249  18.504  0.00  0.00    +0.000 A 
ATOM     12  C   UNL     1       2.560   8.297  17.576  0.00  0.00    +0.000 A 
ATOM     13  C   UNL     1       1.876   9.472  17.900  0.00  0.00    +0.000 A 
ATOM     14  C   UNL     1       1.326   9.642  19.176  0.00  0.00    +0.000 A 
ENDROOT
BRANCH  11  15
ATOM     15  C   UNL     1       3.639   5.999  18.189  0.00  0.00    +0.000 C 
ATOM     16  C   UNL     1       4.488   5.351  19.312  0.00  0.00    +0.000 C 
ATOM     17  N   UNL     1       4.254   4.039  18.668  0.00  0.00    +0.000 NA
ATOM     18  C   UNL     1       3.007   4.589  18.086  0.00  0.00    +0.000 C 
ATOM     19  H   UNL     1       4.117   3.265  19.315  0.00  0.00    +0.000 HD
ENDBRANCH  11  15
BRANCH   1  22
ATOM     20  O   UNL     1       0.773  13.519  18.379  0.00  0.00    +0.000 OA
ATOM     21  C   UNL     1       1.759  13.165  19.021  0.00  0.00    +0.000 C 
ATOM     22  N   UNL     1       1.837  11.948  19.637  0.00  0.00    +0.000 N 
ATOM     23  H   UNL     1       2.668  11.710  20.176  0.00  0.00    +0.000 HD
BRANCH  21  24
ATOM     24  C   UNL     1       2.939  14.066  19.187  0.00  0.00    +0.000 A 
ATOM     25  C   UNL     1       3.380  14.726  18.099  0.00  0.00    +0.000 A 
ATOM     26  C   UNL     1       4.456  15.688  18.172  0.00  0.00    +0.000 A 
ATOM     27  C   UNL     1       5.046  15.964  19.346  0.00  0.00    +0.000 A 
ATOM     28  N   UNL     1       4.636  15.262  20.471  0.00  0.00    +0.000 N 
ATOM     29  C   UNL     1       3.642  14.308  20.480  0.00  0.00    +0.000 A 
ATOM     30  O   UNL     1       3.354  13.702  21.509  0.00  0.00    +0.000 OA
ATOM     31  H   UNL     1       5.089  15.443  21.365  0.00  0.00    +0.000 HD
BRANCH  27  32
ATOM     32  C   UNL     1       6.116  17.024  19.489  0.00  0.00    +0.000 C 
ATOM     33  F   UNL     1       7.138  16.601  20.278  0.00  0.00    +0.000 F 
ATOM     34  F   UNL     1       6.651  17.371  18.293  0.00  0.00    +0.000 F 
ATOM     35  F   UNL     1       5.624  18.157  20.051  0.00  0.00    +0.000 F 
ENDBRANCH  27  32
ENDBRANCH  21  24
ENDBRANCH   1  22
TORSDOF 4
ENDMDL
MODEL 2
REMARK VINA RESULT:      -8.4      5.346      8.279
REMARK  Name = 
REMARK  4 active torsions:
REMARK  status: ('A' for Active; 'I' for Inactive)
REMARK    1  A    between atoms: C_2  and  C_22
REMARK    2  A    between atoms: N_3  and  C_4
REMARK    3  A    between atoms: C_14  and  C_15
REMARK    4  A    between atoms: C_25  and  C_26
REMARK                            x       y       z     vdW  Elec       q    Type
REMARK                         _______ _______ _______ _____ _____    ______ ____
ROOT
ATOM      1  C   UNL     1       0.001  11.655  18.634  0.00  0.00    +0.000 C 
ATOM      2  C   UNL     1       0.444  12.602  19.724  0.00  0.00    +0.000 A 
ATOM      3  C   UNL     1       1.807  12.855  19.953  0.00  0.00    +0.000 A 
ATOM      4  C   UNL     1       2.208  13.771  20.928  0.00  0.00    +0.000 A 
ATOM      5  C   UNL     1       1.252  14.449  21.681  0.00  0.00    +0.000 A 
ATOM      6  C   UNL     1      -0.102  14.194  21.472  0.00  0.00    +0.000 A 
ATOM      7  C   UNL     1      -0.503  13.270  20.504  0.00  0.00    +0.000 A 
ATOM      8  O   UNL     1      -1.857  13.070  20.389  0.00  0.00    +0.000 OA
ATOM      9  C   UNL     1      -2.321  12.301  19.352  0.00  0.00    +0.000 A 
ATOM     10  C   UNL     1      -3.710  12.155  19.268  0.00  0.00    +0.000 A 
ATOM     11  C   UNL     1      -4.324  11.391  18.258  0.00  0.00    +0.000 A 
ATOM     12  C   UNL     1      -3.466  10.841  17.286  0.00  0.00    +0.000 A 
ATOM     13  C   UNL     1      -2.077  10.974  17.367  0.00  0.00    +0.000 A 
ATOM     14  C   UNL     1      -1.492  11.667  18.432  0.00  0.00    +0.000 A 
ENDROOT
BRANCH  11  15
ATOM     15  C   UNL     1      -5.879  11.093  18.254  0.00  0.00    +0.000 C 
ATOM     16  C   UNL     1      -6.461   9.971  19.151  0.00  0.00    +0.000 C 
ATOM     17  N   UNL     1      -7.669  10.806  19.331  0.00  0.00    +0.000 NA
ATOM     18  C   UNL     1      -6.837  12.003  19.062  0.00  0.00    +0.000 C 
ATOM     19  H   UNL     1      -8.076  10.772  20.264  0.00  0.00    +0.000 HD
ENDBRANCH  11  15
BRANCH   1  22
ATOM     20  O   UNL     1       2.223  10.289  17.550  0.00  0.00    +0.000 OA
ATOM     21  C   UNL     1       1.512   9.708  18.368  0.00  0.00    +0.000 C 
ATOM     22  N   UNL     1       0.416  10.292  18.936  0.00  0.00    +0.000 N 
ATOM     23  H   UNL     1      -0.126   9.777  19.627  0.00  0.00    +0.000 HD
BRANCH  21  24
ATOM     24  C   UNL     1       1.825   8.317  18.813  0.00  0.00    +0.000 A 
ATOM     25  C   UNL     1       2.231   7.437  17.878  0.00  0.00    +0.000 A 
ATOM     26  C   UNL     1       2.643   6.094  18.219  0.00  0.00    +0.000 A 
ATOM     27  C   UNL     1       2.644   5.684  19.498  0.00  0.00    +0.000 A 
ATOM     28  N   UNL     1       2.186   6.561  20.471  0.00  0.00    +0.000 N 
ATOM     29  C   UNL     1       1.747   7.843  20.227  0.00  0.00    +0.000 A 
ATOM     30  O   UNL     1       1.324   8.553  21.135  0.00  0.00    +0.000 OA
ATOM     31  H   UNL     1       2.158   6.258  21.443  0.00  0.00    +0.000 HD
BRANCH  27  32
ATOM     32  C   UNL     1       3.146   4.319  19.914  0.00  0.00    +0.000 C 
ATOM     33  F   UNL     1       4.499   4.236  19.830  0.00  0.00    +0.000 F 
ATOM     34  F   UNL     1       2.805   4.018  21.191  0.00  0.00    +0.000 F 
ATOM     35  F   UNL     1       2.640   3.339  19.123  0.00  0.00    +0.000 F 
ENDBRANCH  27  32
ENDBRANCH  21  24
ENDBRANCH   1  22
TORSDOF 4
ENDMDL
MODEL 3
REMARK VINA RESULT:      -7.8      4.400      8.404
REMARK  Name = 
REMARK  4 active torsions:
REMARK  status: ('A' for Active; 'I' for Inactive)
REMARK    1  A    between atoms: C_2  and  C_22
REMARK    2  A    between atoms: N_3  and  C_4
REMARK    3  A    between atoms: C_14  and  C_15
REMARK    4  A    between atoms: C_25  and  C_26
REMARK                            x       y       z     vdW  Elec       q    Type
REMARK                         _______ _______ _______ _____ _____    ______ ____
ROOT
ATOM      1  C   UNL     1       0.898  12.634  19.277  0.00  0.00    +0.000 C 
ATOM      2  C   UNL     1       2.062  13.596  19.265  0.00  0.00    +0.000 A 
ATOM      3  C   UNL     1       3.002  13.583  18.220  0.00  0.00    +0.000 A 
ATOM      4  C   UNL     1       4.046  14.510  18.190  0.00  0.00    +0.000 A 
ATOM      5  C   UNL     1       4.160  15.464  19.198  0.00  0.00    +0.000 A 
ATOM      6  C   UNL     1       3.242  15.476  20.247  0.00  0.00    +0.000 A 
ATOM      7  C   UNL     1       2.203  14.542  20.283  0.00  0.00    +0.000 A 
ATOM      8  O   UNL     1       1.365  14.620  21.369  0.00  0.00    +0.000 OA
ATOM      9  C   UNL     1       0.236  13.841  21.381  0.00  0.00    +0.000 A 
ATOM     10  C   UNL     1      -0.596  13.983  22.498  0.00  0.00    +0.000 A 
ATOM     11  C   UNL     1      -1.785  13.244  22.646  0.00  0.00    +0.000 A 
ATOM     12  C   UNL     1      -2.135  12.407  21.569  0.00  0.00    +0.000 A 
ATOM     13  C   UNL     1      -1.306  12.252  20.453  0.00  0.00    +0.000 A 
ATOM     14  C   UNL     1      -0.088  12.936  20.376  0.00  0.00    +0.000 A 
ENDROOT
BRANCH  11  15
ATOM     15  C   UNL     1      -2.642  13.282  23.976  0.00  0.00    +0.000 C 
ATOM     16  C   UNL     1      -3.668  14.420  24.211  0.00  0.00    +0.000 C 
ATOM     17  N   UNL     1      -4.526  13.438  24.911  0.00  0.00    +0.000 NA
ATOM     18  C   UNL     1      -3.881  12.365  24.118  0.00  0.00    +0.000 C 
ATOM     19  H   UNL     1      -5.524  13.549  24.745  0.00  0.00    +0.000 HD
ENDBRANCH  11  15
BRANCH   1  22
ATOM     20  O   UNL     1       0.000  10.369  17.848  0.00  0.00    +0.000 OA
ATOM     21  C   UNL     1       0.878  10.224  18.697  0.00  0.00    +0.000 C 
ATOM     22  N   UNL     1       1.365  11.264  19.436  0.00  0.00    +0.000 N 
ATOM     23  H   UNL     1       2.109  11.095  20.111  0.00  0.00    +0.000 HD
BRANCH  21  24
ATOM     24  C   UNL     1       1.489   8.886  18.955  0.00  0.00    +0.000 A 
ATOM     25  C   UNL     1       2.058   8.246  17.915  0.00  0.00    +0.000 A 
ATOM     26  C   UNL     1       2.753   6.989  18.078  0.00  0.00    +0.000 A 
ATOM     27  C   UNL     1       2.866   6.423  19.291  0.00  0.00    +0.000 A 
ATOM     28  N   UNL     1       2.248   7.044  20.367  0.00  0.00    +0.000 N 
ATOM     29  C   UNL     1       1.540   8.223  20.292  0.00  0.00    +0.000 A 
ATOM     30  O   UNL     1       0.991   8.699  21.282  0.00  0.00    +0.000 OA
ATOM     31  H   UNL     1       2.304   6.616  21.289  0.00  0.00    +0.000 HD
BRANCH  27  32
ATOM     32  C   UNL     1       3.656   5.156  19.526  0.00  0.00    +0.000 C 
ATOM     33  F   UNL     1       3.194   4.469  20.604  0.00  0.00    +0.000 F 
ATOM     34  F   UNL     1       3.599   4.315  18.463  0.00  0.00    +0.000 F 
ATOM     35  F   UNL     1       4.967   5.420  19.757  0.00  0.00    +0.000 F 
ENDBRANCH  27  32
ENDBRANCH  21  24
ENDBRANCH   1  22
TORSDOF 4
ENDMDL
MODEL 4
REMARK VINA RESULT:      -7.8      5.527      8.538
REMARK  Name = 
REMARK  4 active torsions:
REMARK  status: ('A' for Active; 'I' for Inactive)
REMARK    1  A    between atoms: C_2  and  C_22
REMARK    2  A    between atoms: N_3  and  C_4
REMARK    3  A    between atoms: C_14  and  C_15
REMARK    4  A    between atoms: C_25  and  C_26
REMARK                            x       y       z     vdW  Elec       q    Type
REMARK                         _______ _______ _______ _____ _____    ______ ____
ROOT
ATOM      1  C   UNL     1       0.273  11.344  18.551  0.00  0.00    +0.000 C 
ATOM      2  C   UNL     1       0.726  12.390  19.541  0.00  0.00    +0.000 A 
ATOM      3  C   UNL     1       2.092  12.631  19.767  0.00  0.00    +0.000 A 
ATOM      4  C   UNL     1       2.502  13.635  20.648  0.00  0.00    +0.000 A 
ATOM      5  C   UNL     1       1.554  14.413  21.307  0.00  0.00    +0.000 A 
ATOM      6  C   UNL     1       0.197  14.173  21.102  0.00  0.00    +0.000 A 
ATOM      7  C   UNL     1      -0.214  13.161  20.229  0.00  0.00    +0.000 A 
ATOM      8  O   UNL     1      -1.572  12.986  20.112  0.00  0.00    +0.000 OA
ATOM      9  C   UNL     1      -2.040  12.123  19.154  0.00  0.00    +0.000 A 
ATOM     10  C   UNL     1      -3.432  12.005  19.061  0.00  0.00    +0.000 A 
ATOM     11  C   UNL     1      -4.051  11.154  18.126  0.00  0.00    +0.000 A 
ATOM     12  C   UNL     1      -3.194  10.482  17.233  0.00  0.00    +0.000 A 
ATOM     13  C   UNL     1      -1.803  10.587  17.325  0.00  0.00    +0.000 A 
ATOM     14  C   UNL     1      -1.216  11.374  18.321  0.00  0.00    +0.000 A 
ENDROOT
BRANCH  11  15
ATOM     15  C   UNL     1      -5.613  10.897  18.125  0.00  0.00    +0.000 C 
ATOM     16  C   UNL     1      -6.404  10.891  19.458  0.00  0.00    +0.000 C 
ATOM     17  N   UNL     1      -7.544  11.490  18.731  0.00  0.00    +0.000 NA
ATOM     18  C   UNL     1      -6.581  12.048  17.754  0.00  0.00    +0.000 C 
ATOM     19  H   UNL     1      -8.068  12.186  19.258  0.00  0.00    +0.000 HD
ENDBRANCH  11  15
BRANCH   1  22
ATOM     20  O   UNL     1       2.388   9.757  17.558  0.00  0.00    +0.000 OA
ATOM     21  C   UNL     1       1.692   9.313  18.469  0.00  0.00    +0.000 C 
ATOM     22  N   UNL     1       0.646  10.012  19.002  0.00  0.00    +0.000 N 
ATOM     23  H   UNL     1       0.114   9.609  19.772  0.00  0.00    +0.000 HD
BRANCH  21  24
ATOM     24  C   UNL     1       1.967   7.974  19.070  0.00  0.00    +0.000 A 
ATOM     25  C   UNL     1       1.344   7.665  20.223  0.00  0.00    +0.000 A 
ATOM     26  C   UNL     1       1.473   6.363  20.838  0.00  0.00    +0.000 A 
ATOM     27  C   UNL     1       2.219   5.407  20.261  0.00  0.00    +0.000 A 
ATOM     28  N   UNL     1       2.905   5.720  19.096  0.00  0.00    +0.000 N 
ATOM     29  C   UNL     1       2.862   6.943  18.465  0.00  0.00    +0.000 A 
ATOM     30  O   UNL     1       3.522   7.159  17.453  0.00  0.00    +0.000 OA
ATOM     31  H   UNL     1       3.493   5.013  18.659  0.00  0.00    +0.000 HD
BRANCH  27  32
ATOM     32  C   UNL     1       2.316   4.005  20.819  0.00  0.00    +0.000 C 
ATOM     33  F   UNL     1       2.489   4.012  22.166  0.00  0.00    +0.000 F 
ATOM     34  F   UNL     1       1.201   3.276  20.564  0.00  0.00    +0.000 F 
ATOM     35  F   UNL     1       3.365   3.328  20.288  0.00  0.00    +0.000 F 
ENDBRANCH  27  32
ENDBRANCH  21  24
ENDBRANCH   1  22
TORSDOF 4
ENDMDL
MODEL 5
REMARK VINA RESULT:      -7.8      4.634      8.299
REMARK  Name = 
REMARK  4 active torsions:
REMARK  status: ('A' for Active; 'I' for Inactive)
REMARK    1  A    between atoms: C_2  and  C_22
REMARK    2  A    between atoms: N_3  and  C_4
REMARK    3  A    between atoms: C_14  and  C_15
REMARK    4  A    between atoms: C_25  and  C_26
REMARK                            x       y       z     vdW  Elec       q    Type
REMARK                         _______ _______ _______ _____ _____    ______ ____
ROOT
ATOM      1  C   UNL     1      -0.250  10.585  19.499  0.00  0.00    +0.000 C 
ATOM      2  C   UNL     1      -1.431  10.586  18.559  0.00  0.00    +0.000 A 
ATOM      3  C   UNL     1      -2.296   9.482  18.479  0.00  0.00    +0.000 A 
ATOM      4  C   UNL     1      -3.415   9.511  17.644  0.00  0.00    +0.000 A 
ATOM      5  C   UNL     1      -3.687  10.646  16.884  0.00  0.00    +0.000 A 
ATOM      6  C   UNL     1      -2.827  11.742  16.943  0.00  0.00    +0.000 A 
ATOM      7  C   UNL     1      -1.701  11.708  17.771  0.00  0.00    +0.000 A 
ATOM      8  O   UNL     1      -0.903  12.826  17.743  0.00  0.00    +0.000 OA
ATOM      9  C   UNL     1       0.122  12.922  18.649  0.00  0.00    +0.000 A 
ATOM     10  C   UNL     1       0.884  14.094  18.593  0.00  0.00    +0.000 A 
ATOM     11  C   UNL     1       1.970  14.325  19.460  0.00  0.00    +0.000 A 
ATOM     12  C   UNL     1       2.201  13.342  20.442  0.00  0.00    +0.000 A 
ATOM     13  C   UNL     1       1.451  12.164  20.499  0.00  0.00    +0.000 A 
ATOM     14  C   UNL     1       0.434  11.926  19.568  0.00  0.00    +0.000 A 
ENDROOT
BRANCH  11  15
ATOM     15  C   UNL     1       2.930  15.573  19.295  0.00  0.00    +0.000 C 
ATOM     16  C   UNL     1       3.810  15.718  18.028  0.00  0.00    +0.000 C 
ATOM     17  N   UNL     1       3.619  17.182  18.119  0.00  0.00    +0.000 NA
ATOM     18  C   UNL     1       2.349  16.934  18.840  0.00  0.00    +0.000 C 
ATOM     19  H   UNL     1       3.516  17.655  17.224  0.00  0.00    +0.000 HD
ENDBRANCH  11  15
BRANCH   1  22
ATOM     20  O   UNL     1       0.807   8.514  21.103  0.00  0.00    +0.000 OA
ATOM     21  C   UNL     1       1.184   8.610  19.937  0.00  0.00    +0.000 C 
ATOM     22  N   UNL     1       0.729   9.585  19.095  0.00  0.00    +0.000 N 
ATOM     23  H   UNL     1       1.055   9.608  18.130  0.00  0.00    +0.000 HD
BRANCH  21  24
ATOM     24  C   UNL     1       2.158   7.638  19.357  0.00  0.00    +0.000 A 
ATOM     25  C   UNL     1       2.453   6.540  20.079  0.00  0.00    +0.000 A 
ATOM     26  C   UNL     1       3.314   5.497  19.569  0.00  0.00    +0.000 A 
ATOM     27  C   UNL     1       3.841   5.589  18.337  0.00  0.00    +0.000 A 
ATOM     28  N   UNL     1       3.586   6.734  17.595  0.00  0.00    +0.000 N 
ATOM     29  C   UNL     1       2.805   7.785  18.019  0.00  0.00    +0.000 A 
ATOM     30  O   UNL     1       2.649   8.783  17.321  0.00  0.00    +0.000 OA
ATOM     31  H   UNL     1       3.997   6.829  16.668  0.00  0.00    +0.000 HD
BRANCH  27  32
ATOM     32  C   UNL     1       4.676   4.486  17.726  0.00  0.00    +0.000 C 
ATOM     33  F   UNL     1       5.010   4.764  16.440  0.00  0.00    +0.000 F 
ATOM     34  F   UNL     1       5.832   4.287  18.406  0.00  0.00    +0.000 F 
ATOM     35  F   UNL     1       4.010   3.303  17.716  0.00  0.00    +0.000 F 
ENDBRANCH  27  32
ENDBRANCH  21  24
ENDBRANCH   1  22
TORSDOF 4
ENDMDL
MODEL 6
REMARK VINA RESULT:      -7.8      4.520      8.457
REMARK  Name = 
REMARK  4 active torsions:
REMARK  status: ('A' for Active; 'I' for Inactive)
REMARK    1  A    between atoms: C_2  and  C_22
REMARK    2  A    between atoms: N_3  and  C_4
REMARK    3  A    between atoms: C_14  and  C_15
REMARK    4  A    between atoms: C_25  and  C_26
REMARK                            x       y       z     vdW  Elec       q    Type
REMARK                         _______ _______ _______ _____ _____    ______ ____
ROOT
ATOM      1  C   UNL     1       0.801  13.112  20.108  0.00  0.00    +0.000 C 
ATOM      2  C   UNL     1       2.001  13.971  20.423  0.00  0.00    +0.000 A 
ATOM      3  C   UNL     1       3.117  14.000  19.569  0.00  0.00    +0.000 A 
ATOM      4  C   UNL     1       4.202  14.836  19.841  0.00  0.00    +0.000 A 
ATOM      5  C   UNL     1       4.182  15.659  20.965  0.00  0.00    +0.000 A 
ATOM      6  C   UNL     1       3.088  15.627  21.827  0.00  0.00    +0.000 A 
ATOM      7  C   UNL     1       2.007  14.782  21.561  0.00  0.00    +0.000 A 
ATOM      8  O   UNL     1       0.987  14.805  22.481  0.00  0.00    +0.000 OA
ATOM      9  C   UNL     1      -0.169  14.123  22.195  0.00  0.00    +0.000 A 
ATOM     10  C   UNL     1      -1.183  14.205  23.155  0.00  0.00    +0.000 A 
ATOM     11  C   UNL     1      -2.421  13.553  22.995  0.00  0.00    +0.000 A 
ATOM     12  C   UNL     1      -2.613  12.874  21.777  0.00  0.00    +0.000 A 
ATOM     13  C   UNL     1      -1.602  12.779  20.816  0.00  0.00    +0.000 A 
ATOM     14  C   UNL     1      -0.352  13.366  21.043  0.00  0.00    +0.000 A 
ENDROOT
BRANCH  11  15
ATOM     15  C   UNL     1      -3.507  13.511  24.147  0.00  0.00    +0.000 C 
ATOM     16  C   UNL     1      -4.957  13.982  23.870  0.00  0.00    +0.000 C 
ATOM     17  N   UNL     1      -5.426  12.934  24.803  0.00  0.00    +0.000 NA
ATOM     18  C   UNL     1      -4.192  12.170  24.507  0.00  0.00    +0.000 C 
ATOM     19  H   UNL     1      -6.290  12.473  24.527  0.00  0.00    +0.000 HD
ENDBRANCH  11  15
BRANCH   1  22
ATOM     20  O   UNL     1       0.194  11.133  18.185  0.00  0.00    +0.000 OA
ATOM     21  C   UNL     1       0.819  10.808  19.192  0.00  0.00    +0.000 C 
ATOM     22  N   UNL     1       1.148  11.699  20.174  0.00  0.00    +0.000 N 
ATOM     23  H   UNL     1       1.688  11.384  20.978  0.00  0.00    +0.000 HD
BRANCH  21  24
ATOM     24  C   UNL     1       1.282   9.402  19.394  0.00  0.00    +0.000 A 
ATOM     25  C   UNL     1       1.853   8.775  18.348  0.00  0.00    +0.000 A 
ATOM     26  C   UNL     1       2.414   7.448  18.464  0.00  0.00    +0.000 A 
ATOM     27  C   UNL     1       2.393   6.799  19.640  0.00  0.00    +0.000 A 
ATOM     28  N   UNL     1       1.768   7.410  20.719  0.00  0.00    +0.000 N 
ATOM     29  C   UNL     1       1.182   8.655  20.683  0.00  0.00    +0.000 A 
ATOM     30  O   UNL     1       0.618   9.120  21.669  0.00  0.00    +0.000 OA
ATOM     31  H   UNL     1       1.723   6.921  21.611  0.00  0.00    +0.000 HD
BRANCH  27  32
ATOM     32  C   UNL     1       3.042   5.447  19.833  0.00  0.00    +0.000 C 
ATOM     33  F   UNL     1       4.396   5.541  19.867  0.00  0.00    +0.000 F 
ATOM     34  F   UNL     1       2.653   4.856  20.990  0.00  0.00    +0.000 F 
ATOM     35  F   UNL     1       2.729   4.594  18.825  0.00  0.00    +0.000 F 
ENDBRANCH  27  32
ENDBRANCH  21  24
ENDBRANCH   1  22
TORSDOF 4
ENDMDL
MODEL 7
REMARK VINA RESULT:      -7.7      0.944      1.062
REMARK  Name = 
REMARK  4 active torsions:
REMARK  status: ('A' for Active; 'I' for Inactive)
REMARK    1  A    between atoms: C_2  and  C_22
REMARK    2  A    between atoms: N_3  and  C_4
REMARK    3  A    between atoms: C_14  and  C_15
REMARK    4  A    between atoms: C_25  and  C_26
REMARK                            x       y       z     vdW  Elec       q    Type
REMARK                         _______ _______ _______ _____ _____    ______ ____
ROOT
ATOM      1  C   UNL     1       0.470  10.969  19.505  0.00  0.00    +0.000 C 
ATOM      2  C   UNL     1      -0.167  10.898  20.872  0.00  0.00    +0.000 A 
ATOM      3  C   UNL     1      -0.970  11.947  21.353  0.00  0.00    +0.000 A 
ATOM      4  C   UNL     1      -1.597  11.852  22.597  0.00  0.00    +0.000 A 
ATOM      5  C   UNL     1      -1.436  10.706  23.373  0.00  0.00    +0.000 A 
ATOM      6  C   UNL     1      -0.630   9.666  22.912  0.00  0.00    +0.000 A 
ATOM      7  C   UNL     1       0.007   9.766  21.672  0.00  0.00    +0.000 A 
ATOM      8  O   UNL     1       0.798   8.700  21.317  0.00  0.00    +0.000 OA
ATOM      9  C   UNL     1       1.318   8.665  20.048  0.00  0.00    +0.000 A 
ATOM     10  C   UNL     1       2.092   7.543  19.732  0.00  0.00    +0.000 A 
ATOM     11  C   UNL     1       2.691   7.376  18.469  0.00  0.00    +0.000 A 
ATOM     12  C   UNL     1       2.403   8.365  17.509  0.00  0.00    +0.000 A 
ATOM     13  C   UNL     1       1.638   9.494  17.818  0.00  0.00    +0.000 A 
ATOM     14  C   UNL     1       1.129   9.673  19.109  0.00  0.00    +0.000 A 
ENDROOT
BRANCH  11  15
ATOM     15  C   UNL     1       3.695   6.192  18.162  0.00  0.00    +0.000 C 
ATOM     16  C   UNL     1       4.416   5.459  19.322  0.00  0.00    +0.000 C 
ATOM     17  N   UNL     1       4.326   4.213  18.529  0.00  0.00    +0.000 NA
ATOM     18  C   UNL     1       3.144   4.781  17.839  0.00  0.00    +0.000 C 
ATOM     19  H   UNL     1       4.140   3.374  19.073  0.00  0.00    +0.000 HD
ENDBRANCH  11  15
BRANCH   1  22
ATOM     20  O   UNL     1       0.107  13.576  18.481  0.00  0.00    +0.000 OA
ATOM     21  C   UNL     1       1.203  13.270  18.946  0.00  0.00    +0.000 C 
ATOM     22  N   UNL     1       1.465  12.030  19.456  0.00  0.00    +0.000 N 
ATOM     23  H   UNL     1       2.383  11.834  19.851  0.00  0.00    +0.000 HD
BRANCH  21  24
ATOM     24  C   UNL     1       2.321  14.258  19.003  0.00  0.00    +0.000 A 
ATOM     25  C   UNL     1       2.097  15.421  19.645  0.00  0.00    +0.000 A 
ATOM     26  C   UNL     1       3.140  16.404  19.834  0.00  0.00    +0.000 A 
ATOM     27  C   UNL     1       4.383  16.177  19.378  0.00  0.00    +0.000 A 
ATOM     28  N   UNL     1       4.623  15.005  18.675  0.00  0.00    +0.000 N 
ATOM     29  C   UNL     1       3.679  14.034  18.424  0.00  0.00    +0.000 A 
ATOM     30  O   UNL     1       3.955  13.035  17.765  0.00  0.00    +0.000 OA
ATOM     31  H   UNL     1       5.554  14.828  18.303  0.00  0.00    +0.000 HD
BRANCH  27  32
ATOM     32  C   UNL     1       5.526  17.135  19.625  0.00  0.00    +0.000 C 
ATOM     33  F   UNL     1       6.458  16.600  20.457  0.00  0.00    +0.000 F 
ATOM     34  F   UNL     1       6.163  17.475  18.478  0.00  0.00    +0.000 F 
ATOM     35  F   UNL     1       5.097  18.287  20.200  0.00  0.00    +0.000 F 
ENDBRANCH  27  32
ENDBRANCH  21  24
ENDBRANCH   1  22
TORSDOF 4
ENDMDL
MODEL 8
REMARK VINA RESULT:      -7.7      4.391      8.117
REMARK  Name = 
REMARK  4 active torsions:
REMARK  status: ('A' for Active; 'I' for Inactive)
REMARK    1  A    between atoms: C_2  and  C_22
REMARK    2  A    between atoms: N_3  and  C_4
REMARK    3  A    between atoms: C_14  and  C_15
REMARK    4  A    between atoms: C_25  and  C_26
REMARK                            x       y       z     vdW  Elec       q    Type
REMARK                         _______ _______ _______ _____ _____    ______ ____
ROOT
ATOM      1  C   UNL     1      -0.190  10.557  19.417  0.00  0.00    +0.000 C 
ATOM      2  C   UNL     1      -1.405  10.572  18.522  0.00  0.00    +0.000 A 
ATOM      3  C   UNL     1      -2.268   9.465  18.452  0.00  0.00    +0.000 A 
ATOM      4  C   UNL     1      -3.418   9.507  17.660  0.00  0.00    +0.000 A 
ATOM      5  C   UNL     1      -3.723  10.656  16.934  0.00  0.00    +0.000 A 
ATOM      6  C   UNL     1      -2.866  11.754  16.985  0.00  0.00    +0.000 A 
ATOM      7  C   UNL     1      -1.710  11.709  17.768  0.00  0.00    +0.000 A 
ATOM      8  O   UNL     1      -0.918  12.831  17.734  0.00  0.00    +0.000 OA
ATOM      9  C   UNL     1       0.141  12.912  18.603  0.00  0.00    +0.000 A 
ATOM     10  C   UNL     1       0.895  14.089  18.543  0.00  0.00    +0.000 A 
ATOM     11  C   UNL     1       2.012  14.308  19.373  0.00  0.00    +0.000 A 
ATOM     12  C   UNL     1       2.284  13.306  20.324  0.00  0.00    +0.000 A 
ATOM     13  C   UNL     1       1.541  12.123  20.386  0.00  0.00    +0.000 A 
ATOM     14  C   UNL     1       0.491  11.899  19.488  0.00  0.00    +0.000 A 
ENDROOT
BRANCH  11  15
ATOM     15  C   UNL     1       2.960  15.563  19.198  0.00  0.00    +0.000 C 
ATOM     16  C   UNL     1       3.816  15.722  17.915  0.00  0.00    +0.000 C 
ATOM     17  N   UNL     1       3.616  17.184  18.019  0.00  0.00    +0.000 NA
ATOM     18  C   UNL     1       2.361  16.923  18.762  0.00  0.00    +0.000 C 
ATOM     19  H   UNL     1       3.493  17.662  17.129  0.00  0.00    +0.000 HD
ENDBRANCH  11  15
BRANCH   1  22
ATOM     20  O   UNL     1       0.959   8.478  20.946  0.00  0.00    +0.000 OA
ATOM     21  C   UNL     1       1.280   8.591  19.765  0.00  0.00    +0.000 C 
ATOM     22  N   UNL     1       0.776   9.571  18.956  0.00  0.00    +0.000 N 
ATOM     23  H   UNL     1       1.056   9.607  17.977  0.00  0.00    +0.000 HD
BRANCH  21  24
ATOM     24  C   UNL     1       2.234   7.634  19.128  0.00  0.00    +0.000 A 
ATOM     25  C   UNL     1       2.874   8.037  18.014  0.00  0.00    +0.000 A 
ATOM     26  C   UNL     1       3.881   7.222  17.373  0.00  0.00    +0.000 A 
ATOM     27  C   UNL     1       4.222   6.028  17.887  0.00  0.00    +0.000 A 
ATOM     28  N   UNL     1       3.542   5.576  19.009  0.00  0.00    +0.000 N 
ATOM     29  C   UNL     1       2.549   6.275  19.658  0.00  0.00    +0.000 A 
ATOM     30  O   UNL     1       1.966   5.797  20.628  0.00  0.00    +0.000 OA
ATOM     31  H   UNL     1       3.771   4.663  19.397  0.00  0.00    +0.000 HD
BRANCH  27  32
ATOM     32  C   UNL     1       5.328   5.179  17.304  0.00  0.00    +0.000 C 
ATOM     33  F   UNL     1       6.390   5.933  16.919  0.00  0.00    +0.000 F 
ATOM     34  F   UNL     1       5.789   4.263  18.191  0.00  0.00    +0.000 F 
ATOM     35  F   UNL     1       4.909   4.497  16.208  0.00  0.00    +0.000 F 
ENDBRANCH  27  32
ENDBRANCH  21  24
ENDBRANCH   1  22
TORSDOF 4
ENDMDL
MODEL 9
REMARK VINA RESULT:      -7.6      5.372      8.300
REMARK  Name = 
REMARK  4 active torsions:
REMARK  status: ('A' for Active; 'I' for Inactive)
REMARK    1  A    between atoms: C_2  and  C_22
REMARK    2  A    between atoms: N_3  and  C_4
REMARK    3  A    between atoms: C_14  and  C_15
REMARK    4  A    between atoms: C_25  and  C_26
REMARK                            x       y       z     vdW  Elec       q    Type
REMARK                         _______ _______ _______ _____ _____    ______ ____
ROOT
ATOM      1  C   UNL     1      -0.481  12.337  19.230  0.00  0.00    +0.000 C 
ATOM      2  C   UNL     1      -0.014  13.259  20.330  0.00  0.00    +0.000 A 
ATOM      3  C   UNL     1       1.347  13.573  20.485  0.00  0.00    +0.000 A 
ATOM      4  C   UNL     1       1.764  14.467  21.473  0.00  0.00    +0.000 A 
ATOM      5  C   UNL     1       0.827  15.064  22.313  0.00  0.00    +0.000 A 
ATOM      6  C   UNL     1      -0.524  14.748  22.179  0.00  0.00    +0.000 A 
ATOM      7  C   UNL     1      -0.940  13.845  21.197  0.00  0.00    +0.000 A 
ATOM      8  O   UNL     1      -2.288  13.581  21.159  0.00  0.00    +0.000 OA
ATOM      9  C   UNL     1      -2.779  12.833  20.119  0.00  0.00    +0.000 A 
ATOM     10  C   UNL     1      -4.162  12.619  20.116  0.00  0.00    +0.000 A 
ATOM     11  C   UNL     1      -4.803  11.867  19.113  0.00  0.00    +0.000 A 
ATOM     12  C   UNL     1      -3.984  11.402  18.066  0.00  0.00    +0.000 A 
ATOM     13  C   UNL     1      -2.600  11.603  18.065  0.00  0.00    +0.000 A 
ATOM     14  C   UNL     1      -1.983  12.281  19.122  0.00  0.00    +0.000 A 
ENDROOT
BRANCH  11  15
ATOM     15  C   UNL     1      -6.338  11.489  19.193  0.00  0.00    +0.000 C 
ATOM     16  C   UNL     1      -6.780  10.005  19.154  0.00  0.00    +0.000 C 
ATOM     17  N   UNL     1      -7.879  10.355  20.081  0.00  0.00    +0.000 NA
ATOM     18  C   UNL     1      -7.059  11.491  20.563  0.00  0.00    +0.000 C 
ATOM     19  H   UNL     1      -8.085   9.649  20.784  0.00  0.00    +0.000 HD
ENDBRANCH  11  15
BRANCH   1  22
ATOM     20  O   UNL     1       1.854  11.205  18.114  0.00  0.00    +0.000 OA
ATOM     21  C   UNL     1       1.166  10.519  18.867  0.00  0.00    +0.000 C 
ATOM     22  N   UNL     1       0.019  10.986  19.444  0.00  0.00    +0.000 N 
ATOM     23  H   UNL     1      -0.504  10.386  20.080  0.00  0.00    +0.000 HD
BRANCH  21  24
ATOM     24  C   UNL     1       1.562   9.123  19.219  0.00  0.00    +0.000 A 
ATOM     25  C   UNL     1       1.254   8.677  20.452  0.00  0.00    +0.000 A 
ATOM     26  C   UNL     1       1.513   7.314  20.860  0.00  0.00    +0.000 A 
ATOM     27  C   UNL     1       2.064   6.438  20.004  0.00  0.00    +0.000 A 
ATOM     28  N   UNL     1       2.430   6.891  18.743  0.00  0.00    +0.000 N 
ATOM     29  C   UNL     1       2.248   8.178  18.289  0.00  0.00    +0.000 A 
ATOM     30  O   UNL     1       2.627   8.516  17.171  0.00  0.00    +0.000 OA
ATOM     31  H   UNL     1       2.870   6.246  18.090  0.00  0.00    +0.000 HD
BRANCH  27  32
ATOM     32  C   UNL     1       2.275   4.983  20.354  0.00  0.00    +0.000 C 
ATOM     33  F   UNL     1       2.346   4.795  21.697  0.00  0.00    +0.000 F 
ATOM     34  F   UNL     1       1.270   4.197  19.894  0.00  0.00    +0.000 F 
ATOM     35  F   UNL     1       3.430   4.505  19.825  0.00  0.00    +0.000 F 
ENDBRANCH  27  32
ENDBRANCH  21  24
ENDBRANCH   1  22
TORSDOF 4
ENDMDL
