MODEL 1
REMARK VINA RESULT:      -8.1      0.000      0.000
REMARK  Name = 
REMARK  4 active torsions:
REMARK  status: ('A' for Active; 'I' for Inactive)
REMARK    1  A    between atoms: C_1  and  N_2
REMARK    2  A    between atoms: C_6  and  S_7
REMARK    3  A    between atoms: S_7  and  C_8
REMARK    4  A    between atoms: C_8  and  C_11
REMARK                            x       y       z     vdW  Elec       q    Type
REMARK                         _______ _______ _______ _____ _____    ______ ____
ROOT
ATOM      1  C   UNL     1       5.328   5.336  16.503  0.00  0.00    +0.000 C 
ATOM      2  F   UNL     1       6.374   6.017  17.061  0.00  0.00    +0.000 F 
ATOM      3  F   UNL     1       4.834   6.187  15.550  0.00  0.00    +0.000 F 
ENDROOT
BRANCH   1   4
ATOM      4  C   UNL     1       4.248   5.010  17.500  0.00  0.00    +0.000 A 
ATOM      5  N   UNL     1       3.883   5.677  18.589  0.00  0.00    +0.000 NA
ATOM      6  C   UNL     1       2.841   4.940  19.093  0.00  0.00    +0.000 A 
ATOM      7  C   UNL     1       2.034   5.139  20.220  0.00  0.00    +0.000 A 
ATOM      8  C   UNL     1       1.016   4.209  20.477  0.00  0.00    +0.000 A 
ATOM      9  C   UNL     1       0.813   3.106  19.636  0.00  0.00    +0.000 A 
ATOM     10  C   UNL     1       1.617   2.890  18.511  0.00  0.00    +0.000 A 
ATOM     11  C   UNL     1       2.612   3.836  18.290  0.00  0.00    +0.000 A 
ATOM     12  O   UNL     1       3.521   3.861  17.274  0.00  0.00    +0.000 OA
ENDBRANCH   1   4
BRANCH   1  13
ATOM     13  S   UNL     1       5.966   3.861  15.633  0.00  0.00    +0.000 S 
BRANCH  13  19
ATOM     14  C   UNL     1       5.914   3.356  12.389  0.00  0.00    +0.000 C 
ATOM     15  N   UNL     1       6.783   4.283  13.059  0.00  0.00    +0.000 N 
ATOM     16  N   UNL     1       7.661   5.017  12.352  0.00  0.00    +0.000 NA
ATOM     17  N   UNL     1       8.292   5.761  13.249  0.00  0.00    +0.000 NA
ATOM     18  N   UNL     1       7.826   5.509  14.515  0.00  0.00    +0.000 NA
ATOM     19  C   UNL     1       6.899   4.592  14.384  0.00  0.00    +0.000 A 
ENDBRANCH  13  19
ENDBRANCH   1  13
TORSDOF 3
ENDMDL
MODEL 2
REMARK VINA RESULT:      -7.9      0.769      1.356
REMARK  Name = 
REMARK  4 active torsions:
REMARK  status: ('A' for Active; 'I' for Inactive)
REMARK    1  A    between atoms: C_1  and  N_2
REMARK    2  A    between atoms: C_6  and  S_7
REMARK    3  A    between atoms: S_7  and  C_8
REMARK    4  A    between atoms: C_8  and  C_11
REMARK                            x       y       z     vdW  Elec       q    Type
REMARK                         _______ _______ _______ _____ _____    ______ ____
ROOT
ATOM      1  C   UNL     1       5.312   5.097  16.434  0.00  0.00    +0.000 C 
ATOM      2  F   UNL     1       6.289   5.764  17.118  0.00  0.00    +0.000 F 
ATOM      3  F   UNL     1       4.881   5.993  15.491  0.00  0.00    +0.000 F 
ENDROOT
BRANCH   1   4
ATOM      4  C   UNL     1       4.159   4.692  17.313  0.00  0.00    +0.000 A 
ATOM      5  N   UNL     1       3.287   3.704  17.150  0.00  0.00    +0.000 NA
ATOM      6  C   UNL     1       2.484   3.788  18.260  0.00  0.00    +0.000 A 
ATOM      7  C   UNL     1       1.391   3.012  18.665  0.00  0.00    +0.000 A 
ATOM      8  C   UNL     1       0.766   3.331  19.880  0.00  0.00    +0.000 A 
ATOM      9  C   UNL     1       1.216   4.401  20.666  0.00  0.00    +0.000 A 
ATOM     10  C   UNL     1       2.301   5.191  20.269  0.00  0.00    +0.000 A 
ATOM     11  C   UNL     1       2.893   4.839  19.062  0.00  0.00    +0.000 A 
ATOM     12  O   UNL     1       3.958   5.438  18.454  0.00  0.00    +0.000 OA
ENDBRANCH   1   4
BRANCH   1  13
ATOM     13  S   UNL     1       6.058   3.688  15.540  0.00  0.00    +0.000 S 
BRANCH  13  19
ATOM     14  C   UNL     1       5.987   3.340  12.276  0.00  0.00    +0.000 C 
ATOM     15  N   UNL     1       6.835   4.260  12.982  0.00  0.00    +0.000 N 
ATOM     16  N   UNL     1       7.682   5.055  12.305  0.00  0.00    +0.000 NA
ATOM     17  N   UNL     1       8.299   5.774  13.232  0.00  0.00    +0.000 NA
ATOM     18  N   UNL     1       7.854   5.445  14.488  0.00  0.00    +0.000 NA
ATOM     19  C   UNL     1       6.954   4.507  14.320  0.00  0.00    +0.000 A 
ENDBRANCH  13  19
ENDBRANCH   1  13
TORSDOF 3
ENDMDL
MODEL 3
REMARK VINA RESULT:      -7.9      3.763      6.653
REMARK  Name = 
REMARK  4 active torsions:
REMARK  status: ('A' for Active; 'I' for Inactive)
REMARK    1  A    between atoms: C_1  and  N_2
REMARK    2  A    between atoms: C_6  and  S_7
REMARK    3  A    between atoms: S_7  and  C_8
REMARK    4  A    between atoms: C_8  and  C_11
REMARK                            x       y       z     vdW  Elec       q    Type
REMARK                         _______ _______ _______ _____ _____    ______ ____
ROOT
ATOM      1  C   UNL     1       1.689   4.356  17.990  0.00  0.00    +0.000 C 
ATOM      2  F   UNL     1       0.775   4.690  17.030  0.00  0.00    +0.000 F 
ATOM      3  F   UNL     1       1.296   5.061  19.097  0.00  0.00    +0.000 F 
ENDROOT
BRANCH   1   4
ATOM      4  C   UNL     1       3.095   4.744  17.615  0.00  0.00    +0.000 A 
ATOM      5  N   UNL     1       3.807   5.795  18.005  0.00  0.00    +0.000 NA
ATOM      6  C   UNL     1       5.015   5.626  17.376  0.00  0.00    +0.000 A 
ATOM      7  C   UNL     1       6.182   6.399  17.403  0.00  0.00    +0.000 A 
ATOM      8  C   UNL     1       7.285   5.958  16.658  0.00  0.00    +0.000 A 
ATOM      9  C   UNL     1       7.224   4.780  15.901  0.00  0.00    +0.000 A 
ATOM     10  C   UNL     1       6.060   4.002  15.857  0.00  0.00    +0.000 A 
ATOM     11  C   UNL     1       4.992   4.472  16.611  0.00  0.00    +0.000 A 
ATOM     12  O   UNL     1       3.758   3.907  16.743  0.00  0.00    +0.000 OA
ENDBRANCH   1   4
BRANCH   1  13
ATOM     13  S   UNL     1       1.520   2.581  18.390  0.00  0.00    +0.000 S 
BRANCH  13  19
ATOM     14  C   UNL     1       4.386   2.325  19.973  0.00  0.00    +0.000 C 
ATOM     15  N   UNL     1       3.108   2.465  20.613  0.00  0.00    +0.000 N 
ATOM     16  N   UNL     1       3.023   2.495  21.955  0.00  0.00    +0.000 NA
ATOM     17  N   UNL     1       1.732   2.638  22.218  0.00  0.00    +0.000 NA
ATOM     18  N   UNL     1       0.997   2.702  21.061  0.00  0.00    +0.000 NA
ATOM     19  C   UNL     1       1.857   2.589  20.078  0.00  0.00    +0.000 A 
ENDBRANCH  13  19
ENDBRANCH   1  13
TORSDOF 3
ENDMDL
MODEL 4
REMARK VINA RESULT:      -7.8      3.558      6.810
REMARK  Name = 
REMARK  4 active torsions:
REMARK  status: ('A' for Active; 'I' for Inactive)
REMARK    1  A    between atoms: C_1  and  N_2
REMARK    2  A    between atoms: C_6  and  S_7
REMARK    3  A    between atoms: S_7  and  C_8
REMARK    4  A    between atoms: C_8  and  C_11
REMARK                            x       y       z     vdW  Elec       q    Type
REMARK                         _______ _______ _______ _____ _____    ______ ____
ROOT
ATOM      1  C   UNL     1       1.748   4.300  17.985  0.00  0.00    +0.000 C 
ATOM      2  F   UNL     1       0.824   4.707  17.065  0.00  0.00    +0.000 F 
ATOM      3  F   UNL     1       1.502   5.078  19.085  0.00  0.00    +0.000 F 
ENDROOT
BRANCH   1   4
ATOM      4  C   UNL     1       3.164   4.512  17.521  0.00  0.00    +0.000 A 
ATOM      5  N   UNL     1       3.904   3.759  16.716  0.00  0.00    +0.000 NA
ATOM      6  C   UNL     1       5.090   4.443  16.623  0.00  0.00    +0.000 A 
ATOM      7  C   UNL     1       6.261   4.161  15.910  0.00  0.00    +0.000 A 
ATOM      8  C   UNL     1       7.325   5.071  15.996  0.00  0.00    +0.000 A 
ATOM      9  C   UNL     1       7.224   6.229  16.779  0.00  0.00    +0.000 A 
ATOM     10  C   UNL     1       6.063   6.520  17.505  0.00  0.00    +0.000 A 
ATOM     11  C   UNL     1       5.033   5.594  17.389  0.00  0.00    +0.000 A 
ATOM     12  O   UNL     1       3.807   5.639  17.985  0.00  0.00    +0.000 OA
ENDBRANCH   1   4
BRANCH   1  13
ATOM     13  S   UNL     1       1.402   2.569  18.459  0.00  0.00    +0.000 S 
BRANCH  13  19
ATOM     14  C   UNL     1       4.300   2.242  19.970  0.00  0.00    +0.000 C 
ATOM     15  N   UNL     1       3.046   2.444  20.641  0.00  0.00    +0.000 N 
ATOM     16  N   UNL     1       3.000   2.507  21.983  0.00  0.00    +0.000 NA
ATOM     17  N   UNL     1       1.722   2.705  22.278  0.00  0.00    +0.000 NA
ATOM     18  N   UNL     1       0.959   2.769  21.140  0.00  0.00    +0.000 NA
ATOM     19  C   UNL     1       1.786   2.602  20.137  0.00  0.00    +0.000 A 
ENDBRANCH  13  19
ENDBRANCH   1  13
TORSDOF 3
ENDMDL
MODEL 5
REMARK VINA RESULT:      -7.7      2.197      3.163
REMARK  Name = 
REMARK  4 active torsions:
REMARK  status: ('A' for Active; 'I' for Inactive)
REMARK    1  A    between atoms: C_1  and  N_2
REMARK    2  A    between atoms: C_6  and  S_7
REMARK    3  A    between atoms: S_7  and  C_8
REMARK    4  A    between atoms: C_8  and  C_11
REMARK                            x       y       z     vdW  Elec       q    Type
REMARK                         _______ _______ _______ _____ _____    ______ ____
ROOT
ATOM      1  C   UNL     1       5.084   4.930  16.161  0.00  0.00    +0.000 C 
ATOM      2  F   UNL     1       5.042   6.219  15.707  0.00  0.00    +0.000 F 
ATOM      3  F   UNL     1       4.767   4.171  15.066  0.00  0.00    +0.000 F 
ENDROOT
BRANCH   1   4
ATOM      4  C   UNL     1       4.091   4.669  17.263  0.00  0.00    +0.000 A 
ATOM      5  N   UNL     1       3.874   5.360  18.376  0.00  0.00    +0.000 NA
ATOM      6  C   UNL     1       2.847   4.685  18.987  0.00  0.00    +0.000 A 
ATOM      7  C   UNL     1       2.168   4.933  20.186  0.00  0.00    +0.000 A 
ATOM      8  C   UNL     1       1.131   4.062  20.552  0.00  0.00    +0.000 A 
ATOM      9  C   UNL     1       0.785   2.969  19.745  0.00  0.00    +0.000 A 
ATOM     10  C   UNL     1       1.461   2.704  18.548  0.00  0.00    +0.000 A 
ATOM     11  C   UNL     1       2.479   3.591  18.222  0.00  0.00    +0.000 A 
ATOM     12  O   UNL     1       3.283   3.562  17.121  0.00  0.00    +0.000 OA
ENDBRANCH   1   4
BRANCH   1  13
ATOM     13  S   UNL     1       6.799   4.513  16.631  0.00  0.00    +0.000 S 
BRANCH  13  19
ATOM     14  C   UNL     1       7.671   5.485  19.644  0.00  0.00    +0.000 C 
ATOM     15  N   UNL     1       7.697   6.320  18.475  0.00  0.00    +0.000 N 
ATOM     16  N   UNL     1       8.095   7.601  18.569  0.00  0.00    +0.000 NA
ATOM     17  N   UNL     1       8.013   8.081  17.336  0.00  0.00    +0.000 NA
ATOM     18  N   UNL     1       7.569   7.121  16.463  0.00  0.00    +0.000 NA
ATOM     19  C   UNL     1       7.374   6.041  17.179  0.00  0.00    +0.000 A 
ENDBRANCH  13  19
ENDBRANCH   1  13
TORSDOF 3
ENDMDL
MODEL 6
REMARK VINA RESULT:      -7.7      2.221      2.637
REMARK  Name = 
REMARK  4 active torsions:
REMARK  status: ('A' for Active; 'I' for Inactive)
REMARK    1  A    between atoms: C_1  and  N_2
REMARK    2  A    between atoms: C_6  and  S_7
REMARK    3  A    between atoms: S_7  and  C_8
REMARK    4  A    between atoms: C_8  and  C_11
REMARK                            x       y       z     vdW  Elec       q    Type
REMARK                         _______ _______ _______ _____ _____    ______ ____
ROOT
ATOM      1  C   UNL     1       6.653   5.256  18.679  0.00  0.00    +0.000 C 
ATOM      2  F   UNL     1       7.505   4.294  18.216  0.00  0.00    +0.000 F 
ATOM      3  F   UNL     1       7.326   5.837  19.721  0.00  0.00    +0.000 F 
ENDROOT
BRANCH   1   4
ATOM      4  C   UNL     1       5.348   4.689  19.173  0.00  0.00    +0.000 A 
ATOM      5  N   UNL     1       5.038   3.432  19.466  0.00  0.00    +0.000 NA
ATOM      6  C   UNL     1       3.734   3.504  19.888  0.00  0.00    +0.000 A 
ATOM      7  C   UNL     1       2.857   2.511  20.341  0.00  0.00    +0.000 A 
ATOM      8  C   UNL     1       1.564   2.894  20.727  0.00  0.00    +0.000 A 
ATOM      9  C   UNL     1       1.155   4.233  20.656  0.00  0.00    +0.000 A 
ATOM     10  C   UNL     1       2.018   5.235  20.196  0.00  0.00    +0.000 A 
ATOM     11  C   UNL     1       3.289   4.813  19.827  0.00  0.00    +0.000 A 
ATOM     12  O   UNL     1       4.312   5.581  19.352  0.00  0.00    +0.000 OA
ENDBRANCH   1   4
BRANCH   1  13
ATOM     13  S   UNL     1       6.435   6.537  17.395  0.00  0.00    +0.000 S 
BRANCH  13  19
ATOM     14  C   UNL     1       4.381   4.344  16.069  0.00  0.00    +0.000 C 
ATOM     15  N   UNL     1       5.658   4.705  15.519  0.00  0.00    +0.000 N 
ATOM     16  N   UNL     1       6.092   4.130  14.384  0.00  0.00    +0.000 NA
ATOM     17  N   UNL     1       7.276   4.677  14.148  0.00  0.00    +0.000 NA
ATOM     18  N   UNL     1       7.597   5.593  15.119  0.00  0.00    +0.000 NA
ATOM     19  C   UNL     1       6.593   5.597  15.960  0.00  0.00    +0.000 A 
ENDBRANCH  13  19
ENDBRANCH   1  13
TORSDOF 3
ENDMDL
MODEL 7
REMARK VINA RESULT:      -7.7      2.427      3.384
REMARK  Name = 
REMARK  4 active torsions:
REMARK  status: ('A' for Active; 'I' for Inactive)
REMARK    1  A    between atoms: C_1  and  N_2
REMARK    2  A    between atoms: C_6  and  S_7
REMARK    3  A    between atoms: S_7  and  C_8
REMARK    4  A    between atoms: C_8  and  C_11
REMARK                            x       y       z     vdW  Elec       q    Type
REMARK                         _______ _______ _______ _____ _____    ______ ____
ROOT
ATOM      1  C   UNL     1       4.978   4.733  16.670  0.00  0.00    +0.000 C 
ATOM      2  F   UNL     1       4.762   6.067  16.466  0.00  0.00    +0.000 F 
ATOM      3  F   UNL     1       4.535   4.134  15.521  0.00  0.00    +0.000 F 
ENDROOT
BRANCH   1   4
ATOM      4  C   UNL     1       4.213   4.193  17.850  0.00  0.00    +0.000 A 
ATOM      5  N   UNL     1       4.660   3.512  18.898  0.00  0.00    +0.000 NA
ATOM      6  C   UNL     1       3.537   3.307  19.661  0.00  0.00    +0.000 A 
ATOM      7  C   UNL     1       3.366   2.661  20.891  0.00  0.00    +0.000 A 
ATOM      8  C   UNL     1       2.078   2.624  21.446  0.00  0.00    +0.000 A 
ATOM      9  C   UNL     1       0.989   3.211  20.787  0.00  0.00    +0.000 A 
ATOM     10  C   UNL     1       1.144   3.852  19.552  0.00  0.00    +0.000 A 
ATOM     11  C   UNL     1       2.435   3.869  19.039  0.00  0.00    +0.000 A 
ATOM     12  O   UNL     1       2.855   4.426  17.867  0.00  0.00    +0.000 OA
ENDBRANCH   1   4
BRANCH   1  13
ATOM     13  S   UNL     1       6.775   4.424  16.783  0.00  0.00    +0.000 S 
BRANCH  13  19
ATOM     14  C   UNL     1       7.769   5.537  19.708  0.00  0.00    +0.000 C 
ATOM     15  N   UNL     1       7.729   6.321  18.505  0.00  0.00    +0.000 N 
ATOM     16  N   UNL     1       8.111   7.610  18.526  0.00  0.00    +0.000 NA
ATOM     17  N   UNL     1       7.966   8.036  17.279  0.00  0.00    +0.000 NA
ATOM     18  N   UNL     1       7.497   7.033  16.468  0.00  0.00    +0.000 NA
ATOM     19  C   UNL     1       7.351   5.982  17.238  0.00  0.00    +0.000 A 
ENDBRANCH  13  19
ENDBRANCH   1  13
TORSDOF 3
ENDMDL
MODEL 8
REMARK VINA RESULT:      -7.7      2.698      3.439
REMARK  Name = 
REMARK  4 active torsions:
REMARK  status: ('A' for Active; 'I' for Inactive)
REMARK    1  A    between atoms: C_1  and  N_2
REMARK    2  A    between atoms: C_6  and  S_7
REMARK    3  A    between atoms: S_7  and  C_8
REMARK    4  A    between atoms: C_8  and  C_11
REMARK                            x       y       z     vdW  Elec       q    Type
REMARK                         _______ _______ _______ _____ _____    ______ ____
ROOT
ATOM      1  C   UNL     1       5.322   5.271  15.578  0.00  0.00    +0.000 C 
ATOM      2  F   UNL     1       5.247   6.620  15.375  0.00  0.00    +0.000 F 
ATOM      3  F   UNL     1       4.989   4.723  14.368  0.00  0.00    +0.000 F 
ENDROOT
BRANCH   1   4
ATOM      4  C   UNL     1       4.364   4.787  16.634  0.00  0.00    +0.000 A 
ATOM      5  N   UNL     1       3.665   5.490  17.517  0.00  0.00    +0.000 NA
ATOM      6  C   UNL     1       2.949   4.541  18.202  0.00  0.00    +0.000 A 
ATOM      7  C   UNL     1       2.024   4.662  19.246  0.00  0.00    +0.000 A 
ATOM      8  C   UNL     1       1.429   3.492  19.743  0.00  0.00    +0.000 A 
ATOM      9  C   UNL     1       1.754   2.235  19.215  0.00  0.00    +0.000 A 
ATOM     10  C   UNL     1       2.684   2.098  18.177  0.00  0.00    +0.000 A 
ATOM     11  C   UNL     1       3.247   3.281  17.713  0.00  0.00    +0.000 A 
ATOM     12  O   UNL     1       4.168   3.425  16.717  0.00  0.00    +0.000 OA
ENDBRANCH   1   4
BRANCH   1  13
ATOM     13  S   UNL     1       7.056   4.810  15.922  0.00  0.00    +0.000 S 
BRANCH  13  19
ATOM     14  C   UNL     1       7.715   7.663  17.407  0.00  0.00    +0.000 C 
ATOM     15  N   UNL     1       7.464   6.425  18.090  0.00  0.00    +0.000 N 
ATOM     16  N   UNL     1       7.494   6.375  19.433  0.00  0.00    +0.000 NA
ATOM     17  N   UNL     1       7.218   5.115  19.741  0.00  0.00    +0.000 NA
ATOM     18  N   UNL     1       7.014   4.366  18.610  0.00  0.00    +0.000 NA
ATOM     19  C   UNL     1       7.173   5.184  17.598  0.00  0.00    +0.000 A 
ENDBRANCH  13  19
ENDBRANCH   1  13
TORSDOF 3
ENDMDL
MODEL 9
REMARK VINA RESULT:      -7.6      1.140      1.178
REMARK  Name = 
REMARK  4 active torsions:
REMARK  status: ('A' for Active; 'I' for Inactive)
REMARK    1  A    between atoms: C_1  and  N_2
REMARK    2  A    between atoms: C_6  and  S_7
REMARK    3  A    between atoms: S_7  and  C_8
REMARK    4  A    between atoms: C_8  and  C_11
REMARK                            x       y       z     vdW  Elec       q    Type
REMARK                         _______ _______ _______ _____ _____    ______ ____
ROOT
ATOM      1  C   UNL     1       5.280   4.980  16.850  0.00  0.00    +0.000 C 
ATOM      2  F   UNL     1       6.398   5.486  17.451  0.00  0.00    +0.000 F 
ATOM      3  F   UNL     1       4.805   6.012  16.084  0.00  0.00    +0.000 F 
ENDROOT
BRANCH   1   4
ATOM      4  C   UNL     1       4.227   4.559  17.841  0.00  0.00    +0.000 A 
ATOM      5  N   UNL     1       2.938   4.876  17.880  0.00  0.00    +0.000 NA
ATOM      6  C   UNL     1       2.464   4.193  18.972  0.00  0.00    +0.000 A 
ATOM      7  C   UNL     1       1.178   4.116  19.522  0.00  0.00    +0.000 A 
ATOM      8  C   UNL     1       0.990   3.309  20.654  0.00  0.00    +0.000 A 
ATOM      9  C   UNL     1       2.057   2.603  21.225  0.00  0.00    +0.000 A 
ATOM     10  C   UNL     1       3.349   2.678  20.691  0.00  0.00    +0.000 A 
ATOM     11  C   UNL     1       3.492   3.485  19.570  0.00  0.00    +0.000 A 
ATOM     12  O   UNL     1       4.633   3.727  18.861  0.00  0.00    +0.000 OA
ENDBRANCH   1   4
BRANCH   1  13
ATOM     13  S   UNL     1       5.765   3.638  15.709  0.00  0.00    +0.000 S 
BRANCH  13  19
ATOM     14  C   UNL     1       5.977   3.445  12.438  0.00  0.00    +0.000 C 
ATOM     15  N   UNL     1       6.780   4.306  13.261  0.00  0.00    +0.000 N 
ATOM     16  N   UNL     1       7.704   5.108  12.700  0.00  0.00    +0.000 NA
ATOM     17  N   UNL     1       8.253   5.765  13.712  0.00  0.00    +0.000 NA
ATOM     18  N   UNL     1       7.690   5.390  14.906  0.00  0.00    +0.000 NA
ATOM     19  C   UNL     1       6.786   4.487  14.614  0.00  0.00    +0.000 A 
ENDBRANCH  13  19
ENDBRANCH   1  13
TORSDOF 3
ENDMDL
