MODEL 1
REMARK VINA RESULT:      -9.0      0.000      0.000
REMARK  Name = 
REMARK  6 active torsions:
REMARK  status: ('A' for Active; 'I' for Inactive)
REMARK    1  A    between atoms: C_2  and  C_13
REMARK    2  A    between atoms: N_3  and  C_4
REMARK    3  A    between atoms: C_4  and  C_5
REMARK    4  A    between atoms: N_16  and  P_17
REMARK    5  A    between atoms: P_17  and  C_18
REMARK    6  A    between atoms: P_17  and  C_24
REMARK                            x       y       z     vdW  Elec       q    Type
REMARK                         _______ _______ _______ _____ _____    ______ ____
ROOT
ATOM      1  C   UNL     1       7.730   5.831  18.148  0.00  0.00    +0.000 C 
ATOM      2  C   UNL     1       7.356   4.638  17.276  0.00  0.00    +0.000 C 
ATOM      3  C   UNL     1       5.842   4.557  17.064  0.00  0.00    +0.000 C 
ATOM      4  N   UNL     1       5.042   4.502  18.312  0.00  0.00    +0.000 NA
ATOM      5  C   UNL     1       5.465   5.556  19.269  0.00  0.00    +0.000 C 
ATOM      6  C   UNL     1       6.982   5.674  19.471  0.00  0.00    +0.000 C 
ENDROOT
BRANCH   1   8
ATOM      7  O   UNL     1       6.679   7.310  16.529  0.00  0.00    +0.000 OA
ATOM      8  C   UNL     1       7.441   7.183  17.481  0.00  0.00    +0.000 C 
ATOM      9  N   UNL     1       8.075   8.259  18.058  0.00  0.00    +0.000 N 
ATOM     10  H   UNL     1       8.655   8.130  18.876  0.00  0.00    +0.000 HD
BRANCH   9  11
ATOM     11  C   UNL     1       7.960   9.597  17.516  0.00  0.00    +0.000 C 
BRANCH  11  12
ATOM     12  C   UNL     1       8.615  10.620  18.409  0.00  0.00    +0.000 A 
ATOM     13  C   UNL     1       9.378  10.170  19.502  0.00  0.00    +0.000 A 
ATOM     14  C   UNL     1       9.990  11.074  20.374  0.00  0.00    +0.000 A 
ATOM     15  C   UNL     1       9.851  12.442  20.153  0.00  0.00    +0.000 A 
ATOM     16 CL   UNL     1      10.597  13.560  21.229  0.00  0.00    +0.000 Cl
ATOM     17  C   UNL     1       9.116  12.912  19.068  0.00  0.00    +0.000 A 
ATOM     18  C   UNL     1       8.507  12.005  18.196  0.00  0.00    +0.000 A 
ATOM     19 CL   UNL     1       7.628  12.654  16.857  0.00  0.00    +0.000 Cl
ENDBRANCH  11  12
ENDBRANCH   9  11
ENDBRANCH   1   8
BRANCH   4  20
ATOM     20  P   UNL     1       3.326   4.556  17.985  0.00  0.00    +0.000 P 
BRANCH  20  21
ATOM     21  C   UNL     1       2.692   3.720  19.483  0.00  0.00    +0.000 A 
ATOM     22  C   UNL     1       3.498   3.000  20.371  0.00  0.00    +0.000 A 
ATOM     23  C   UNL     1       2.946   2.312  21.456  0.00  0.00    +0.000 A 
ATOM     24  C   UNL     1       1.570   2.327  21.664  0.00  0.00    +0.000 A 
ATOM     25  C   UNL     1       0.749   3.039  20.799  0.00  0.00    +0.000 A 
ATOM     26  C   UNL     1       1.303   3.735  19.718  0.00  0.00    +0.000 A 
ENDBRANCH  20  21
BRANCH  20  27
ATOM     27  C   UNL     1       2.914   6.311  18.283  0.00  0.00    +0.000 A 
ATOM     28  C   UNL     1       2.334   6.655  19.516  0.00  0.00    +0.000 A 
ATOM     29  C   UNL     1       1.938   7.967  19.794  0.00  0.00    +0.000 A 
ATOM     30  C   UNL     1       2.123   8.966  18.839  0.00  0.00    +0.000 A 
ATOM     31  C   UNL     1       2.702   8.648  17.616  0.00  0.00    +0.000 A 
ATOM     32  C   UNL     1       3.093   7.335  17.341  0.00  0.00    +0.000 A 
ENDBRANCH  20  27
ENDBRANCH   4  20
TORSDOF 6
ENDMDL
MODEL 2
REMARK VINA RESULT:      -8.4      3.462      7.159
REMARK  Name = 
REMARK  6 active torsions:
REMARK  status: ('A' for Active; 'I' for Inactive)
REMARK    1  A    between atoms: C_2  and  C_13
REMARK    2  A    between atoms: N_3  and  C_4
REMARK    3  A    between atoms: C_4  and  C_5
REMARK    4  A    between atoms: N_16  and  P_17
REMARK    5  A    between atoms: P_17  and  C_18
REMARK    6  A    between atoms: P_17  and  C_24
REMARK                            x       y       z     vdW  Elec       q    Type
REMARK                         _______ _______ _______ _____ _____    ______ ____
ROOT
ATOM      1  C   UNL     1       2.962   2.416  19.255  0.00  0.00    +0.000 C 
ATOM      2  C   UNL     1       4.403   2.847  19.503  0.00  0.00    +0.000 C 
ATOM      3  C   UNL     1       4.778   4.056  18.643  0.00  0.00    +0.000 C 
ATOM      4  N   UNL     1       4.584   3.865  17.184  0.00  0.00    +0.000 NA
ATOM      5  C   UNL     1       3.241   3.304  16.890  0.00  0.00    +0.000 C 
ATOM      6  C   UNL     1       2.834   2.110  17.764  0.00  0.00    +0.000 C 
ENDROOT
BRANCH   1   8
ATOM      7  O   UNL     1       0.749   3.414  19.396  0.00  0.00    +0.000 OA
ATOM      8  C   UNL     1       1.931   3.454  19.720  0.00  0.00    +0.000 C 
ATOM      9  N   UNL     1       2.425   4.420  20.567  0.00  0.00    +0.000 N 
ATOM     10  H   UNL     1       3.392   4.394  20.859  0.00  0.00    +0.000 HD
BRANCH   9  11
ATOM     11  C   UNL     1       1.601   5.509  21.049  0.00  0.00    +0.000 C 
BRANCH  11  12
ATOM     12  C   UNL     1       1.751   6.742  20.195  0.00  0.00    +0.000 A 
ATOM     13  C   UNL     1       2.593   6.684  19.069  0.00  0.00    +0.000 A 
ATOM     14  C   UNL     1       2.786   7.804  18.255  0.00  0.00    +0.000 A 
ATOM     15  C   UNL     1       2.127   8.993  18.556  0.00  0.00    +0.000 A 
ATOM     16 CL   UNL     1       2.366  10.376  17.560  0.00  0.00    +0.000 Cl
ATOM     17  C   UNL     1       1.274   9.071  19.654  0.00  0.00    +0.000 A 
ATOM     18  C   UNL     1       1.082   7.948  20.466  0.00  0.00    +0.000 A 
ATOM     19 CL   UNL     1      -0.006   8.106  21.799  0.00  0.00    +0.000 Cl
ENDBRANCH  11  12
ENDBRANCH   9  11
ENDBRANCH   1   8
BRANCH   4  20
ATOM     20  P   UNL     1       4.898   5.335  16.291  0.00  0.00    +0.000 P 
BRANCH  20  21
ATOM     21  C   UNL     1       6.310   5.992  17.251  0.00  0.00    +0.000 A 
ATOM     22  C   UNL     1       7.038   5.238  18.176  0.00  0.00    +0.000 A 
ATOM     23  C   UNL     1       8.055   5.816  18.942  0.00  0.00    +0.000 A 
ATOM     24  C   UNL     1       8.355   7.167  18.797  0.00  0.00    +0.000 A 
ATOM     25  C   UNL     1       7.650   7.936  17.880  0.00  0.00    +0.000 A 
ATOM     26  C   UNL     1       6.637   7.355  17.108  0.00  0.00    +0.000 A 
ENDBRANCH  20  21
BRANCH  20  27
ATOM     27  C   UNL     1       5.686   4.717  14.763  0.00  0.00    +0.000 A 
ATOM     28  C   UNL     1       6.971   5.188  14.444  0.00  0.00    +0.000 A 
ATOM     29  C   UNL     1       7.614   4.806  13.262  0.00  0.00    +0.000 A 
ATOM     30  C   UNL     1       6.981   3.935  12.376  0.00  0.00    +0.000 A 
ATOM     31  C   UNL     1       5.713   3.451  12.678  0.00  0.00    +0.000 A 
ATOM     32  C   UNL     1       5.072   3.838  13.857  0.00  0.00    +0.000 A 
ENDBRANCH  20  27
ENDBRANCH   4  20
TORSDOF 6
ENDMDL
MODEL 3
REMARK VINA RESULT:      -8.2      1.506      4.030
REMARK  Name = 
REMARK  6 active torsions:
REMARK  status: ('A' for Active; 'I' for Inactive)
REMARK    1  A    between atoms: C_2  and  C_13
REMARK    2  A    between atoms: N_3  and  C_4
REMARK    3  A    between atoms: C_4  and  C_5
REMARK    4  A    between atoms: N_16  and  P_17
REMARK    5  A    between atoms: P_17  and  C_18
REMARK    6  A    between atoms: P_17  and  C_24
REMARK                            x       y       z     vdW  Elec       q    Type
REMARK                         _______ _______ _______ _____ _____    ______ ____
ROOT
ATOM      1  C   UNL     1       7.212   6.562  16.986  0.00  0.00    +0.000 C 
ATOM      2  C   UNL     1       5.902   7.260  16.642  0.00  0.00    +0.000 C 
ATOM      3  C   UNL     1       4.902   7.168  17.797  0.00  0.00    +0.000 C 
ATOM      4  N   UNL     1       4.599   5.787  18.248  0.00  0.00    +0.000 NA
ATOM      5  C   UNL     1       5.844   5.006  18.460  0.00  0.00    +0.000 C 
ATOM      6  C   UNL     1       6.873   5.111  17.326  0.00  0.00    +0.000 C 
ENDROOT
BRANCH   1   8
ATOM      7  O   UNL     1       8.339   6.670  19.138  0.00  0.00    +0.000 OA
ATOM      8  C   UNL     1       7.987   7.251  18.118  0.00  0.00    +0.000 C 
ATOM      9  N   UNL     1       8.295   8.572  17.886  0.00  0.00    +0.000 N 
ATOM     10  H   UNL     1       8.037   9.009  17.012  0.00  0.00    +0.000 HD
BRANCH   9  11
ATOM     11  C   UNL     1       8.968   9.387  18.877  0.00  0.00    +0.000 C 
BRANCH  11  12
ATOM     12  C   UNL     1       8.777  10.859  18.611  0.00  0.00    +0.000 A 
ATOM     13  C   UNL     1       7.979  11.249  17.521  0.00  0.00    +0.000 A 
ATOM     14  C   UNL     1       7.786  12.599  17.216  0.00  0.00    +0.000 A 
ATOM     15  C   UNL     1       8.386  13.575  18.009  0.00  0.00    +0.000 A 
ATOM     16 CL   UNL     1       8.157  15.238  17.634  0.00  0.00    +0.000 Cl
ATOM     17  C   UNL     1       9.166  13.214  19.105  0.00  0.00    +0.000 A 
ATOM     18  C   UNL     1       9.355  11.862  19.408  0.00  0.00    +0.000 A 
ATOM     19 CL   UNL     1      10.315  11.483  20.794  0.00  0.00    +0.000 Cl
ENDBRANCH  11  12
ENDBRANCH   9  11
ENDBRANCH   1   8
BRANCH   4  20
ATOM     20  P   UNL     1       3.565   5.779  19.657  0.00  0.00    +0.000 P 
BRANCH  20  21
ATOM     21  C   UNL     1       2.483   7.200  19.264  0.00  0.00    +0.000 A 
ATOM     22  C   UNL     1       2.313   7.714  17.975  0.00  0.00    +0.000 A 
ATOM     23  C   UNL     1       1.538   8.855  17.745  0.00  0.00    +0.000 A 
ATOM     24  C   UNL     1       0.925   9.507  18.810  0.00  0.00    +0.000 A 
ATOM     25  C   UNL     1       1.074   9.014  20.100  0.00  0.00    +0.000 A 
ATOM     26  C   UNL     1       1.843   7.866  20.328  0.00  0.00    +0.000 A 
ENDBRANCH  20  21
BRANCH  20  27
ATOM     27  C   UNL     1       2.482   4.337  19.354  0.00  0.00    +0.000 A 
ATOM     28  C   UNL     1       2.808   3.478  18.291  0.00  0.00    +0.000 A 
ATOM     29  C   UNL     1       1.995   2.388  17.961  0.00  0.00    +0.000 A 
ATOM     30  C   UNL     1       0.839   2.135  18.698  0.00  0.00    +0.000 A 
ATOM     31  C   UNL     1       0.504   2.969  19.759  0.00  0.00    +0.000 A 
ATOM     32  C   UNL     1       1.316   4.058  20.083  0.00  0.00    +0.000 A 
ENDBRANCH  20  27
ENDBRANCH   4  20
TORSDOF 6
ENDMDL
MODEL 4
REMARK VINA RESULT:      -8.0      3.451      7.159
REMARK  Name = 
REMARK  6 active torsions:
REMARK  status: ('A' for Active; 'I' for Inactive)
REMARK    1  A    between atoms: C_2  and  C_13
REMARK    2  A    between atoms: N_3  and  C_4
REMARK    3  A    between atoms: C_4  and  C_5
REMARK    4  A    between atoms: N_16  and  P_17
REMARK    5  A    between atoms: P_17  and  C_18
REMARK    6  A    between atoms: P_17  and  C_24
REMARK                            x       y       z     vdW  Elec       q    Type
REMARK                         _______ _______ _______ _____ _____    ______ ____
ROOT
ATOM      1  C   UNL     1       3.051   2.404  19.332  0.00  0.00    +0.000 C 
ATOM      2  C   UNL     1       4.466   2.914  19.578  0.00  0.00    +0.000 C 
ATOM      3  C   UNL     1       4.772   4.143  18.720  0.00  0.00    +0.000 C 
ATOM      4  N   UNL     1       4.587   3.945  17.261  0.00  0.00    +0.000 NA
ATOM      5  C   UNL     1       3.276   3.311  16.968  0.00  0.00    +0.000 C 
ATOM      6  C   UNL     1       2.937   2.095  17.840  0.00  0.00    +0.000 C 
ENDROOT
BRANCH   1   8
ATOM      7  O   UNL     1       0.770   3.211  19.585  0.00  0.00    +0.000 OA
ATOM      8  C   UNL     1       1.965   3.384  19.801  0.00  0.00    +0.000 C 
ATOM      9  N   UNL     1       2.429   4.460  20.521  0.00  0.00    +0.000 N 
ATOM     10  H   UNL     1       3.415   4.547  20.729  0.00  0.00    +0.000 HD
BRANCH   9  11
ATOM     11  C   UNL     1       1.546   5.510  20.985  0.00  0.00    +0.000 C 
BRANCH  11  12
ATOM     12  C   UNL     1       1.697   6.768  20.167  0.00  0.00    +0.000 A 
ATOM     13  C   UNL     1       2.517   6.734  19.024  0.00  0.00    +0.000 A 
ATOM     14  C   UNL     1       2.709   7.876  18.242  0.00  0.00    +0.000 A 
ATOM     15  C   UNL     1       2.073   9.064  18.593  0.00  0.00    +0.000 A 
ATOM     16 CL   UNL     1       2.312  10.475  17.637  0.00  0.00    +0.000 Cl
ATOM     17  C   UNL     1       1.242   9.118  19.709  0.00  0.00    +0.000 A 
ATOM     18  C   UNL     1       1.050   7.973  20.489  0.00  0.00    +0.000 A 
ATOM     19 CL   UNL     1      -0.010   8.103  21.847  0.00  0.00    +0.000 Cl
ENDBRANCH  11  12
ENDBRANCH   9  11
ENDBRANCH   1   8
BRANCH   4  20
ATOM     20  P   UNL     1       4.817   5.431  16.371  0.00  0.00    +0.000 P 
BRANCH  20  21
ATOM     21  C   UNL     1       6.173   6.176  17.346  0.00  0.00    +0.000 A 
ATOM     22  C   UNL     1       6.597   7.501  17.200  0.00  0.00    +0.000 A 
ATOM     23  C   UNL     1       7.694   7.993  17.914  0.00  0.00    +0.000 A 
ATOM     24  C   UNL     1       8.391   7.159  18.784  0.00  0.00    +0.000 A 
ATOM     25  C   UNL     1       7.986   5.842  18.950  0.00  0.00    +0.000 A 
ATOM     26  C   UNL     1       6.883   5.352  18.241  0.00  0.00    +0.000 A 
ENDBRANCH  20  21
BRANCH  20  27
ATOM     27  C   UNL     1       5.661   4.864  14.852  0.00  0.00    +0.000 A 
ATOM     28  C   UNL     1       4.963   4.004  13.988  0.00  0.00    +0.000 A 
ATOM     29  C   UNL     1       5.563   3.483  12.837  0.00  0.00    +0.000 A 
ATOM     30  C   UNL     1       6.879   3.820  12.526  0.00  0.00    +0.000 A 
ATOM     31  C   UNL     1       7.585   4.676  13.364  0.00  0.00    +0.000 A 
ATOM     32  C   UNL     1       6.983   5.192  14.514  0.00  0.00    +0.000 A 
ENDBRANCH  20  27
ENDBRANCH   4  20
TORSDOF 6
ENDMDL
MODEL 5
REMARK VINA RESULT:      -8.0      1.508      3.935
REMARK  Name = 
REMARK  6 active torsions:
REMARK  status: ('A' for Active; 'I' for Inactive)
REMARK    1  A    between atoms: C_2  and  C_13
REMARK    2  A    between atoms: N_3  and  C_4
REMARK    3  A    between atoms: C_4  and  C_5
REMARK    4  A    between atoms: N_16  and  P_17
REMARK    5  A    between atoms: P_17  and  C_18
REMARK    6  A    between atoms: P_17  and  C_24
REMARK                            x       y       z     vdW  Elec       q    Type
REMARK                         _______ _______ _______ _____ _____    ______ ____
ROOT
ATOM      1  C   UNL     1       7.219   6.685  16.926  0.00  0.00    +0.000 C 
ATOM      2  C   UNL     1       5.898   7.379  16.618  0.00  0.00    +0.000 C 
ATOM      3  C   UNL     1       4.913   7.242  17.781  0.00  0.00    +0.000 C 
ATOM      4  N   UNL     1       4.630   5.845  18.195  0.00  0.00    +0.000 NA
ATOM      5  C   UNL     1       5.887   5.072  18.369  0.00  0.00    +0.000 C 
ATOM      6  C   UNL     1       6.901   5.222  17.227  0.00  0.00    +0.000 C 
ENDROOT
BRANCH   1   8
ATOM      7  O   UNL     1       8.389   6.739  19.057  0.00  0.00    +0.000 OA
ATOM      8  C   UNL     1       8.000   7.350  18.068  0.00  0.00    +0.000 C 
ATOM      9  N   UNL     1       8.270   8.687  17.882  0.00  0.00    +0.000 N 
ATOM     10  H   UNL     1       7.984   9.150  17.031  0.00  0.00    +0.000 HD
BRANCH   9  11
ATOM     11  C   UNL     1       8.943   9.479  18.890  0.00  0.00    +0.000 C 
BRANCH  11  12
ATOM     12  C   UNL     1       8.791  10.957  18.632  0.00  0.00    +0.000 A 
ATOM     13  C   UNL     1       8.018  11.373  17.533  0.00  0.00    +0.000 A 
ATOM     14  C   UNL     1       7.861  12.729  17.234  0.00  0.00    +0.000 A 
ATOM     15  C   UNL     1       8.471  13.685  18.042  0.00  0.00    +0.000 A 
ATOM     16 CL   UNL     1       8.285  15.356  17.675  0.00  0.00    +0.000 Cl
ATOM     17  C   UNL     1       9.226  13.299  19.147  0.00  0.00    +0.000 A 
ATOM     18  C   UNL     1       9.379  11.941  19.444  0.00  0.00    +0.000 A 
ATOM     19 CL   UNL     1      10.310  11.532  20.841  0.00  0.00    +0.000 Cl
ENDBRANCH  11  12
ENDBRANCH   9  11
ENDBRANCH   1   8
BRANCH   4  20
ATOM     20  P   UNL     1       3.614   5.784  19.616  0.00  0.00    +0.000 P 
BRANCH  20  21
ATOM     21  C   UNL     1       2.569   7.256  19.320  0.00  0.00    +0.000 A 
ATOM     22  C   UNL     1       1.905   7.953  20.334  0.00  0.00    +0.000 A 
ATOM     23  C   UNL     1       1.052   9.022  20.040  0.00  0.00    +0.000 A 
ATOM     24  C   UNL     1       0.846   9.406  18.719  0.00  0.00    +0.000 A 
ATOM     25  C   UNL     1       1.498   8.733  17.694  0.00  0.00    +0.000 A 
ATOM     26  C   UNL     1       2.357   7.668  17.990  0.00  0.00    +0.000 A 
ENDBRANCH  20  21
BRANCH  20  27
ATOM     27  C   UNL     1       2.487   4.394  19.244  0.00  0.00    +0.000 A 
ATOM     28  C   UNL     1       1.429   4.143  20.135  0.00  0.00    +0.000 A 
ATOM     29  C   UNL     1       0.561   3.062  19.948  0.00  0.00    +0.000 A 
ATOM     30  C   UNL     1       0.733   2.212  18.857  0.00  0.00    +0.000 A 
ATOM     31  C   UNL     1       1.769   2.448  17.960  0.00  0.00    +0.000 A 
ATOM     32  C   UNL     1       2.636   3.526  18.152  0.00  0.00    +0.000 A 
ENDBRANCH  20  27
ENDBRANCH   4  20
TORSDOF 6
ENDMDL
MODEL 6
REMARK VINA RESULT:      -7.8      0.881      1.226
REMARK  Name = 
REMARK  6 active torsions:
REMARK  status: ('A' for Active; 'I' for Inactive)
REMARK    1  A    between atoms: C_2  and  C_13
REMARK    2  A    between atoms: N_3  and  C_4
REMARK    3  A    between atoms: C_4  and  C_5
REMARK    4  A    between atoms: N_16  and  P_17
REMARK    5  A    between atoms: P_17  and  C_18
REMARK    6  A    between atoms: P_17  and  C_24
REMARK                            x       y       z     vdW  Elec       q    Type
REMARK                         _______ _______ _______ _____ _____    ______ ____
ROOT
ATOM      1  C   UNL     1       7.848   5.984  18.443  0.00  0.00    +0.000 C 
ATOM      2  C   UNL     1       7.601   4.753  17.579  0.00  0.00    +0.000 C 
ATOM      3  C   UNL     1       6.167   4.727  17.045  0.00  0.00    +0.000 C 
ATOM      4  N   UNL     1       5.114   4.793  18.089  0.00  0.00    +0.000 NA
ATOM      5  C   UNL     1       5.382   5.890  19.054  0.00  0.00    +0.000 C 
ATOM      6  C   UNL     1       6.824   5.952  19.576  0.00  0.00    +0.000 C 
ENDROOT
BRANCH   1   8
ATOM      7  O   UNL     1       7.235   7.403  16.565  0.00  0.00    +0.000 OA
ATOM      8  C   UNL     1       7.790   7.300  17.653  0.00  0.00    +0.000 C 
ATOM      9  N   UNL     1       8.378   8.375  18.278  0.00  0.00    +0.000 N 
ATOM     10  H   UNL     1       8.780   8.271  19.200  0.00  0.00    +0.000 HD
BRANCH   9  11
ATOM     11  C   UNL     1       8.465   9.675  17.645  0.00  0.00    +0.000 C 
BRANCH  11  12
ATOM     12  C   UNL     1       8.867  10.747  18.626  0.00  0.00    +0.000 A 
ATOM     13  C   UNL     1       9.549  10.369  19.797  0.00  0.00    +0.000 A 
ATOM     14  C   UNL     1       9.926  11.319  20.750  0.00  0.00    +0.000 A 
ATOM     15  C   UNL     1       9.632  12.663  20.534  0.00  0.00    +0.000 A 
ATOM     16 CL   UNL     1      10.088  13.835  21.708  0.00  0.00    +0.000 Cl
ATOM     17  C   UNL     1       8.974  13.065  19.375  0.00  0.00    +0.000 A 
ATOM     18  C   UNL     1       8.599  12.112  18.422  0.00  0.00    +0.000 A 
ATOM     19 CL   UNL     1       7.806  12.681  16.996  0.00  0.00    +0.000 Cl
ENDBRANCH  11  12
ENDBRANCH   9  11
ENDBRANCH   1   8
BRANCH   4  20
ATOM     20  P   UNL     1       3.515   4.902  17.391  0.00  0.00    +0.000 P 
BRANCH  20  21
ATOM     21  C   UNL     1       2.678   3.559  18.307  0.00  0.00    +0.000 A 
ATOM     22  C   UNL     1       3.356   2.553  19.004  0.00  0.00    +0.000 A 
ATOM     23  C   UNL     1       2.666   1.504  19.618  0.00  0.00    +0.000 A 
ATOM     24  C   UNL     1       1.278   1.441  19.535  0.00  0.00    +0.000 A 
ATOM     25  C   UNL     1       0.581   2.430  18.854  0.00  0.00    +0.000 A 
ATOM     26  C   UNL     1       1.273   3.485  18.247  0.00  0.00    +0.000 A 
ENDBRANCH  20  21
BRANCH  20  27
ATOM     27  C   UNL     1       2.841   6.415  18.163  0.00  0.00    +0.000 A 
ATOM     28  C   UNL     1       2.805   7.591  17.395  0.00  0.00    +0.000 A 
ATOM     29  C   UNL     1       2.357   8.800  17.936  0.00  0.00    +0.000 A 
ATOM     30  C   UNL     1       1.928   8.852  19.261  0.00  0.00    +0.000 A 
ATOM     31  C   UNL     1       1.948   7.698  20.036  0.00  0.00    +0.000 A 
ATOM     32  C   UNL     1       2.400   6.493  19.493  0.00  0.00    +0.000 A 
ENDBRANCH  20  27
ENDBRANCH   4  20
TORSDOF 6
ENDMDL
MODEL 7
REMARK VINA RESULT:      -7.7      1.734      3.804
REMARK  Name = 
REMARK  6 active torsions:
REMARK  status: ('A' for Active; 'I' for Inactive)
REMARK    1  A    between atoms: C_2  and  C_13
REMARK    2  A    between atoms: N_3  and  C_4
REMARK    3  A    between atoms: C_4  and  C_5
REMARK    4  A    between atoms: N_16  and  P_17
REMARK    5  A    between atoms: P_17  and  C_18
REMARK    6  A    between atoms: P_17  and  C_24
REMARK                            x       y       z     vdW  Elec       q    Type
REMARK                         _______ _______ _______ _____ _____    ______ ____
ROOT
ATOM      1  C   UNL     1       7.426   6.940  17.056  0.00  0.00    +0.000 C 
ATOM      2  C   UNL     1       6.074   7.538  16.685  0.00  0.00    +0.000 C 
ATOM      3  C   UNL     1       5.046   7.324  17.799  0.00  0.00    +0.000 C 
ATOM      4  N   UNL     1       4.845   5.908  18.195  0.00  0.00    +0.000 NA
ATOM      5  C   UNL     1       6.144   5.227  18.428  0.00  0.00    +0.000 C 
ATOM      6  C   UNL     1       7.199   5.456  17.337  0.00  0.00    +0.000 C 
ENDROOT
BRANCH   1   8
ATOM      7  O   UNL     1       8.496   7.062  19.236  0.00  0.00    +0.000 OA
ATOM      8  C   UNL     1       8.100   7.652  18.237  0.00  0.00    +0.000 C 
ATOM      9  N   UNL     1       8.264   9.009  18.076  0.00  0.00    +0.000 N 
ATOM     10  H   UNL     1       7.976   9.459  17.218  0.00  0.00    +0.000 HD
BRANCH   9  11
ATOM     11  C   UNL     1       8.826   9.841  19.120  0.00  0.00    +0.000 C 
BRANCH  11  12
ATOM     12  C   UNL     1       9.669  10.955  18.552  0.00  0.00    +0.000 A 
ATOM     13  C   UNL     1      11.050  10.959  18.819  0.00  0.00    +0.000 A 
ATOM     14  C   UNL     1      11.874  11.978  18.335  0.00  0.00    +0.000 A 
ATOM     15  C   UNL     1      11.323  13.002  17.569  0.00  0.00    +0.000 A 
ATOM     16 CL   UNL     1      12.333  14.263  16.977  0.00  0.00    +0.000 Cl
ATOM     17  C   UNL     1       9.962  13.011  17.276  0.00  0.00    +0.000 A 
ATOM     18  C   UNL     1       9.140  11.988  17.760  0.00  0.00    +0.000 A 
ATOM     19 CL   UNL     1       7.464  12.048  17.340  0.00  0.00    +0.000 Cl
ENDBRANCH  11  12
ENDBRANCH   9  11
ENDBRANCH   1   8
BRANCH   4  20
ATOM     20  P   UNL     1       3.767   5.765  19.563  0.00  0.00    +0.000 P 
BRANCH  20  21
ATOM     21  C   UNL     1       2.684   7.208  19.264  0.00  0.00    +0.000 A 
ATOM     22  C   UNL     1       1.972   7.867  20.271  0.00  0.00    +0.000 A 
ATOM     23  C   UNL     1       1.094   8.914  19.973  0.00  0.00    +0.000 A 
ATOM     24  C   UNL     1       0.909   9.313  18.652  0.00  0.00    +0.000 A 
ATOM     25  C   UNL     1       1.608   8.678  17.635  0.00  0.00    +0.000 A 
ATOM     26  C   UNL     1       2.493   7.636  17.935  0.00  0.00    +0.000 A 
ENDBRANCH  20  21
BRANCH  20  27
ATOM     27  C   UNL     1       2.710   4.349  19.096  0.00  0.00    +0.000 A 
ATOM     28  C   UNL     1       1.549   4.112  19.853  0.00  0.00    +0.000 A 
ATOM     29  C   UNL     1       0.722   3.015  19.592  0.00  0.00    +0.000 A 
ATOM     30  C   UNL     1       1.041   2.133  18.561  0.00  0.00    +0.000 A 
ATOM     31  C   UNL     1       2.180   2.355  17.795  0.00  0.00    +0.000 A 
ATOM     32  C   UNL     1       3.006   3.450  18.061  0.00  0.00    +0.000 A 
ENDBRANCH  20  27
ENDBRANCH   4  20
TORSDOF 6
ENDMDL
MODEL 8
REMARK VINA RESULT:      -7.6      7.850     10.762
REMARK  Name = 
REMARK  6 active torsions:
REMARK  status: ('A' for Active; 'I' for Inactive)
REMARK    1  A    between atoms: C_2  and  C_13
REMARK    2  A    between atoms: N_3  and  C_4
REMARK    3  A    between atoms: C_4  and  C_5
REMARK    4  A    between atoms: N_16  and  P_17
REMARK    5  A    between atoms: P_17  and  C_18
REMARK    6  A    between atoms: P_17  and  C_24
REMARK                            x       y       z     vdW  Elec       q    Type
REMARK                         _______ _______ _______ _____ _____    ______ ____
ROOT
ATOM      1  C   UNL     1       1.076  14.735  19.806  0.00  0.00    +0.000 C 
ATOM      2  C   UNL     1       0.069  14.567  18.674  0.00  0.00    +0.000 C 
ATOM      3  C   UNL     1      -0.510  13.150  18.651  0.00  0.00    +0.000 C 
ATOM      4  N   UNL     1       0.500  12.067  18.552  0.00  0.00    +0.000 NA
ATOM      5  C   UNL     1       1.593  12.261  19.540  0.00  0.00    +0.000 C 
ATOM      6  C   UNL     1       2.165  13.683  19.600  0.00  0.00    +0.000 C 
ENDROOT
BRANCH   1   8
ATOM      7  O   UNL     1       0.999  14.108  22.154  0.00  0.00    +0.000 OA
ATOM      8  C   UNL     1       0.442  14.640  21.201  0.00  0.00    +0.000 C 
ATOM      9  N   UNL     1      -0.792  15.237  21.316  0.00  0.00    +0.000 N 
ATOM     10  H   UNL     1      -1.202  15.716  20.526  0.00  0.00    +0.000 HD
BRANCH   9  11
ATOM     11  C   UNL     1      -1.556  15.186  22.545  0.00  0.00    +0.000 C 
BRANCH  11  12
ATOM     12  C   UNL     1      -2.927  14.596  22.326  0.00  0.00    +0.000 A 
ATOM     13  C   UNL     1      -3.417  14.500  21.012  0.00  0.00    +0.000 A 
ATOM     14  C   UNL     1      -4.689  13.981  20.753  0.00  0.00    +0.000 A 
ATOM     15  C   UNL     1      -5.480  13.543  21.812  0.00  0.00    +0.000 A 
ATOM     16 CL   UNL     1      -7.049  12.910  21.499  0.00  0.00    +0.000 Cl
ATOM     17  C   UNL     1      -5.010  13.611  23.121  0.00  0.00    +0.000 A 
ATOM     18  C   UNL     1      -3.736  14.129  23.376  0.00  0.00    +0.000 A 
ATOM     19 CL   UNL     1      -3.205  14.163  25.020  0.00  0.00    +0.000 Cl
ENDBRANCH  11  12
ENDBRANCH   9  11
ENDBRANCH   1   8
BRANCH   4  20
ATOM     20  P   UNL     1      -0.232  10.485  18.676  0.00  0.00    +0.000 P 
BRANCH  20  21
ATOM     21  C   UNL     1      -0.558  10.428  20.475  0.00  0.00    +0.000 A 
ATOM     22  C   UNL     1      -1.136  11.479  21.193  0.00  0.00    +0.000 A 
ATOM     23  C   UNL     1      -1.286  11.413  22.582  0.00  0.00    +0.000 A 
ATOM     24  C   UNL     1      -0.849  10.288  23.277  0.00  0.00    +0.000 A 
ATOM     25  C   UNL     1      -0.277   9.229  22.586  0.00  0.00    +0.000 A 
ATOM     26  C   UNL     1      -0.135   9.293  21.194  0.00  0.00    +0.000 A 
ENDBRANCH  20  21
BRANCH  20  27
ATOM     27  C   UNL     1      -1.893  10.753  17.962  0.00  0.00    +0.000 A 
ATOM     28  C   UNL     1      -2.108  10.371  16.626  0.00  0.00    +0.000 A 
ATOM     29  C   UNL     1      -3.334  10.598  15.993  0.00  0.00    +0.000 A 
ATOM     30  C   UNL     1      -4.375  11.207  16.692  0.00  0.00    +0.000 A 
ATOM     31  C   UNL     1      -4.185  11.585  18.016  0.00  0.00    +0.000 A 
ATOM     32  C   UNL     1      -2.957  11.360  18.644  0.00  0.00    +0.000 A 
ENDBRANCH  20  27
ENDBRANCH   4  20
TORSDOF 6
ENDMDL
MODEL 9
REMARK VINA RESULT:      -7.2      5.385      9.055
REMARK  Name = 
REMARK  6 active torsions:
REMARK  status: ('A' for Active; 'I' for Inactive)
REMARK    1  A    between atoms: C_2  and  C_13
REMARK    2  A    between atoms: N_3  and  C_4
REMARK    3  A    between atoms: C_4  and  C_5
REMARK    4  A    between atoms: N_16  and  P_17
REMARK    5  A    between atoms: P_17  and  C_18
REMARK    6  A    between atoms: P_17  and  C_24
REMARK                            x       y       z     vdW  Elec       q    Type
REMARK                         _______ _______ _______ _____ _____    ______ ____
ROOT
ATOM      1  C   UNL     1       0.953  10.281  19.197  0.00  0.00    +0.000 C 
ATOM      2  C   UNL     1       2.301  10.299  18.487  0.00  0.00    +0.000 C 
ATOM      3  C   UNL     1       2.604   8.948  17.834  0.00  0.00    +0.000 C 
ATOM      4  N   UNL     1       2.571   7.789  18.760  0.00  0.00    +0.000 NA
ATOM      5  C   UNL     1       1.339   7.799  19.590  0.00  0.00    +0.000 C 
ATOM      6  C   UNL     1       1.001   9.154  20.227  0.00  0.00    +0.000 C 
ENDROOT
BRANCH   1   8
ATOM      7  O   UNL     1      -0.482   9.092  17.634  0.00  0.00    +0.000 OA
ATOM      8  C   UNL     1      -0.236  10.131  18.237  0.00  0.00    +0.000 C 
ATOM      9  N   UNL     1      -1.036  11.245  18.129  0.00  0.00    +0.000 N 
ATOM     10  H   UNL     1      -0.838  12.069  18.680  0.00  0.00    +0.000 HD
BRANCH   9  11
ATOM     11  C   UNL     1      -2.162  11.294  17.220  0.00  0.00    +0.000 C 
BRANCH  11  12
ATOM     12  C   UNL     1      -3.467  11.466  17.957  0.00  0.00    +0.000 A 
ATOM     13  C   UNL     1      -4.629  10.891  17.413  0.00  0.00    +0.000 A 
ATOM     14  C   UNL     1      -5.868  11.038  18.043  0.00  0.00    +0.000 A 
ATOM     15  C   UNL     1      -5.953  11.757  19.233  0.00  0.00    +0.000 A 
ATOM     16 CL   UNL     1      -7.477  11.946  20.009  0.00  0.00    +0.000 Cl
ATOM     17  C   UNL     1      -4.813  12.320  19.801  0.00  0.00    +0.000 A 
ATOM     18  C   UNL     1      -3.574  12.170  19.169  0.00  0.00    +0.000 A 
ATOM     19 CL   UNL     1      -2.197  12.875  19.939  0.00  0.00    +0.000 Cl
ENDBRANCH  11  12
ENDBRANCH   9  11
ENDBRANCH   1   8
BRANCH   4  20
ATOM     20  P   UNL     1       2.785   6.276  17.912  0.00  0.00    +0.000 P 
BRANCH  20  21
ATOM     21  C   UNL     1       4.607   6.132  17.977  0.00  0.00    +0.000 A 
ATOM     22  C   UNL     1       5.297   5.460  18.991  0.00  0.00    +0.000 A 
ATOM     23  C   UNL     1       6.695   5.453  19.034  0.00  0.00    +0.000 A 
ATOM     24  C   UNL     1       7.426   6.130  18.062  0.00  0.00    +0.000 A 
ATOM     25  C   UNL     1       6.764   6.799  17.041  0.00  0.00    +0.000 A 
ATOM     26  C   UNL     1       5.365   6.799  16.994  0.00  0.00    +0.000 A 
ENDBRANCH  20  21
BRANCH  20  27
ATOM     27  C   UNL     1       2.227   5.043  19.141  0.00  0.00    +0.000 A 
ATOM     28  C   UNL     1       1.375   4.014  18.706  0.00  0.00    +0.000 A 
ATOM     29  C   UNL     1       0.861   3.068  19.599  0.00  0.00    +0.000 A 
ATOM     30  C   UNL     1       1.198   3.133  20.950  0.00  0.00    +0.000 A 
ATOM     31  C   UNL     1       2.046   4.138  21.399  0.00  0.00    +0.000 A 
ATOM     32  C   UNL     1       2.555   5.083  20.504  0.00  0.00    +0.000 A 
ENDBRANCH  20  27
ENDBRANCH   4  20
TORSDOF 6
ENDMDL
