MODEL 1
REMARK VINA RESULT:      -8.2      0.000      0.000
REMARK  Name = 
REMARK  7 active torsions:
REMARK  status: ('A' for Active; 'I' for Inactive)
REMARK    1  A    between atoms: C_1  and  C_2
REMARK    2  A    between atoms: C_2  and  C_3
REMARK    3  A    between atoms: C_5  and  C_6
REMARK    4  A    between atoms: C_13  and  S_14
REMARK    5  A    between atoms: S_14  and  C_17
REMARK    6  A    between atoms: C_20  and  C_21
REMARK    7  A    between atoms: C_21  and  N_22
REMARK                            x       y       z     vdW  Elec       q    Type
REMARK                         _______ _______ _______ _____ _____    ______ ____
ROOT
ATOM      1  C   UNL     1       6.849   4.975  18.231  0.00  0.00    +0.000 A 
ATOM      2  C   UNL     1       7.151   4.805  16.869  0.00  0.00    +0.000 A 
ATOM      3  C   UNL     1       6.216   4.276  15.960  0.00  0.00    +0.000 A 
ATOM      4  C   UNL     1       4.986   3.844  16.482  0.00  0.00    +0.000 A 
ATOM      5  C   UNL     1       4.681   4.003  17.838  0.00  0.00    +0.000 A 
ATOM      6  C   UNL     1       5.604   4.568  18.716  0.00  0.00    +0.000 A 
ENDROOT
BRANCH   3   7
ATOM      7  C   UNL     1       6.459   4.327  14.500  0.00  0.00    +0.000 A 
ATOM      8  C   UNL     1       5.788   3.485  13.596  0.00  0.00    +0.000 A 
ATOM      9  C   UNL     1       6.131   3.451  12.240  0.00  0.00    +0.000 A 
ATOM     10  C   UNL     1       7.137   4.279  11.754  0.00  0.00    +0.000 A 
ATOM     11  C   UNL     1       7.796   5.147  12.615  0.00  0.00    +0.000 A 
ATOM     12  C   UNL     1       7.461   5.164  13.972  0.00  0.00    +0.000 A 
ENDBRANCH   3   7
BRANCH   5  13
ATOM     13  S   UNL     1       3.022   3.689  18.386  0.00  0.00    +0.000 S 
ATOM     14  O   UNL     1       2.178   3.573  17.206  0.00  0.00    +0.000 OA
ATOM     15  O   UNL     1       3.050   2.644  19.391  0.00  0.00    +0.000 OA
BRANCH  13  16
ATOM     16  C   UNL     1       2.452   5.147  19.213  0.00  0.00    +0.000 A 
ATOM     17  C   UNL     1       1.943   5.337  20.480  0.00  0.00    +0.000 A 
ATOM     18  C   UNL     1       1.590   6.694  20.718  0.00  0.00    +0.000 A 
ATOM     19  C   UNL     1       1.857   7.506  19.633  0.00  0.00    +0.000 A 
ATOM     20  S   UNL     1       2.536   6.613  18.337  0.00  0.00    +0.000 S 
BRANCH  19  21
ATOM     21  C   UNL     1       1.642   8.983  19.509  0.00  0.00    +0.000 C 
BRANCH  21  22
ATOM     22  N   UNL     1       0.545   9.409  20.372  0.00  0.00    +0.000 NA
ATOM     23  H   UNL     1       0.515   8.799  21.188  0.00  0.00    +0.000 HD
ATOM     24  H   UNL     1      -0.335   9.269  19.880  0.00  0.00    +0.000 HD
ENDBRANCH  21  22
ENDBRANCH  19  21
ENDBRANCH  13  16
ENDBRANCH   5  13
BRANCH   1  26
ATOM     25  C   UNL     1       8.059   7.129  18.465  0.00  0.00    +0.000 C 
ATOM     26  C   UNL     1       7.793   5.771  19.103  0.00  0.00    +0.000 C 
ENDBRANCH   1  26
TORSDOF 6
ENDMDL
MODEL 2
REMARK VINA RESULT:      -8.1      0.714      1.212
REMARK  Name = 
REMARK  7 active torsions:
REMARK  status: ('A' for Active; 'I' for Inactive)
REMARK    1  A    between atoms: C_1  and  C_2
REMARK    2  A    between atoms: C_2  and  C_3
REMARK    3  A    between atoms: C_5  and  C_6
REMARK    4  A    between atoms: C_13  and  S_14
REMARK    5  A    between atoms: S_14  and  C_17
REMARK    6  A    between atoms: C_20  and  C_21
REMARK    7  A    between atoms: C_21  and  N_22
REMARK                            x       y       z     vdW  Elec       q    Type
REMARK                         _______ _______ _______ _____ _____    ______ ____
ROOT
ATOM      1  C   UNL     1       6.919   5.101  18.274  0.00  0.00    +0.000 A 
ATOM      2  C   UNL     1       7.245   4.829  16.935  0.00  0.00    +0.000 A 
ATOM      3  C   UNL     1       6.309   4.287  16.035  0.00  0.00    +0.000 A 
ATOM      4  C   UNL     1       5.046   3.949  16.548  0.00  0.00    +0.000 A 
ATOM      5  C   UNL     1       4.715   4.209  17.883  0.00  0.00    +0.000 A 
ATOM      6  C   UNL     1       5.643   4.785  18.749  0.00  0.00    +0.000 A 
ENDROOT
BRANCH   3   7
ATOM      7  C   UNL     1       6.590   4.234  14.581  0.00  0.00    +0.000 A 
ATOM      8  C   UNL     1       7.556   5.054  13.972  0.00  0.00    +0.000 A 
ATOM      9  C   UNL     1       7.709   5.089  12.582  0.00  0.00    +0.000 A 
ATOM     10  C   UNL     1       6.916   4.284  11.772  0.00  0.00    +0.000 A 
ATOM     11  C   UNL     1       5.976   3.438  12.346  0.00  0.00    +0.000 A 
ATOM     12  C   UNL     1       5.815   3.419  13.733  0.00  0.00    +0.000 A 
ENDBRANCH   3   7
BRANCH   5  13
ATOM     13  S   UNL     1       3.030   4.011  18.402  0.00  0.00    +0.000 S 
ATOM     14  O   UNL     1       2.216   3.816  17.211  0.00  0.00    +0.000 OA
ATOM     15  O   UNL     1       2.986   3.064  19.500  0.00  0.00    +0.000 OA
BRANCH  13  16
ATOM     16  C   UNL     1       2.495   5.560  19.071  0.00  0.00    +0.000 A 
ATOM     17  C   UNL     1       2.002   5.895  20.314  0.00  0.00    +0.000 A 
ATOM     18  C   UNL     1       1.677   7.276  20.407  0.00  0.00    +0.000 A 
ATOM     19  C   UNL     1       1.949   7.962  19.239  0.00  0.00    +0.000 A 
ATOM     20  S   UNL     1       2.598   6.921  18.043  0.00  0.00    +0.000 S 
BRANCH  19  21
ATOM     21  C   UNL     1       1.760   9.420  18.958  0.00  0.00    +0.000 C 
BRANCH  21  22
ATOM     22  N   UNL     1       1.663   9.651  17.520  0.00  0.00    +0.000 NA
ATOM     23  H   UNL     1       2.514   9.307  17.076  0.00  0.00    +0.000 HD
ATOM     24  H   UNL     1       1.638  10.654  17.348  0.00  0.00    +0.000 HD
ENDBRANCH  21  22
ENDBRANCH  19  21
ENDBRANCH  13  16
ENDBRANCH   5  13
BRANCH   1  26
ATOM     25  C   UNL     1       8.143   7.251  18.456  0.00  0.00    +0.000 C 
ATOM     26  C   UNL     1       7.878   5.905  19.120  0.00  0.00    +0.000 C 
ENDBRANCH   1  26
TORSDOF 6
ENDMDL
MODEL 3
REMARK VINA RESULT:      -8.1      3.660      7.408
REMARK  Name = 
REMARK  7 active torsions:
REMARK  status: ('A' for Active; 'I' for Inactive)
REMARK    1  A    between atoms: C_1  and  C_2
REMARK    2  A    between atoms: C_2  and  C_3
REMARK    3  A    between atoms: C_5  and  C_6
REMARK    4  A    between atoms: C_13  and  S_14
REMARK    5  A    between atoms: S_14  and  C_17
REMARK    6  A    between atoms: C_20  and  C_21
REMARK    7  A    between atoms: C_21  and  N_22
REMARK                            x       y       z     vdW  Elec       q    Type
REMARK                         _______ _______ _______ _____ _____    ______ ____
ROOT
ATOM      1  C   UNL     1       3.642   3.599  17.946  0.00  0.00    +0.000 A 
ATOM      2  C   UNL     1       2.940   4.736  18.379  0.00  0.00    +0.000 A 
ATOM      3  C   UNL     1       3.500   6.026  18.316  0.00  0.00    +0.000 A 
ATOM      4  C   UNL     1       4.830   6.128  17.876  0.00  0.00    +0.000 A 
ATOM      5  C   UNL     1       5.539   4.999  17.450  0.00  0.00    +0.000 A 
ATOM      6  C   UNL     1       4.952   3.735  17.480  0.00  0.00    +0.000 A 
ENDROOT
BRANCH   3   7
ATOM      7  C   UNL     1       2.669   7.230  18.546  0.00  0.00    +0.000 A 
ATOM      8  C   UNL     1       2.522   8.238  17.576  0.00  0.00    +0.000 A 
ATOM      9  C   UNL     1       1.849   9.431  17.863  0.00  0.00    +0.000 A 
ATOM     10  C   UNL     1       1.286   9.630  19.119  0.00  0.00    +0.000 A 
ATOM     11  C   UNL     1       1.385   8.640  20.087  0.00  0.00    +0.000 A 
ATOM     12  C   UNL     1       2.073   7.458  19.802  0.00  0.00    +0.000 A 
ENDBRANCH   3   7
BRANCH   5  13
ATOM     13  S   UNL     1       7.109   5.223  16.655  0.00  0.00    +0.000 S 
ATOM     14  O   UNL     1       7.402   6.649  16.640  0.00  0.00    +0.000 OA
ATOM     15  O   UNL     1       8.054   4.272  17.209  0.00  0.00    +0.000 OA
BRANCH  13  16
ATOM     16  C   UNL     1       6.911   4.780  14.953  0.00  0.00    +0.000 A 
ATOM     17  C   UNL     1       7.628   5.132  13.829  0.00  0.00    +0.000 A 
ATOM     18  C   UNL     1       7.094   4.548  12.647  0.00  0.00    +0.000 A 
ATOM     19  C   UNL     1       5.995   3.750  12.904  0.00  0.00    +0.000 A 
ATOM     20  S   UNL     1       5.626   3.718  14.577  0.00  0.00    +0.000 S 
BRANCH  19  21
ATOM     21  C   UNL     1       5.179   2.960  11.929  0.00  0.00    +0.000 C 
BRANCH  21  22
ATOM     22  N   UNL     1       5.869   1.724  11.575  0.00  0.00    +0.000 NA
ATOM     23  H   UNL     1       6.643   1.585  12.223  0.00  0.00    +0.000 HD
ATOM     24  H   UNL     1       6.285   1.830  10.652  0.00  0.00    +0.000 HD
ENDBRANCH  21  22
ENDBRANCH  19  21
ENDBRANCH  13  16
ENDBRANCH   5  13
BRANCH   1  26
ATOM     25  C   UNL     1       1.524   2.402  18.434  0.00  0.00    +0.000 C 
ATOM     26  C   UNL     1       2.907   2.286  17.806  0.00  0.00    +0.000 C 
ENDBRANCH   1  26
TORSDOF 6
ENDMDL
MODEL 4
REMARK VINA RESULT:      -8.1      0.636      1.187
REMARK  Name = 
REMARK  7 active torsions:
REMARK  status: ('A' for Active; 'I' for Inactive)
REMARK    1  A    between atoms: C_1  and  C_2
REMARK    2  A    between atoms: C_2  and  C_3
REMARK    3  A    between atoms: C_5  and  C_6
REMARK    4  A    between atoms: C_13  and  S_14
REMARK    5  A    between atoms: S_14  and  C_17
REMARK    6  A    between atoms: C_20  and  C_21
REMARK    7  A    between atoms: C_21  and  N_22
REMARK                            x       y       z     vdW  Elec       q    Type
REMARK                         _______ _______ _______ _____ _____    ______ ____
ROOT
ATOM      1  C   UNL     1       6.803   4.902  18.147  0.00  0.00    +0.000 A 
ATOM      2  C   UNL     1       7.207   4.763  16.808  0.00  0.00    +0.000 A 
ATOM      3  C   UNL     1       6.382   4.161  15.841  0.00  0.00    +0.000 A 
ATOM      4  C   UNL     1       5.160   3.625  16.281  0.00  0.00    +0.000 A 
ATOM      5  C   UNL     1       4.754   3.753  17.614  0.00  0.00    +0.000 A 
ATOM      6  C   UNL     1       5.567   4.389  18.550  0.00  0.00    +0.000 A 
ENDROOT
BRANCH   3   7
ATOM      7  C   UNL     1       6.715   4.239  14.399  0.00  0.00    +0.000 A 
ATOM      8  C   UNL     1       7.634   5.174  13.890  0.00  0.00    +0.000 A 
ATOM      9  C   UNL     1       7.830   5.325  12.513  0.00  0.00    +0.000 A 
ATOM     10  C   UNL     1       7.129   4.527  11.616  0.00  0.00    +0.000 A 
ATOM     11  C   UNL     1       6.239   3.572  12.089  0.00  0.00    +0.000 A 
ATOM     12  C   UNL     1       6.034   3.436  13.464  0.00  0.00    +0.000 A 
ENDBRANCH   3   7
BRANCH   5  13
ATOM     13  S   UNL     1       3.096   3.299  18.051  0.00  0.00    +0.000 S 
ATOM     14  O   UNL     1       2.267   3.438  16.862  0.00  0.00    +0.000 OA
ATOM     15  O   UNL     1       3.131   2.055  18.796  0.00  0.00    +0.000 OA
BRANCH  13  16
ATOM     16  C   UNL     1       2.489   4.524  19.176  0.00  0.00    +0.000 A 
ATOM     17  C   UNL     1       1.918   4.413  20.426  0.00  0.00    +0.000 A 
ATOM     18  C   UNL     1       1.558   5.678  20.966  0.00  0.00    +0.000 A 
ATOM     19  C   UNL     1       1.882   6.723  20.121  0.00  0.00    +0.000 A 
ATOM     20  S   UNL     1       2.622   6.156  18.684  0.00  0.00    +0.000 S 
BRANCH  19  21
ATOM     21  C   UNL     1       1.678   8.189  20.346  0.00  0.00    +0.000 C 
BRANCH  21  22
ATOM     22  N   UNL     1       1.592   8.476  21.774  0.00  0.00    +0.000 NA
ATOM     23  H   UNL     1       2.084   7.744  22.284  0.00  0.00    +0.000 HD
ATOM     24  H   UNL     1       0.618   8.421  22.064  0.00  0.00    +0.000 HD
ENDBRANCH  21  22
ENDBRANCH  19  21
ENDBRANCH  13  16
ENDBRANCH   5  13
BRANCH   1  26
ATOM     25  C   UNL     1       7.990   7.070  18.373  0.00  0.00    +0.000 C 
ATOM     26  C   UNL     1       7.617   5.771  19.078  0.00  0.00    +0.000 C 
ENDBRANCH   1  26
TORSDOF 6
ENDMDL
MODEL 5
REMARK VINA RESULT:      -8.1      3.778      7.450
REMARK  Name = 
REMARK  7 active torsions:
REMARK  status: ('A' for Active; 'I' for Inactive)
REMARK    1  A    between atoms: C_1  and  C_2
REMARK    2  A    between atoms: C_2  and  C_3
REMARK    3  A    between atoms: C_5  and  C_6
REMARK    4  A    between atoms: C_13  and  S_14
REMARK    5  A    between atoms: S_14  and  C_17
REMARK    6  A    between atoms: C_20  and  C_21
REMARK    7  A    between atoms: C_21  and  N_22
REMARK                            x       y       z     vdW  Elec       q    Type
REMARK                         _______ _______ _______ _____ _____    ______ ____
ROOT
ATOM      1  C   UNL     1       3.410   7.490  17.499  0.00  0.00    +0.000 A 
ATOM      2  C   UNL     1       2.690   6.516  18.211  0.00  0.00    +0.000 A 
ATOM      3  C   UNL     1       3.205   5.226  18.437  0.00  0.00    +0.000 A 
ATOM      4  C   UNL     1       4.443   4.917  17.852  0.00  0.00    +0.000 A 
ATOM      5  C   UNL     1       5.164   5.878  17.135  0.00  0.00    +0.000 A 
ATOM      6  C   UNL     1       4.656   7.164  16.956  0.00  0.00    +0.000 A 
ENDROOT
BRANCH   3   7
ATOM      7  C   UNL     1       2.547   4.299  19.387  0.00  0.00    +0.000 A 
ATOM      8  C   UNL     1       2.560   4.513  20.777  0.00  0.00    +0.000 A 
ATOM      9  C   UNL     1       2.056   3.556  21.665  0.00  0.00    +0.000 A 
ATOM     10  C   UNL     1       1.505   2.375  21.180  0.00  0.00    +0.000 A 
ATOM     11  C   UNL     1       1.448   2.149  19.811  0.00  0.00    +0.000 A 
ATOM     12  C   UNL     1       1.968   3.100  18.929  0.00  0.00    +0.000 A 
ENDBRANCH   3   7
BRANCH   5  13
ATOM     13  S   UNL     1       6.832   5.515  16.651  0.00  0.00    +0.000 S 
ATOM     14  O   UNL     1       7.562   6.773  16.588  0.00  0.00    +0.000 OA
ATOM     15  O   UNL     1       7.320   4.407  17.451  0.00  0.00    +0.000 OA
BRANCH  13  16
ATOM     16  C   UNL     1       6.786   4.930  14.982  0.00  0.00    +0.000 A 
ATOM     17  C   UNL     1       7.608   5.180  13.904  0.00  0.00    +0.000 A 
ATOM     18  C   UNL     1       7.177   4.501  12.731  0.00  0.00    +0.000 A 
ATOM     19  C   UNL     1       6.048   3.735  12.951  0.00  0.00    +0.000 A 
ATOM     20  S   UNL     1       5.526   3.847  14.579  0.00  0.00    +0.000 S 
BRANCH  19  21
ATOM     21  C   UNL     1       5.315   2.870  11.973  0.00  0.00    +0.000 C 
BRANCH  21  22
ATOM     22  N   UNL     1       6.140   1.729  11.587  0.00  0.00    +0.000 NA
ATOM     23  H   UNL     1       6.288   1.141  12.407  0.00  0.00    +0.000 HD
ATOM     24  H   UNL     1       7.059   2.066  11.308  0.00  0.00    +0.000 HD
ENDBRANCH  21  22
ENDBRANCH  19  21
ENDBRANCH  13  16
ENDBRANCH   5  13
BRANCH   1  26
ATOM     25  C   UNL     1       1.499   8.975  18.046  0.00  0.00    +0.000 C 
ATOM     26  C   UNL     1       2.921   8.919  17.501  0.00  0.00    +0.000 C 
ENDBRANCH   1  26
TORSDOF 6
ENDMDL
MODEL 6
REMARK VINA RESULT:      -8.0      0.810      1.432
REMARK  Name = 
REMARK  7 active torsions:
REMARK  status: ('A' for Active; 'I' for Inactive)
REMARK    1  A    between atoms: C_1  and  C_2
REMARK    2  A    between atoms: C_2  and  C_3
REMARK    3  A    between atoms: C_5  and  C_6
REMARK    4  A    between atoms: C_13  and  S_14
REMARK    5  A    between atoms: S_14  and  C_17
REMARK    6  A    between atoms: C_20  and  C_21
REMARK    7  A    between atoms: C_21  and  N_22
REMARK                            x       y       z     vdW  Elec       q    Type
REMARK                         _______ _______ _______ _____ _____    ______ ____
ROOT
ATOM      1  C   UNL     1       6.912   5.057  18.213  0.00  0.00    +0.000 A 
ATOM      2  C   UNL     1       7.232   4.767  16.876  0.00  0.00    +0.000 A 
ATOM      3  C   UNL     1       6.270   4.291  15.966  0.00  0.00    +0.000 A 
ATOM      4  C   UNL     1       4.983   4.036  16.467  0.00  0.00    +0.000 A 
ATOM      5  C   UNL     1       4.658   4.315  17.799  0.00  0.00    +0.000 A 
ATOM      6  C   UNL     1       5.614   4.826  18.675  0.00  0.00    +0.000 A 
ENDROOT
BRANCH   3   7
ATOM      7  C   UNL     1       6.561   4.222  14.515  0.00  0.00    +0.000 A 
ATOM      8  C   UNL     1       7.513   5.054  13.899  0.00  0.00    +0.000 A 
ATOM      9  C   UNL     1       7.673   5.071  12.509  0.00  0.00    +0.000 A 
ATOM     10  C   UNL     1       6.901   4.239  11.707  0.00  0.00    +0.000 A 
ATOM     11  C   UNL     1       5.975   3.382  12.288  0.00  0.00    +0.000 A 
ATOM     12  C   UNL     1       5.807   3.380  13.675  0.00  0.00    +0.000 A 
ENDBRANCH   3   7
BRANCH   5  13
ATOM     13  S   UNL     1       2.959   4.228  18.303  0.00  0.00    +0.000 S 
ATOM     14  O   UNL     1       2.155   3.972  17.116  0.00  0.00    +0.000 OA
ATOM     15  O   UNL     1       2.859   3.374  19.471  0.00  0.00    +0.000 OA
BRANCH  13  16
ATOM     16  C   UNL     1       2.480   5.846  18.838  0.00  0.00    +0.000 A 
ATOM     17  C   UNL     1       2.454   7.055  18.177  0.00  0.00    +0.000 A 
ATOM     18  C   UNL     1       2.009   8.115  19.014  0.00  0.00    +0.000 A 
ATOM     19  C   UNL     1       1.688   7.682  20.286  0.00  0.00    +0.000 A 
ATOM     20  S   UNL     1       1.930   5.994  20.449  0.00  0.00    +0.000 S 
BRANCH  19  21
ATOM     21  C   UNL     1       1.172   8.492  21.435  0.00  0.00    +0.000 C 
BRANCH  21  22
ATOM     22  N   UNL     1       0.728   9.803  20.972  0.00  0.00    +0.000 NA
ATOM     23  H   UNL     1      -0.261   9.909  21.191  0.00  0.00    +0.000 HD
ATOM     24  H   UNL     1       0.801   9.837  19.957  0.00  0.00    +0.000 HD
ENDBRANCH  21  22
ENDBRANCH  19  21
ENDBRANCH  13  16
ENDBRANCH   5  13
BRANCH   1  26
ATOM     25  C   UNL     1       8.135   7.195  18.513  0.00  0.00    +0.000 C 
ATOM     26  C   UNL     1       7.915   5.794  19.069  0.00  0.00    +0.000 C 
ENDBRANCH   1  26
TORSDOF 6
ENDMDL
MODEL 7
REMARK VINA RESULT:      -8.0      3.562      7.335
REMARK  Name = 
REMARK  7 active torsions:
REMARK  status: ('A' for Active; 'I' for Inactive)
REMARK    1  A    between atoms: C_1  and  C_2
REMARK    2  A    between atoms: C_2  and  C_3
REMARK    3  A    between atoms: C_5  and  C_6
REMARK    4  A    between atoms: C_13  and  S_14
REMARK    5  A    between atoms: S_14  and  C_17
REMARK    6  A    between atoms: C_20  and  C_21
REMARK    7  A    between atoms: C_21  and  N_22
REMARK                            x       y       z     vdW  Elec       q    Type
REMARK                         _______ _______ _______ _____ _____    ______ ____
ROOT
ATOM      1  C   UNL     1       3.369   7.395  17.471  0.00  0.00    +0.000 A 
ATOM      2  C   UNL     1       2.667   6.404  18.177  0.00  0.00    +0.000 A 
ATOM      3  C   UNL     1       3.213   5.127  18.409  0.00  0.00    +0.000 A 
ATOM      4  C   UNL     1       4.464   4.849  17.834  0.00  0.00    +0.000 A 
ATOM      5  C   UNL     1       5.166   5.828  17.123  0.00  0.00    +0.000 A 
ATOM      6  C   UNL     1       4.627   7.100  16.939  0.00  0.00    +0.000 A 
ENDROOT
BRANCH   3   7
ATOM      7  C   UNL     1       2.570   4.184  19.354  0.00  0.00    +0.000 A 
ATOM      8  C   UNL     1       1.471   3.387  18.988  0.00  0.00    +0.000 A 
ATOM      9  C   UNL     1       0.792   2.607  19.931  0.00  0.00    +0.000 A 
ATOM     10  C   UNL     1       1.214   2.589  21.256  0.00  0.00    +0.000 A 
ATOM     11  C   UNL     1       2.318   3.339  21.641  0.00  0.00    +0.000 A 
ATOM     12  C   UNL     1       2.982   4.129  20.699  0.00  0.00    +0.000 A 
ENDBRANCH   3   7
BRANCH   5  13
ATOM     13  S   UNL     1       6.847   5.506  16.655  0.00  0.00    +0.000 S 
ATOM     14  O   UNL     1       7.551   6.780  16.618  0.00  0.00    +0.000 OA
ATOM     15  O   UNL     1       7.349   4.397  17.444  0.00  0.00    +0.000 OA
BRANCH  13  16
ATOM     16  C   UNL     1       6.832   4.944  14.976  0.00  0.00    +0.000 A 
ATOM     17  C   UNL     1       7.592   5.309  13.885  0.00  0.00    +0.000 A 
ATOM     18  C   UNL     1       7.219   4.599  12.711  0.00  0.00    +0.000 A 
ATOM     19  C   UNL     1       6.198   3.698  12.942  0.00  0.00    +0.000 A 
ATOM     20  S   UNL     1       5.704   3.722  14.582  0.00  0.00    +0.000 S 
BRANCH  19  21
ATOM     21  C   UNL     1       5.552   2.764  11.966  0.00  0.00    +0.000 C 
BRANCH  21  22
ATOM     22  N   UNL     1       4.306   3.336  11.465  0.00  0.00    +0.000 NA
ATOM     23  H   UNL     1       4.337   3.343  10.446  0.00  0.00    +0.000 HD
ATOM     24  H   UNL     1       4.250   4.309  11.756  0.00  0.00    +0.000 HD
ENDBRANCH  21  22
ENDBRANCH  19  21
ENDBRANCH  13  16
ENDBRANCH   5  13
BRANCH   1  26
ATOM     25  C   UNL     1       1.686   8.932  18.450  0.00  0.00    +0.000 C 
ATOM     26  C   UNL     1       2.844   8.812  17.468  0.00  0.00    +0.000 C 
ENDBRANCH   1  26
TORSDOF 6
ENDMDL
MODEL 8
REMARK VINA RESULT:      -7.9      1.268      1.575
REMARK  Name = 
REMARK  7 active torsions:
REMARK  status: ('A' for Active; 'I' for Inactive)
REMARK    1  A    between atoms: C_1  and  C_2
REMARK    2  A    between atoms: C_2  and  C_3
REMARK    3  A    between atoms: C_5  and  C_6
REMARK    4  A    between atoms: C_13  and  S_14
REMARK    5  A    between atoms: S_14  and  C_17
REMARK    6  A    between atoms: C_20  and  C_21
REMARK    7  A    between atoms: C_21  and  N_22
REMARK                            x       y       z     vdW  Elec       q    Type
REMARK                         _______ _______ _______ _____ _____    ______ ____
ROOT
ATOM      1  C   UNL     1       7.015   6.196  17.941  0.00  0.00    +0.000 A 
ATOM      2  C   UNL     1       7.213   5.684  16.647  0.00  0.00    +0.000 A 
ATOM      3  C   UNL     1       6.206   4.979  15.963  0.00  0.00    +0.000 A 
ATOM      4  C   UNL     1       5.009   4.732  16.657  0.00  0.00    +0.000 A 
ATOM      5  C   UNL     1       4.807   5.231  17.948  0.00  0.00    +0.000 A 
ATOM      6  C   UNL     1       5.802   5.963  18.594  0.00  0.00    +0.000 A 
ENDROOT
BRANCH   3   7
ATOM      7  C   UNL     1       6.342   4.660  14.522  0.00  0.00    +0.000 A 
ATOM      8  C   UNL     1       5.455   3.795  13.858  0.00  0.00    +0.000 A 
ATOM      9  C   UNL     1       5.681   3.397  12.535  0.00  0.00    +0.000 A 
ATOM     10  C   UNL     1       6.787   3.877  11.841  0.00  0.00    +0.000 A 
ATOM     11  C   UNL     1       7.663   4.759  12.460  0.00  0.00    +0.000 A 
ATOM     12  C   UNL     1       7.442   5.140  13.786  0.00  0.00    +0.000 A 
ENDBRANCH   3   7
BRANCH   5  13
ATOM     13  S   UNL     1       3.188   5.120  18.665  0.00  0.00    +0.000 S 
ATOM     14  O   UNL     1       2.326   4.433  17.715  0.00  0.00    +0.000 OA
ATOM     15  O   UNL     1       3.313   4.654  20.034  0.00  0.00    +0.000 OA
BRANCH  13  16
ATOM     16  C   UNL     1       2.538   6.763  18.766  0.00  0.00    +0.000 A 
ATOM     17  C   UNL     1       2.503   7.788  17.845  0.00  0.00    +0.000 A 
ATOM     18  C   UNL     1       1.890   8.960  18.370  0.00  0.00    +0.000 A 
ATOM     19  C   UNL     1       1.456   8.790  19.671  0.00  0.00    +0.000 A 
ATOM     20  S   UNL     1       1.796   7.210  20.239  0.00  0.00    +0.000 S 
BRANCH  19  21
ATOM     21  C   UNL     1       0.754   9.780  20.547  0.00  0.00    +0.000 C 
BRANCH  21  22
ATOM     22  N   UNL     1       1.372   9.815  21.869  0.00  0.00    +0.000 NA
ATOM     23  H   UNL     1       0.665   9.585  22.566  0.00  0.00    +0.000 HD
ATOM     24  H   UNL     1       1.670  10.768  22.069  0.00  0.00    +0.000 HD
ENDBRANCH  21  22
ENDBRANCH  19  21
ENDBRANCH  13  16
ENDBRANCH   5  13
BRANCH   1  26
ATOM     25  C   UNL     1       8.012   8.459  17.745  0.00  0.00    +0.000 C 
ATOM     26  C   UNL     1       8.032   7.149  18.522  0.00  0.00    +0.000 C 
ENDBRANCH   1  26
TORSDOF 6
ENDMDL
MODEL 9
REMARK VINA RESULT:      -7.8      3.467      7.348
REMARK  Name = 
REMARK  7 active torsions:
REMARK  status: ('A' for Active; 'I' for Inactive)
REMARK    1  A    between atoms: C_1  and  C_2
REMARK    2  A    between atoms: C_2  and  C_3
REMARK    3  A    between atoms: C_5  and  C_6
REMARK    4  A    between atoms: C_13  and  S_14
REMARK    5  A    between atoms: S_14  and  C_17
REMARK    6  A    between atoms: C_20  and  C_21
REMARK    7  A    between atoms: C_21  and  N_22
REMARK                            x       y       z     vdW  Elec       q    Type
REMARK                         _______ _______ _______ _____ _____    ______ ____
ROOT
ATOM      1  C   UNL     1       3.517   3.734  17.719  0.00  0.00    +0.000 A 
ATOM      2  C   UNL     1       2.880   4.879  18.228  0.00  0.00    +0.000 A 
ATOM      3  C   UNL     1       3.524   6.129  18.279  0.00  0.00    +0.000 A 
ATOM      4  C   UNL     1       4.869   6.176  17.875  0.00  0.00    +0.000 A 
ATOM      5  C   UNL     1       5.513   5.039  17.375  0.00  0.00    +0.000 A 
ATOM      6  C   UNL     1       4.845   3.819  17.293  0.00  0.00    +0.000 A 
ENDROOT
BRANCH   3   7
ATOM      7  C   UNL     1       2.767   7.365  18.588  0.00  0.00    +0.000 A 
ATOM      8  C   UNL     1       2.095   7.548  19.809  0.00  0.00    +0.000 A 
ATOM      9  C   UNL     1       1.272   8.659  20.026  0.00  0.00    +0.000 A 
ATOM     10  C   UNL     1       1.125   9.624  19.035  0.00  0.00    +0.000 A 
ATOM     11  C   UNL     1       1.802   9.487  17.830  0.00  0.00    +0.000 A 
ATOM     12  C   UNL     1       2.609   8.368  17.612  0.00  0.00    +0.000 A 
ENDBRANCH   3   7
BRANCH   5  13
ATOM     13  S   UNL     1       7.115   5.219  16.633  0.00  0.00    +0.000 S 
ATOM     14  O   UNL     1       7.447   6.636  16.628  0.00  0.00    +0.000 OA
ATOM     15  O   UNL     1       8.014   4.243  17.218  0.00  0.00    +0.000 OA
BRANCH  13  16
ATOM     16  C   UNL     1       6.961   4.781  14.925  0.00  0.00    +0.000 A 
ATOM     17  C   UNL     1       7.585   5.271  13.798  0.00  0.00    +0.000 A 
ATOM     18  C   UNL     1       7.134   4.626  12.613  0.00  0.00    +0.000 A 
ATOM     19  C   UNL     1       6.193   3.648  12.870  0.00  0.00    +0.000 A 
ATOM     20  S   UNL     1       5.868   3.522  14.548  0.00  0.00    +0.000 S 
BRANCH  19  21
ATOM     21  C   UNL     1       5.504   2.749  11.891  0.00  0.00    +0.000 C 
BRANCH  21  22
ATOM     22  N   UNL     1       4.288   3.382  11.390  0.00  0.00    +0.000 NA
ATOM     23  H   UNL     1       4.009   4.114  12.042  0.00  0.00    +0.000 HD
ATOM     24  H   UNL     1       3.536   2.697  11.391  0.00  0.00    +0.000 HD
ENDBRANCH  21  22
ENDBRANCH  19  21
ENDBRANCH  13  16
ENDBRANCH   5  13
BRANCH   1  26
ATOM     25  C   UNL     1       1.753   2.244  18.626  0.00  0.00    +0.000 C 
ATOM     26  C   UNL     1       2.703   2.489  17.460  0.00  0.00    +0.000 C 
ENDBRANCH   1  26
TORSDOF 6
ENDMDL
