MODEL 1
REMARK VINA RESULT:      -7.5      0.000      0.000
REMARK  Name = 
REMARK  5 active torsions:
REMARK  status: ('A' for Active; 'I' for Inactive)
REMARK    1  A    between atoms: O_1  and  N_2
REMARK    2  A    between atoms: C_3  and  C_4
REMARK    3  A    between atoms: C_5  and  O_6
REMARK    4  A    between atoms: C_9  and  C_10
REMARK    5  A    between atoms: C_13  and  O_14
REMARK                            x       y       z     vdW  Elec       q    Type
REMARK                         _______ _______ _______ _____ _____    ______ ____
ROOT
ATOM      1  C   UNL     1       6.668   5.667  16.832  0.00  0.00    +0.000 A 
ATOM      2  C   UNL     1       6.887   5.247  15.514  0.00  0.00    +0.000 A 
ATOM      3  C   UNL     1       6.037   4.330  14.914  0.00  0.00    +0.000 A 
ATOM      4  C   UNL     1       4.927   3.854  15.611  0.00  0.00    +0.000 A 
ATOM      5  C   UNL     1       4.658   4.230  16.949  0.00  0.00    +0.000 A 
ATOM      6  C   UNL     1       5.585   5.120  17.564  0.00  0.00    +0.000 A 
ATOM      7 CL   UNL     1       5.461   5.473  19.269  0.00  0.00    +0.000 Cl
ENDROOT
BRANCH   5   8
ATOM      8  C   UNL     1       3.430   3.683  17.605  0.00  0.00    +0.000 A 
ATOM      9  C   UNL     1       3.384   2.353  18.072  0.00  0.00    +0.000 A 
ATOM     10  C   UNL     1       2.234   1.813  18.667  0.00  0.00    +0.000 A 
ATOM     11  C   UNL     1       1.114   2.615  18.830  0.00  0.00    +0.000 A 
ATOM     12  C   UNL     1       1.115   3.922  18.377  0.00  0.00    +0.000 A 
ATOM     13  C   UNL     1       2.252   4.439  17.743  0.00  0.00    +0.000 A 
BRANCH  11  14
ATOM     14  O   UNL     1      -0.019   2.148  19.429  0.00  0.00    +0.000 OA
ATOM     15  H   UNL     1      -0.446   2.879  19.905  0.00  0.00    +0.000 HD
ENDBRANCH  11  14
ENDBRANCH   5   8
BRANCH   1  17
ATOM     16  N   UNL     1       7.420   7.964  17.124  0.00  0.00    +0.000 NA
ATOM     17  C   UNL     1       7.546   6.707  17.425  0.00  0.00    +0.000 C 
BRANCH  16  18
ATOM     18  O   UNL     1       8.354   8.700  17.868  0.00  0.00    +0.000 OA
ATOM     19  H   UNL     1       8.036   9.617  17.779  0.00  0.00    +0.000 HD
ENDBRANCH  16  18
ENDBRANCH   1  17
BRANCH   2  20
ATOM     20  O   UNL     1       7.922   5.687  14.734  0.00  0.00    +0.000 OA
ATOM     21  H   UNL     1       8.363   4.898  14.347  0.00  0.00    +0.000 HD
ENDBRANCH   2  20
TORSDOF 5
ENDMDL
MODEL 2
REMARK VINA RESULT:      -7.4      0.035      1.132
REMARK  Name = 
REMARK  5 active torsions:
REMARK  status: ('A' for Active; 'I' for Inactive)
REMARK    1  A    between atoms: O_1  and  N_2
REMARK    2  A    between atoms: C_3  and  C_4
REMARK    3  A    between atoms: C_5  and  O_6
REMARK    4  A    between atoms: C_9  and  C_10
REMARK    5  A    between atoms: C_13  and  O_14
REMARK                            x       y       z     vdW  Elec       q    Type
REMARK                         _______ _______ _______ _____ _____    ______ ____
ROOT
ATOM      1  C   UNL     1       6.676   5.666  16.850  0.00  0.00    +0.000 A 
ATOM      2  C   UNL     1       6.912   5.252  15.534  0.00  0.00    +0.000 A 
ATOM      3  C   UNL     1       6.074   4.333  14.920  0.00  0.00    +0.000 A 
ATOM      4  C   UNL     1       4.958   3.849  15.602  0.00  0.00    +0.000 A 
ATOM      5  C   UNL     1       4.671   4.218  16.938  0.00  0.00    +0.000 A 
ATOM      6  C   UNL     1       5.587   5.111  17.567  0.00  0.00    +0.000 A 
ATOM      7 CL   UNL     1       5.442   5.455  19.273  0.00  0.00    +0.000 Cl
ENDROOT
BRANCH   5   8
ATOM      8  C   UNL     1       3.439   3.663  17.577  0.00  0.00    +0.000 A 
ATOM      9  C   UNL     1       2.288   4.458  17.754  0.00  0.00    +0.000 A 
ATOM     10  C   UNL     1       1.131   3.964  18.375  0.00  0.00    +0.000 A 
ATOM     11  C   UNL     1       1.101   2.645  18.805  0.00  0.00    +0.000 A 
ATOM     12  C   UNL     1       2.213   1.835  18.659  0.00  0.00    +0.000 A 
ATOM     13  C   UNL     1       3.379   2.350  18.080  0.00  0.00    +0.000 A 
BRANCH  11  14
ATOM     14  O   UNL     1      -0.009   2.108  19.387  0.00  0.00    +0.000 OA
ATOM     15  H   UNL     1      -0.057   1.165  19.159  0.00  0.00    +0.000 HD
ENDBRANCH  11  14
ENDBRANCH   5   8
BRANCH   1  17
ATOM     16  N   UNL     1       7.458   7.957  17.112  0.00  0.00    +0.000 NA
ATOM     17  C   UNL     1       7.542   6.707  17.458  0.00  0.00    +0.000 C 
BRANCH  16  18
ATOM     18  O   UNL     1       8.365   8.698  17.882  0.00  0.00    +0.000 OA
ATOM     19  H   UNL     1       7.796   9.354  18.326  0.00  0.00    +0.000 HD
ENDBRANCH  16  18
ENDBRANCH   1  17
BRANCH   2  20
ATOM     20  O   UNL     1       7.955   5.701  14.767  0.00  0.00    +0.000 OA
ATOM     21  H   UNL     1       8.654   6.030  15.375  0.00  0.00    +0.000 HD
ENDBRANCH   2  20
TORSDOF 5
ENDMDL
MODEL 3
REMARK VINA RESULT:      -7.0      2.475      3.336
REMARK  Name = 
REMARK  5 active torsions:
REMARK  status: ('A' for Active; 'I' for Inactive)
REMARK    1  A    between atoms: O_1  and  N_2
REMARK    2  A    between atoms: C_3  and  C_4
REMARK    3  A    between atoms: C_5  and  O_6
REMARK    4  A    between atoms: C_9  and  C_10
REMARK    5  A    between atoms: C_13  and  O_14
REMARK                            x       y       z     vdW  Elec       q    Type
REMARK                         _______ _______ _______ _____ _____    ______ ____
ROOT
ATOM      1  C   UNL     1       5.494   4.732  16.296  0.00  0.00    +0.000 A 
ATOM      2  C   UNL     1       6.511   5.564  16.779  0.00  0.00    +0.000 A 
ATOM      3  C   UNL     1       6.560   5.914  18.121  0.00  0.00    +0.000 A 
ATOM      4  C   UNL     1       5.615   5.398  19.007  0.00  0.00    +0.000 A 
ATOM      5  C   UNL     1       4.555   4.563  18.579  0.00  0.00    +0.000 A 
ATOM      6  C   UNL     1       4.489   4.274  17.184  0.00  0.00    +0.000 A 
ATOM      7 CL   UNL     1       3.106   3.436  16.528  0.00  0.00    +0.000 Cl
ENDROOT
BRANCH   5   8
ATOM      8  C   UNL     1       3.604   4.041  19.608  0.00  0.00    +0.000 A 
ATOM      9  C   UNL     1       3.840   2.815  20.264  0.00  0.00    +0.000 A 
ATOM     10  C   UNL     1       2.947   2.296  21.213  0.00  0.00    +0.000 A 
ATOM     11  C   UNL     1       1.810   3.019  21.543  0.00  0.00    +0.000 A 
ATOM     12  C   UNL     1       1.537   4.221  20.915  0.00  0.00    +0.000 A 
ATOM     13  C   UNL     1       2.410   4.709  19.935  0.00  0.00    +0.000 A 
BRANCH  11  14
ATOM     14  O   UNL     1       0.926   2.573  22.480  0.00  0.00    +0.000 OA
ATOM     15  H   UNL     1       0.290   3.280  22.673  0.00  0.00    +0.000 HD
ENDBRANCH  11  14
ENDBRANCH   5   8
BRANCH   1  17
ATOM     16  N   UNL     1       6.569   3.807  14.316  0.00  0.00    +0.000 NA
ATOM     17  C   UNL     1       5.507   4.309  14.873  0.00  0.00    +0.000 C 
BRANCH  16  18
ATOM     18  O   UNL     1       6.263   3.468  12.990  0.00  0.00    +0.000 OA
ATOM     19  H   UNL     1       6.777   2.653  12.846  0.00  0.00    +0.000 HD
ENDBRANCH  16  18
ENDBRANCH   1  17
BRANCH   2  20
ATOM     20  O   UNL     1       7.507   6.086  15.998  0.00  0.00    +0.000 OA
ATOM     21  H   UNL     1       8.352   5.999  16.493  0.00  0.00    +0.000 HD
ENDBRANCH   2  20
TORSDOF 5
ENDMDL
MODEL 4
REMARK VINA RESULT:      -6.9      2.472      3.514
REMARK  Name = 
REMARK  5 active torsions:
REMARK  status: ('A' for Active; 'I' for Inactive)
REMARK    1  A    between atoms: O_1  and  N_2
REMARK    2  A    between atoms: C_3  and  C_4
REMARK    3  A    between atoms: C_5  and  O_6
REMARK    4  A    between atoms: C_9  and  C_10
REMARK    5  A    between atoms: C_13  and  O_14
REMARK                            x       y       z     vdW  Elec       q    Type
REMARK                         _______ _______ _______ _____ _____    ______ ____
ROOT
ATOM      1  C   UNL     1       5.485   4.737  16.284  0.00  0.00    +0.000 A 
ATOM      2  C   UNL     1       6.524   5.534  16.779  0.00  0.00    +0.000 A 
ATOM      3  C   UNL     1       6.588   5.854  18.127  0.00  0.00    +0.000 A 
ATOM      4  C   UNL     1       5.635   5.343  19.007  0.00  0.00    +0.000 A 
ATOM      5  C   UNL     1       4.554   4.543  18.567  0.00  0.00    +0.000 A 
ATOM      6  C   UNL     1       4.474   4.286  17.167  0.00  0.00    +0.000 A 
ATOM      7 CL   UNL     1       3.068   3.495  16.501  0.00  0.00    +0.000 Cl
ENDROOT
BRANCH   5   8
ATOM      8  C   UNL     1       3.595   4.023  19.590  0.00  0.00    +0.000 A 
ATOM      9  C   UNL     1       2.433   4.746  19.934  0.00  0.00    +0.000 A 
ATOM     10  C   UNL     1       1.534   4.287  20.909  0.00  0.00    +0.000 A 
ATOM     11  C   UNL     1       1.774   3.074  21.538  0.00  0.00    +0.000 A 
ATOM     12  C   UNL     1       2.907   2.340  21.235  0.00  0.00    +0.000 A 
ATOM     13  C   UNL     1       3.822   2.827  20.294  0.00  0.00    +0.000 A 
BRANCH  11  14
ATOM     14  O   UNL     1       0.916   2.570  22.470  0.00  0.00    +0.000 OA
ATOM     15  H   UNL     1       0.005   2.716  22.169  0.00  0.00    +0.000 HD
ENDBRANCH  11  14
ENDBRANCH   5   8
BRANCH   1  17
ATOM     16  N   UNL     1       6.548   3.893  14.262  0.00  0.00    +0.000 NA
ATOM     17  C   UNL     1       5.482   4.344  14.852  0.00  0.00    +0.000 C 
BRANCH  16  18
ATOM     18  O   UNL     1       6.225   3.570  12.936  0.00  0.00    +0.000 OA
ATOM     19  H   UNL     1       5.797   4.382  12.608  0.00  0.00    +0.000 HD
ENDBRANCH  16  18
ENDBRANCH   1  17
BRANCH   2  20
ATOM     20  O   UNL     1       7.529   6.048  16.004  0.00  0.00    +0.000 OA
ATOM     21  H   UNL     1       7.487   5.606  15.127  0.00  0.00    +0.000 HD
ENDBRANCH   2  20
TORSDOF 5
ENDMDL
MODEL 5
REMARK VINA RESULT:      -6.9      4.014      5.216
REMARK  Name = 
REMARK  5 active torsions:
REMARK  status: ('A' for Active; 'I' for Inactive)
REMARK    1  A    between atoms: O_1  and  N_2
REMARK    2  A    between atoms: C_3  and  C_4
REMARK    3  A    between atoms: C_5  and  O_6
REMARK    4  A    between atoms: C_9  and  C_10
REMARK    5  A    between atoms: C_13  and  O_14
REMARK                            x       y       z     vdW  Elec       q    Type
REMARK                         _______ _______ _______ _____ _____    ______ ____
ROOT
ATOM      1  C   UNL     1       4.911   4.700  18.530  0.00  0.00    +0.000 A 
ATOM      2  C   UNL     1       4.396   3.703  19.368  0.00  0.00    +0.000 A 
ATOM      3  C   UNL     1       3.261   3.937  20.129  0.00  0.00    +0.000 A 
ATOM      4  C   UNL     1       2.597   5.159  20.027  0.00  0.00    +0.000 A 
ATOM      5  C   UNL     1       3.072   6.210  19.209  0.00  0.00    +0.000 A 
ATOM      6  C   UNL     1       4.279   5.968  18.489  0.00  0.00    +0.000 A 
ATOM      7 CL   UNL     1       5.060   7.268  17.625  0.00  0.00    +0.000 Cl
ENDROOT
BRANCH   5   8
ATOM      8  C   UNL     1       2.279   7.476  19.148  0.00  0.00    +0.000 A 
ATOM      9  C   UNL     1       1.689   8.023  20.307  0.00  0.00    +0.000 A 
ATOM     10  C   UNL     1       0.920   9.196  20.268  0.00  0.00    +0.000 A 
ATOM     11  C   UNL     1       0.754   9.858  19.060  0.00  0.00    +0.000 A 
ATOM     12  C   UNL     1       1.307   9.350  17.899  0.00  0.00    +0.000 A 
ATOM     13  C   UNL     1       2.035   8.154  17.940  0.00  0.00    +0.000 A 
BRANCH  11  14
ATOM     14  O   UNL     1       0.040  11.017  18.973  0.00  0.00    +0.000 OA
ATOM     15  H   UNL     1       0.550  11.661  18.455  0.00  0.00    +0.000 HD
ENDBRANCH  11  14
ENDBRANCH   5   8
BRANCH   1  17
ATOM     16  N   UNL     1       7.298   4.459  18.117  0.00  0.00    +0.000 NA
ATOM     17  C   UNL     1       6.081   4.400  17.667  0.00  0.00    +0.000 C 
BRANCH  16  18
ATOM     18  O   UNL     1       8.176   4.084  17.090  0.00  0.00    +0.000 OA
ATOM     19  H   UNL     1       8.928   3.695  17.571  0.00  0.00    +0.000 HD
ENDBRANCH  16  18
ENDBRANCH   1  17
BRANCH   2  20
ATOM     20  O   UNL     1       4.951   2.459  19.505  0.00  0.00    +0.000 OA
ATOM     21  H   UNL     1       4.746   1.948  18.690  0.00  0.00    +0.000 HD
ENDBRANCH   2  20
TORSDOF 5
ENDMDL
MODEL 6
REMARK VINA RESULT:      -6.9      4.022      5.235
REMARK  Name = 
REMARK  5 active torsions:
REMARK  status: ('A' for Active; 'I' for Inactive)
REMARK    1  A    between atoms: O_1  and  N_2
REMARK    2  A    between atoms: C_3  and  C_4
REMARK    3  A    between atoms: C_5  and  O_6
REMARK    4  A    between atoms: C_9  and  C_10
REMARK    5  A    between atoms: C_13  and  O_14
REMARK                            x       y       z     vdW  Elec       q    Type
REMARK                         _______ _______ _______ _____ _____    ______ ____
ROOT
ATOM      1  C   UNL     1       4.883   4.713  18.515  0.00  0.00    +0.000 A 
ATOM      2  C   UNL     1       4.381   3.711  19.355  0.00  0.00    +0.000 A 
ATOM      3  C   UNL     1       3.248   3.936  20.124  0.00  0.00    +0.000 A 
ATOM      4  C   UNL     1       2.576   5.153  20.028  0.00  0.00    +0.000 A 
ATOM      5  C   UNL     1       3.040   6.210  19.209  0.00  0.00    +0.000 A 
ATOM      6  C   UNL     1       4.244   5.976  18.481  0.00  0.00    +0.000 A 
ATOM      7 CL   UNL     1       5.010   7.283  17.615  0.00  0.00    +0.000 Cl
ENDROOT
BRANCH   5   8
ATOM      8  C   UNL     1       2.238   7.470  19.156  0.00  0.00    +0.000 A 
ATOM      9  C   UNL     1       2.041   8.159  17.941  0.00  0.00    +0.000 A 
ATOM     10  C   UNL     1       1.313   9.357  17.875  0.00  0.00    +0.000 A 
ATOM     11  C   UNL     1       0.743   9.871  19.030  0.00  0.00    +0.000 A 
ATOM     12  C   UNL     1       0.921   9.230  20.244  0.00  0.00    +0.000 A 
ATOM     13  C   UNL     1       1.687   8.060  20.309  0.00  0.00    +0.000 A 
BRANCH  11  14
ATOM     14  O   UNL     1       0.002  11.015  19.014  0.00  0.00    +0.000 OA
ATOM     15  H   UNL     1       0.500  11.704  18.545  0.00  0.00    +0.000 HD
ENDBRANCH  11  14
ENDBRANCH   5   8
BRANCH   1  17
ATOM     16  N   UNL     1       7.268   4.454  18.096  0.00  0.00    +0.000 NA
ATOM     17  C   UNL     1       6.050   4.422  17.645  0.00  0.00    +0.000 C 
BRANCH  16  18
ATOM     18  O   UNL     1       8.141   4.097  17.058  0.00  0.00    +0.000 OA
ATOM     19  H   UNL     1       8.430   3.201  17.310  0.00  0.00    +0.000 HD
ENDBRANCH  16  18
ENDBRANCH   1  17
BRANCH   2  20
ATOM     20  O   UNL     1       4.944   2.470  19.486  0.00  0.00    +0.000 OA
ATOM     21  H   UNL     1       5.762   2.567  20.023  0.00  0.00    +0.000 HD
ENDBRANCH   2  20
TORSDOF 5
ENDMDL
MODEL 7
REMARK VINA RESULT:      -6.8      4.242      5.477
REMARK  Name = 
REMARK  5 active torsions:
REMARK  status: ('A' for Active; 'I' for Inactive)
REMARK    1  A    between atoms: O_1  and  N_2
REMARK    2  A    between atoms: C_3  and  C_4
REMARK    3  A    between atoms: C_5  and  O_6
REMARK    4  A    between atoms: C_9  and  C_10
REMARK    5  A    between atoms: C_13  and  O_14
REMARK                            x       y       z     vdW  Elec       q    Type
REMARK                         _______ _______ _______ _____ _____    ______ ____
ROOT
ATOM      1  C   UNL     1       4.034   4.246  18.090  0.00  0.00    +0.000 A 
ATOM      2  C   UNL     1       5.031   4.642  17.189  0.00  0.00    +0.000 A 
ATOM      3  C   UNL     1       5.117   5.960  16.765  0.00  0.00    +0.000 A 
ATOM      4  C   UNL     1       4.233   6.911  17.273  0.00  0.00    +0.000 A 
ATOM      5  C   UNL     1       3.196   6.573  18.175  0.00  0.00    +0.000 A 
ATOM      6  C   UNL     1       3.088   5.199  18.542  0.00  0.00    +0.000 A 
ATOM      7 CL   UNL     1       1.720   4.647  19.474  0.00  0.00    +0.000 Cl
ENDROOT
BRANCH   5   8
ATOM      8  C   UNL     1       2.312   7.666  18.681  0.00  0.00    +0.000 A 
ATOM      9  C   UNL     1       1.823   8.668  17.817  0.00  0.00    +0.000 A 
ATOM     10  C   UNL     1       1.013   9.717  18.276  0.00  0.00    +0.000 A 
ATOM     11  C   UNL     1       0.654   9.761  19.616  0.00  0.00    +0.000 A 
ATOM     12  C   UNL     1       1.121   8.804  20.499  0.00  0.00    +0.000 A 
ATOM     13  C   UNL     1       1.967   7.786  20.040  0.00  0.00    +0.000 A 
BRANCH  11  14
ATOM     14  O   UNL     1      -0.155  10.743  20.107  0.00  0.00    +0.000 OA
ATOM     15  H   UNL     1      -1.066  10.571  19.819  0.00  0.00    +0.000 HD
ENDBRANCH  11  14
ENDBRANCH   5   8
BRANCH   1  17
ATOM     16  N   UNL     1       3.784   1.842  17.797  0.00  0.00    +0.000 NA
ATOM     17  C   UNL     1       4.011   2.848  18.588  0.00  0.00    +0.000 C 
BRANCH  16  18
ATOM     18  O   UNL     1       3.867   0.657  18.544  0.00  0.00    +0.000 OA
ATOM     19  H   UNL     1       4.168   0.002  17.888  0.00  0.00    +0.000 HD
ENDBRANCH  16  18
ENDBRANCH   1  17
BRANCH   2  20
ATOM     20  O   UNL     1       5.970   3.794  16.667  0.00  0.00    +0.000 OA
ATOM     21  H   UNL     1       6.348   4.221  15.866  0.00  0.00    +0.000 HD
ENDBRANCH   2  20
TORSDOF 5
ENDMDL
MODEL 8
REMARK VINA RESULT:      -6.8      4.236      5.409
REMARK  Name = 
REMARK  5 active torsions:
REMARK  status: ('A' for Active; 'I' for Inactive)
REMARK    1  A    between atoms: O_1  and  N_2
REMARK    2  A    between atoms: C_3  and  C_4
REMARK    3  A    between atoms: C_5  and  O_6
REMARK    4  A    between atoms: C_9  and  C_10
REMARK    5  A    between atoms: C_13  and  O_14
REMARK                            x       y       z     vdW  Elec       q    Type
REMARK                         _______ _______ _______ _____ _____    ______ ____
ROOT
ATOM      1  C   UNL     1       4.049   4.257  18.059  0.00  0.00    +0.000 A 
ATOM      2  C   UNL     1       5.053   4.646  17.164  0.00  0.00    +0.000 A 
ATOM      3  C   UNL     1       5.152   5.964  16.743  0.00  0.00    +0.000 A 
ATOM      4  C   UNL     1       4.273   6.921  17.249  0.00  0.00    +0.000 A 
ATOM      5  C   UNL     1       3.230   6.590  18.146  0.00  0.00    +0.000 A 
ATOM      6  C   UNL     1       3.109   5.217  18.509  0.00  0.00    +0.000 A 
ATOM      7 CL   UNL     1       1.732   4.674  19.434  0.00  0.00    +0.000 Cl
ENDROOT
BRANCH   5   8
ATOM      8  C   UNL     1       2.352   7.690  18.650  0.00  0.00    +0.000 A 
ATOM      9  C   UNL     1       1.977   7.760  20.008  0.00  0.00    +0.000 A 
ATOM     10  C   UNL     1       1.134   8.769  20.496  0.00  0.00    +0.000 A 
ATOM     11  C   UNL     1       0.674   9.748  19.628  0.00  0.00    +0.000 A 
ATOM     12  C   UNL     1       1.011   9.711  18.287  0.00  0.00    +0.000 A 
ATOM     13  C   UNL     1       1.816   8.674  17.799  0.00  0.00    +0.000 A 
BRANCH  11  14
ATOM     14  O   UNL     1      -0.123  10.768  20.058  0.00  0.00    +0.000 OA
ATOM     15  H   UNL     1       0.282  11.172  20.843  0.00  0.00    +0.000 HD
ENDBRANCH  11  14
ENDBRANCH   5   8
BRANCH   1  17
ATOM     16  N   UNL     1       3.796   1.854  17.759  0.00  0.00    +0.000 NA
ATOM     17  C   UNL     1       4.012   2.858  18.554  0.00  0.00    +0.000 C 
BRANCH  16  18
ATOM     18  O   UNL     1       3.861   0.668  18.504  0.00  0.00    +0.000 OA
ATOM     19  H   UNL     1       3.141   0.129  18.128  0.00  0.00    +0.000 HD
ENDBRANCH  16  18
ENDBRANCH   1  17
BRANCH   2  20
ATOM     20  O   UNL     1       5.987   3.791  16.644  0.00  0.00    +0.000 OA
ATOM     21  H   UNL     1       6.197   3.122  17.334  0.00  0.00    +0.000 HD
ENDBRANCH   2  20
TORSDOF 5
ENDMDL
MODEL 9
REMARK VINA RESULT:      -6.7      2.588      3.435
REMARK  Name = 
REMARK  5 active torsions:
REMARK  status: ('A' for Active; 'I' for Inactive)
REMARK    1  A    between atoms: O_1  and  N_2
REMARK    2  A    between atoms: C_3  and  C_4
REMARK    3  A    between atoms: C_5  and  O_6
REMARK    4  A    between atoms: C_9  and  C_10
REMARK    5  A    between atoms: C_13  and  O_14
REMARK                            x       y       z     vdW  Elec       q    Type
REMARK                         _______ _______ _______ _____ _____    ______ ____
ROOT
ATOM      1  C   UNL     1       4.958   4.739  16.250  0.00  0.00    +0.000 A 
ATOM      2  C   UNL     1       4.976   6.139  16.276  0.00  0.00    +0.000 A 
ATOM      3  C   UNL     1       4.296   6.836  17.263  0.00  0.00    +0.000 A 
ATOM      4  C   UNL     1       3.624   6.139  18.267  0.00  0.00    +0.000 A 
ATOM      5  C   UNL     1       3.557   4.726  18.289  0.00  0.00    +0.000 A 
ATOM      6  C   UNL     1       4.208   4.036  17.225  0.00  0.00    +0.000 A 
ATOM      7 CL   UNL     1       4.002   2.312  17.044  0.00  0.00    +0.000 Cl
ENDROOT
BRANCH   5   8
ATOM      8  C   UNL     1       2.831   4.069  19.419  0.00  0.00    +0.000 A 
ATOM      9  C   UNL     1       3.523   3.317  20.391  0.00  0.00    +0.000 A 
ATOM     10  C   UNL     1       2.857   2.671  21.444  0.00  0.00    +0.000 A 
ATOM     11  C   UNL     1       1.480   2.795  21.555  0.00  0.00    +0.000 A 
ATOM     12  C   UNL     1       0.763   3.516  20.616  0.00  0.00    +0.000 A 
ATOM     13  C   UNL     1       1.431   4.119  19.543  0.00  0.00    +0.000 A 
BRANCH  11  14
ATOM     14  O   UNL     1       0.789   2.213  22.576  0.00  0.00    +0.000 OA
ATOM     15  H   UNL     1      -0.024   1.820  22.220  0.00  0.00    +0.000 HD
ENDBRANCH  11  14
ENDBRANCH   5   8
BRANCH   1  17
ATOM     16  N   UNL     1       5.498   4.111  13.960  0.00  0.00    +0.000 NA
ATOM     17  C   UNL     1       5.757   4.015  15.230  0.00  0.00    +0.000 C 
BRANCH  16  18
ATOM     18  O   UNL     1       6.441   3.354  13.251  0.00  0.00    +0.000 OA
ATOM     19  H   UNL     1       7.054   4.028  12.906  0.00  0.00    +0.000 HD
ENDBRANCH  16  18
ENDBRANCH   1  17
BRANCH   2  20
ATOM     20  O   UNL     1       5.642   6.912  15.362  0.00  0.00    +0.000 OA
ATOM     21  H   UNL     1       4.999   7.169  14.663  0.00  0.00    +0.000 HD
ENDBRANCH   2  20
TORSDOF 5
ENDMDL
