MODEL 1
REMARK VINA RESULT:      -8.1      0.000      0.000
REMARK  Name = 
REMARK  9 active torsions:
REMARK  status: ('A' for Active; 'I' for Inactive)
REMARK    1  A    between atoms: C_1  and  N_2
REMARK    2  A    between atoms: N_2  and  C_3
REMARK    3  A    between atoms: C_3  and  C_4
REMARK    4  A    between atoms: C_4  and  O_5
REMARK    5  A    between atoms: O_5  and  C_6
REMARK    6  A    between atoms: N_16  and  C_17
REMARK    7  A    between atoms: C_17  and  C_18
REMARK    8  A    between atoms: C_18  and  C_19
REMARK    9  A    between atoms: C_22  and  O_23
REMARK                            x       y       z     vdW  Elec       q    Type
REMARK                         _______ _______ _______ _____ _____    ______ ____
ROOT
ATOM      1  C   UNL     1       1.285   8.362  20.212  0.00  0.00    +0.000 C 
ATOM      2  N   UNL     1       2.052   8.534  18.992  0.00  0.00    +0.000 N 
ATOM      3  C   UNL     1       2.893   7.472  18.661  0.00  0.00    +0.000 A 
ATOM      4  N   UNL     1       4.003   7.734  17.984  0.00  0.00    +0.000 NA
ATOM      5  C   UNL     1       4.773   6.686  17.712  0.00  0.00    +0.000 A 
ATOM      6  N   UNL     1       6.005   6.850  17.088  0.00  0.00    +0.000 N 
ATOM      7  N   UNL     1       4.438   5.439  17.988  0.00  0.00    +0.000 NA
ATOM      8  C   UNL     1       3.334   5.251  18.698  0.00  0.00    +0.000 A 
ATOM      9  N   UNL     1       2.968   3.975  19.036  0.00  0.00    +0.000 N 
ATOM     10  C   UNL     1       1.715   3.677  19.722  0.00  0.00    +0.000 C 
ATOM     11  C   UNL     1       1.029   2.479  19.022  0.00  0.00    +0.000 C 
ATOM     12  N   UNL     1       1.897   1.291  18.882  0.00  0.00    +0.000 NA
ATOM     13  C   UNL     1       3.160   1.674  18.215  0.00  0.00    +0.000 C 
ATOM     14  C   UNL     1       3.891   2.853  18.897  0.00  0.00    +0.000 C 
ATOM     15  N   UNL     1       2.549   6.256  19.059  0.00  0.00    +0.000 NA
ATOM     16  H   UNL     1       5.998   6.356  16.202  0.00  0.00    +0.000 HD
ATOM     17  H   UNL     1       1.420   0.600  18.305  0.00  0.00    +0.000 HD
ENDROOT
BRANCH   2  18
ATOM     18  C   UNL     1       1.683   9.432  17.892  0.00  0.00    +0.000 C 
BRANCH  18  19
ATOM     19  C   UNL     1       0.331  10.130  18.089  0.00  0.00    +0.000 C 
BRANCH  19  20
ATOM     20  O   UNL     1      -0.714   9.536  17.309  0.00  0.00    +0.000 OA
BRANCH  20  21
ATOM     21  C   UNL     1      -1.905  10.225  17.329  0.00  0.00    +0.000 A 
ATOM     22  C   UNL     1      -2.383  10.982  18.407  0.00  0.00    +0.000 A 
ATOM     23  C   UNL     1      -3.608  11.647  18.325  0.00  0.00    +0.000 A 
ATOM     24  C   UNL     1      -4.365  11.562  17.162  0.00  0.00    +0.000 A 
ATOM     25 CL   UNL     1      -5.870  12.387  17.066  0.00  0.00    +0.000 Cl
ATOM     26  C   UNL     1      -3.905  10.813  16.080  0.00  0.00    +0.000 A 
ATOM     27  C   UNL     1      -2.677  10.144  16.166  0.00  0.00    +0.000 A 
ENDBRANCH  20  21
ENDBRANCH  19  20
ENDBRANCH  18  19
ENDBRANCH   2  18
BRANCH   6  28
ATOM     28  C   UNL     1       6.618   8.169  17.139  0.00  0.00    +0.000 C 
BRANCH  28  29
ATOM     29  C   UNL     1       7.943   8.123  17.918  0.00  0.00    +0.000 C 
BRANCH  29  30
ATOM     30  C   UNL     1       8.470   9.500  18.261  0.00  0.00    +0.000 A 
ATOM     31  C   UNL     1       9.289   9.694  19.384  0.00  0.00    +0.000 A 
ATOM     32  C   UNL     1       9.756  10.971  19.718  0.00  0.00    +0.000 A 
ATOM     33  C   UNL     1       9.399  12.059  18.929  0.00  0.00    +0.000 A 
ATOM     34  C   UNL     1       8.598  11.887  17.807  0.00  0.00    +0.000 A 
ATOM     35  C   UNL     1       8.134  10.611  17.473  0.00  0.00    +0.000 A 
BRANCH  33  36
ATOM     36  O   UNL     1       9.818  13.322  19.225  0.00  0.00    +0.000 OA
ATOM     37  H   UNL     1      10.214  13.714  18.429  0.00  0.00    +0.000 HD
ENDBRANCH  33  36
ENDBRANCH  29  30
ENDBRANCH  28  29
ENDBRANCH   6  28
TORSDOF 8
ENDMDL
MODEL 2
REMARK VINA RESULT:      -7.8      0.616      1.061
REMARK  Name = 
REMARK  9 active torsions:
REMARK  status: ('A' for Active; 'I' for Inactive)
REMARK    1  A    between atoms: C_1  and  N_2
REMARK    2  A    between atoms: N_2  and  C_3
REMARK    3  A    between atoms: C_3  and  C_4
REMARK    4  A    between atoms: C_4  and  O_5
REMARK    5  A    between atoms: O_5  and  C_6
REMARK    6  A    between atoms: N_16  and  C_17
REMARK    7  A    between atoms: C_17  and  C_18
REMARK    8  A    between atoms: C_18  and  C_19
REMARK    9  A    between atoms: C_22  and  O_23
REMARK                            x       y       z     vdW  Elec       q    Type
REMARK                         _______ _______ _______ _____ _____    ______ ____
ROOT
ATOM      1  C   UNL     1       1.388   8.388  20.228  0.00  0.00    +0.000 C 
ATOM      2  N   UNL     1       2.136   8.557  18.996  0.00  0.00    +0.000 N 
ATOM      3  C   UNL     1       2.951   7.482  18.640  0.00  0.00    +0.000 A 
ATOM      4  N   UNL     1       4.054   7.731  17.946  0.00  0.00    +0.000 NA
ATOM      5  C   UNL     1       4.799   6.670  17.651  0.00  0.00    +0.000 A 
ATOM      6  N   UNL     1       6.022   6.818  17.006  0.00  0.00    +0.000 N 
ATOM      7  N   UNL     1       4.446   5.428  17.922  0.00  0.00    +0.000 NA
ATOM      8  C   UNL     1       3.351   5.254  18.649  0.00  0.00    +0.000 A 
ATOM      9  N   UNL     1       2.967   3.982  18.982  0.00  0.00    +0.000 N 
ATOM     10  C   UNL     1       1.722   3.701  19.688  0.00  0.00    +0.000 C 
ATOM     11  C   UNL     1       1.000   2.522  18.990  0.00  0.00    +0.000 C 
ATOM     12  N   UNL     1       1.843   1.320  18.824  0.00  0.00    +0.000 NA
ATOM     13  C   UNL     1       3.102   1.685  18.138  0.00  0.00    +0.000 C 
ATOM     14  C   UNL     1       3.866   2.844  18.817  0.00  0.00    +0.000 C 
ATOM     15  N   UNL     1       2.592   6.269  19.034  0.00  0.00    +0.000 NA
ATOM     16  H   UNL     1       5.990   6.332  16.116  0.00  0.00    +0.000 HD
ATOM     17  H   UNL     1       1.343   0.643  18.249  0.00  0.00    +0.000 HD
ENDROOT
BRANCH   2  18
ATOM     18  C   UNL     1       1.765   9.472  17.911  0.00  0.00    +0.000 C 
BRANCH  18  19
ATOM     19  C   UNL     1       0.250   9.640  17.735  0.00  0.00    +0.000 C 
BRANCH  19  20
ATOM     20  O   UNL     1      -0.264  10.774  18.445  0.00  0.00    +0.000 OA
BRANCH  20  21
ATOM     21  C   UNL     1      -1.631  10.919  18.379  0.00  0.00    +0.000 A 
ATOM     22  C   UNL     1      -2.373  11.895  19.058  0.00  0.00    +0.000 A 
ATOM     23  C   UNL     1      -3.761  11.959  18.921  0.00  0.00    +0.000 A 
ATOM     24  C   UNL     1      -4.418  11.048  18.102  0.00  0.00    +0.000 A 
ATOM     25 CL   UNL     1      -6.127  11.136  17.934  0.00  0.00    +0.000 Cl
ATOM     26  C   UNL     1      -3.696  10.071  17.420  0.00  0.00    +0.000 A 
ATOM     27  C   UNL     1      -2.303  10.007  17.561  0.00  0.00    +0.000 A 
ENDBRANCH  20  21
ENDBRANCH  19  20
ENDBRANCH  18  19
ENDBRANCH   2  18
BRANCH   6  28
ATOM     28  C   UNL     1       6.661   8.125  17.058  0.00  0.00    +0.000 C 
BRANCH  28  29
ATOM     29  C   UNL     1       7.923   8.079  17.936  0.00  0.00    +0.000 C 
BRANCH  29  30
ATOM     30  C   UNL     1       8.446   9.456  18.285  0.00  0.00    +0.000 A 
ATOM     31  C   UNL     1       8.137  10.564  17.480  0.00  0.00    +0.000 A 
ATOM     32  C   UNL     1       8.641  11.834  17.786  0.00  0.00    +0.000 A 
ATOM     33  C   UNL     1       9.460  11.996  18.898  0.00  0.00    +0.000 A 
ATOM     34  C   UNL     1       9.768  10.914  19.713  0.00  0.00    +0.000 A 
ATOM     35  C   UNL     1       9.263   9.647  19.408  0.00  0.00    +0.000 A 
BRANCH  33  36
ATOM     36  O   UNL     1       9.986  13.210  19.226  0.00  0.00    +0.000 OA
ATOM     37  H   UNL     1       9.600  13.884  18.642  0.00  0.00    +0.000 HD
ENDBRANCH  33  36
ENDBRANCH  29  30
ENDBRANCH  28  29
ENDBRANCH   6  28
TORSDOF 8
ENDMDL
MODEL 3
REMARK VINA RESULT:      -7.6      3.081      8.577
REMARK  Name = 
REMARK  9 active torsions:
REMARK  status: ('A' for Active; 'I' for Inactive)
REMARK    1  A    between atoms: C_1  and  N_2
REMARK    2  A    between atoms: N_2  and  C_3
REMARK    3  A    between atoms: C_3  and  C_4
REMARK    4  A    between atoms: C_4  and  O_5
REMARK    5  A    between atoms: O_5  and  C_6
REMARK    6  A    between atoms: N_16  and  C_17
REMARK    7  A    between atoms: C_17  and  C_18
REMARK    8  A    between atoms: C_18  and  C_19
REMARK    9  A    between atoms: C_22  and  O_23
REMARK                            x       y       z     vdW  Elec       q    Type
REMARK                         _______ _______ _______ _____ _____    ______ ____
ROOT
ATOM      1  C   UNL     1       6.741   5.980  16.303  0.00  0.00    +0.000 C 
ATOM      2  N   UNL     1       6.114   6.919  17.215  0.00  0.00    +0.000 N 
ATOM      3  C   UNL     1       4.783   6.647  17.531  0.00  0.00    +0.000 A 
ATOM      4  N   UNL     1       3.985   7.665  17.822  0.00  0.00    +0.000 NA
ATOM      5  C   UNL     1       2.724   7.347  18.098  0.00  0.00    +0.000 A 
ATOM      6  N   UNL     1       1.774   8.337  18.328  0.00  0.00    +0.000 N 
ATOM      7  N   UNL     1       2.284   6.105  18.188  0.00  0.00    +0.000 NA
ATOM      8  C   UNL     1       3.125   5.139  17.849  0.00  0.00    +0.000 A 
ATOM      9  N   UNL     1       2.699   3.837  17.895  0.00  0.00    +0.000 N 
ATOM     10  C   UNL     1       3.593   2.713  17.640  0.00  0.00    +0.000 C 
ATOM     11  C   UNL     1       3.375   1.636  18.731  0.00  0.00    +0.000 C 
ATOM     12  N   UNL     1       1.965   1.220  18.886  0.00  0.00    +0.000 NA
ATOM     13  C   UNL     1       1.115   2.410  19.103  0.00  0.00    +0.000 C 
ATOM     14  C   UNL     1       1.284   3.500  18.021  0.00  0.00    +0.000 C 
ATOM     15  N   UNL     1       4.380   5.385  17.502  0.00  0.00    +0.000 NA
ATOM     16  H   UNL     1       1.408   8.233  19.269  0.00  0.00    +0.000 HD
ATOM     17  H   UNL     1       1.889   0.611  19.701  0.00  0.00    +0.000 HD
ENDROOT
BRANCH   2  18
ATOM     18  C   UNL     1       6.839   7.778  18.158  0.00  0.00    +0.000 C 
BRANCH  18  19
ATOM     19  C   UNL     1       7.824   8.742  17.485  0.00  0.00    +0.000 C 
BRANCH  19  20
ATOM     20  O   UNL     1       8.953   9.044  18.315  0.00  0.00    +0.000 OA
BRANCH  20  21
ATOM     21  C   UNL     1       9.059  10.367  18.679  0.00  0.00    +0.000 A 
ATOM     22  C   UNL     1       8.804  11.458  17.839  0.00  0.00    +0.000 A 
ATOM     23  C   UNL     1       8.939  12.767  18.308  0.00  0.00    +0.000 A 
ATOM     24  C   UNL     1       9.329  12.993  19.623  0.00  0.00    +0.000 A 
ATOM     25 CL   UNL     1       9.489  14.607  20.195  0.00  0.00    +0.000 Cl
ATOM     26  C   UNL     1       9.588  11.919  20.472  0.00  0.00    +0.000 A 
ATOM     27  C   UNL     1       9.454  10.607  19.998  0.00  0.00    +0.000 A 
ENDBRANCH  20  21
ENDBRANCH  19  20
ENDBRANCH  18  19
ENDBRANCH   2  18
BRANCH   6  28
ATOM     28  C   UNL     1       2.063   9.677  17.841  0.00  0.00    +0.000 C 
BRANCH  28  29
ATOM     29  C   UNL     1       1.429  10.737  18.757  0.00  0.00    +0.000 C 
BRANCH  29  30
ATOM     30  C   UNL     1      -0.069  10.856  18.567  0.00  0.00    +0.000 A 
ATOM     31  C   UNL     1      -0.748  10.008  17.677  0.00  0.00    +0.000 A 
ATOM     32  C   UNL     1      -2.127  10.134  17.480  0.00  0.00    +0.000 A 
ATOM     33  C   UNL     1      -2.831  11.115  18.171  0.00  0.00    +0.000 A 
ATOM     34  C   UNL     1      -2.181  11.957  19.063  0.00  0.00    +0.000 A 
ATOM     35  C   UNL     1      -0.802  11.829  19.261  0.00  0.00    +0.000 A 
BRANCH  33  36
ATOM     36  O   UNL     1      -4.173  11.284  17.998  0.00  0.00    +0.000 OA
ATOM     37  H   UNL     1      -4.361  12.235  17.934  0.00  0.00    +0.000 HD
ENDBRANCH  33  36
ENDBRANCH  29  30
ENDBRANCH  28  29
ENDBRANCH   6  28
TORSDOF 8
ENDMDL
MODEL 4
REMARK VINA RESULT:      -7.6      5.116      9.580
REMARK  Name = 
REMARK  9 active torsions:
REMARK  status: ('A' for Active; 'I' for Inactive)
REMARK    1  A    between atoms: C_1  and  N_2
REMARK    2  A    between atoms: N_2  and  C_3
REMARK    3  A    between atoms: C_3  and  C_4
REMARK    4  A    between atoms: C_4  and  O_5
REMARK    5  A    between atoms: O_5  and  C_6
REMARK    6  A    between atoms: N_16  and  C_17
REMARK    7  A    between atoms: C_17  and  C_18
REMARK    8  A    between atoms: C_18  and  C_19
REMARK    9  A    between atoms: C_22  and  O_23
REMARK                            x       y       z     vdW  Elec       q    Type
REMARK                         _______ _______ _______ _____ _____    ______ ____
ROOT
ATOM      1  C   UNL     1       3.616  14.630  21.570  0.00  0.00    +0.000 C 
ATOM      2  N   UNL     1       3.227  14.020  20.312  0.00  0.00    +0.000 N 
ATOM      3  C   UNL     1       2.122  13.171  20.376  0.00  0.00    +0.000 A 
ATOM      4  N   UNL     1       2.053  12.162  19.518  0.00  0.00    +0.000 NA
ATOM      5  C   UNL     1       0.986  11.377  19.637  0.00  0.00    +0.000 A 
ATOM      6  N   UNL     1       0.852  10.236  18.854  0.00  0.00    +0.000 N 
ATOM      7  N   UNL     1      -0.009  11.615  20.471  0.00  0.00    +0.000 NA
ATOM      8  C   UNL     1       0.142  12.618  21.324  0.00  0.00    +0.000 A 
ATOM      9  N   UNL     1      -0.852  12.879  22.230  0.00  0.00    +0.000 N 
ATOM     10  C   UNL     1      -0.809  14.027  23.129  0.00  0.00    +0.000 C 
ATOM     11  C   UNL     1      -2.189  14.730  23.117  0.00  0.00    +0.000 C 
ATOM     12  N   UNL     1      -3.322  13.826  23.402  0.00  0.00    +0.000 NA
ATOM     13  C   UNL     1      -3.281  12.669  22.481  0.00  0.00    +0.000 C 
ATOM     14  C   UNL     1      -1.927  11.923  22.480  0.00  0.00    +0.000 C 
ATOM     15  N   UNL     1       1.208  13.405  21.306  0.00  0.00    +0.000 NA
ATOM     16  H   UNL     1       0.018  10.322  18.282  0.00  0.00    +0.000 HD
ATOM     17  H   UNL     1      -4.194  14.332  23.251  0.00  0.00    +0.000 HD
ENDROOT
BRANCH   2  18
ATOM     18  C   UNL     1       3.552  14.558  18.986  0.00  0.00    +0.000 C 
BRANCH  18  19
ATOM     19  C   UNL     1       4.985  15.092  18.870  0.00  0.00    +0.000 C 
BRANCH  19  20
ATOM     20  O   UNL     1       5.613  14.721  17.636  0.00  0.00    +0.000 OA
BRANCH  20  21
ATOM     21  C   UNL     1       6.956  14.440  17.738  0.00  0.00    +0.000 A 
ATOM     22  C   UNL     1       7.943  15.353  18.133  0.00  0.00    +0.000 A 
ATOM     23  C   UNL     1       9.283  14.967  18.207  0.00  0.00    +0.000 A 
ATOM     24  C   UNL     1       9.646  13.663  17.888  0.00  0.00    +0.000 A 
ATOM     25 CL   UNL     1      11.297  13.193  17.985  0.00  0.00    +0.000 Cl
ATOM     26  C   UNL     1       8.677  12.743  17.492  0.00  0.00    +0.000 A 
ATOM     27  C   UNL     1       7.334  13.134  17.417  0.00  0.00    +0.000 A 
ENDBRANCH  20  21
ENDBRANCH  19  20
ENDBRANCH  18  19
ENDBRANCH   2  18
BRANCH   6  28
ATOM     28  C   UNL     1       2.054   9.688  18.245  0.00  0.00    +0.000 C 
BRANCH  28  29
ATOM     29  C   UNL     1       1.793   8.272  17.705  0.00  0.00    +0.000 C 
BRANCH  29  30
ATOM     30  C   UNL     1       2.848   7.275  18.137  0.00  0.00    +0.000 A 
ATOM     31  C   UNL     1       4.014   7.092  17.378  0.00  0.00    +0.000 A 
ATOM     32  C   UNL     1       4.978   6.152  17.761  0.00  0.00    +0.000 A 
ATOM     33  C   UNL     1       4.773   5.389  18.906  0.00  0.00    +0.000 A 
ATOM     34  C   UNL     1       3.631   5.563  19.677  0.00  0.00    +0.000 A 
ATOM     35  C   UNL     1       2.670   6.503  19.295  0.00  0.00    +0.000 A 
BRANCH  33  36
ATOM     36  O   UNL     1       5.677   4.452  19.309  0.00  0.00    +0.000 OA
ATOM     37  H   UNL     1       6.519   4.613  18.852  0.00  0.00    +0.000 HD
ENDBRANCH  33  36
ENDBRANCH  29  30
ENDBRANCH  28  29
ENDBRANCH   6  28
TORSDOF 8
ENDMDL
MODEL 5
REMARK VINA RESULT:      -7.6      4.847     10.647
REMARK  Name = 
REMARK  9 active torsions:
REMARK  status: ('A' for Active; 'I' for Inactive)
REMARK    1  A    between atoms: C_1  and  N_2
REMARK    2  A    between atoms: N_2  and  C_3
REMARK    3  A    between atoms: C_3  and  C_4
REMARK    4  A    between atoms: C_4  and  O_5
REMARK    5  A    between atoms: O_5  and  C_6
REMARK    6  A    between atoms: N_16  and  C_17
REMARK    7  A    between atoms: C_17  and  C_18
REMARK    8  A    between atoms: C_18  and  C_19
REMARK    9  A    between atoms: C_22  and  O_23
REMARK                            x       y       z     vdW  Elec       q    Type
REMARK                         _______ _______ _______ _____ _____    ______ ____
ROOT
ATOM      1  C   UNL     1       1.606   8.950  20.389  0.00  0.00    +0.000 C 
ATOM      2  N   UNL     1       1.086   9.219  19.061  0.00  0.00    +0.000 N 
ATOM      3  C   UNL     1       0.486  10.467  18.896  0.00  0.00    +0.000 A 
ATOM      4  N   UNL     1      -0.490  10.584  18.005  0.00  0.00    +0.000 NA
ATOM      5  C   UNL     1      -1.034  11.792  17.904  0.00  0.00    +0.000 A 
ATOM      6  N   UNL     1      -2.125  12.013  17.070  0.00  0.00    +0.000 N 
ATOM      7  N   UNL     1      -0.592  12.853  18.554  0.00  0.00    +0.000 NA
ATOM      8  C   UNL     1       0.360  12.658  19.454  0.00  0.00    +0.000 A 
ATOM      9  N   UNL     1       0.825  13.726  20.176  0.00  0.00    +0.000 N 
ATOM     10  C   UNL     1       1.942  13.613  21.108  0.00  0.00    +0.000 C 
ATOM     11  C   UNL     1       2.916  14.793  20.874  0.00  0.00    +0.000 C 
ATOM     12  N   UNL     1       2.269  16.121  20.919  0.00  0.00    +0.000 NA
ATOM     13  C   UNL     1       1.126  16.150  19.981  0.00  0.00    +0.000 C 
ATOM     14  C   UNL     1       0.115  15.001  20.196  0.00  0.00    +0.000 C 
ATOM     15  N   UNL     1       0.908  11.468  19.655  0.00  0.00    +0.000 NA
ATOM     16  H   UNL     1      -1.870  12.693  16.361  0.00  0.00    +0.000 HD
ATOM     17  H   UNL     1       2.945  16.828  20.632  0.00  0.00    +0.000 HD
ENDROOT
BRANCH   2  18
ATOM     18  C   UNL     1       1.541   8.554  17.835  0.00  0.00    +0.000 C 
BRANCH  18  19
ATOM     19  C   UNL     1       2.983   8.037  17.910  0.00  0.00    +0.000 C 
BRANCH  19  20
ATOM     20  O   UNL     1       3.098   6.665  17.512  0.00  0.00    +0.000 OA
BRANCH  20  21
ATOM     21  C   UNL     1       2.683   5.757  18.459  0.00  0.00    +0.000 A 
ATOM     22  C   UNL     1       3.011   5.804  19.820  0.00  0.00    +0.000 A 
ATOM     23  C   UNL     1       2.535   4.831  20.702  0.00  0.00    +0.000 A 
ATOM     24  C   UNL     1       1.726   3.804  20.229  0.00  0.00    +0.000 A 
ATOM     25 CL   UNL     1       1.141   2.612  21.321  0.00  0.00    +0.000 Cl
ATOM     26  C   UNL     1       1.392   3.742  18.878  0.00  0.00    +0.000 A 
ATOM     27  C   UNL     1       1.872   4.718  17.995  0.00  0.00    +0.000 A 
ENDBRANCH  20  21
ENDBRANCH  19  20
ENDBRANCH  18  19
ENDBRANCH   2  18
BRANCH   6  28
ATOM     28  C   UNL     1      -2.914  10.858  16.668  0.00  0.00    +0.000 C 
BRANCH  28  29
ATOM     29  C   UNL     1      -3.959  10.513  17.741  0.00  0.00    +0.000 C 
BRANCH  29  30
ATOM     30  C   UNL     1      -4.880  11.673  18.058  0.00  0.00    +0.000 A 
ATOM     31  C   UNL     1      -5.702  12.227  17.064  0.00  0.00    +0.000 A 
ATOM     32  C   UNL     1      -6.533  13.316  17.348  0.00  0.00    +0.000 A 
ATOM     33  C   UNL     1      -6.541  13.857  18.630  0.00  0.00    +0.000 A 
ATOM     34  C   UNL     1      -5.743  13.316  19.630  0.00  0.00    +0.000 A 
ATOM     35  C   UNL     1      -4.914  12.227  19.346  0.00  0.00    +0.000 A 
BRANCH  33  36
ATOM     36  O   UNL     1      -7.323  14.927  18.948  0.00  0.00    +0.000 OA
ATOM     37  H   UNL     1      -7.265  15.082  19.905  0.00  0.00    +0.000 HD
ENDBRANCH  33  36
ENDBRANCH  29  30
ENDBRANCH  28  29
ENDBRANCH   6  28
TORSDOF 8
ENDMDL
MODEL 6
REMARK VINA RESULT:      -7.5      5.150     11.103
REMARK  Name = 
REMARK  9 active torsions:
REMARK  status: ('A' for Active; 'I' for Inactive)
REMARK    1  A    between atoms: C_1  and  N_2
REMARK    2  A    between atoms: N_2  and  C_3
REMARK    3  A    between atoms: C_3  and  C_4
REMARK    4  A    between atoms: C_4  and  O_5
REMARK    5  A    between atoms: O_5  and  C_6
REMARK    6  A    between atoms: N_16  and  C_17
REMARK    7  A    between atoms: C_17  and  C_18
REMARK    8  A    between atoms: C_18  and  C_19
REMARK    9  A    between atoms: C_22  and  O_23
REMARK                            x       y       z     vdW  Elec       q    Type
REMARK                         _______ _______ _______ _____ _____    ______ ____
ROOT
ATOM      1  C   UNL     1       1.033   9.616  21.660  0.00  0.00    +0.000 C 
ATOM      2  N   UNL     1       0.853   9.711  20.222  0.00  0.00    +0.000 N 
ATOM      3  C   UNL     1       0.249  10.884  19.772  0.00  0.00    +0.000 A 
ATOM      4  N   UNL     1      -0.474  10.835  18.661  0.00  0.00    +0.000 NA
ATOM      5  C   UNL     1      -1.038  11.980  18.290  0.00  0.00    +0.000 A 
ATOM      6  N   UNL     1      -1.892  12.029  17.193  0.00  0.00    +0.000 N 
ATOM      7  N   UNL     1      -0.832  13.131  18.903  0.00  0.00    +0.000 NA
ATOM      8  C   UNL     1      -0.130  13.102  20.026  0.00  0.00    +0.000 A 
ATOM      9  N   UNL     1       0.079  14.270  20.712  0.00  0.00    +0.000 N 
ATOM     10  C   UNL     1       0.928  14.339  21.897  0.00  0.00    +0.000 C 
ATOM     11  C   UNL     1       1.866  15.565  21.775  0.00  0.00    +0.000 C 
ATOM     12  N   UNL     1       1.158  16.834  21.507  0.00  0.00    +0.000 NA
ATOM     13  C   UNL     1       0.291  16.679  20.319  0.00  0.00    +0.000 C 
ATOM     14  C   UNL     1      -0.679  15.480  20.410  0.00  0.00    +0.000 C 
ATOM     15  N   UNL     1       0.411  11.985  20.491  0.00  0.00    +0.000 NA
ATOM     16  H   UNL     1      -1.502  12.655  16.496  0.00  0.00    +0.000 HD
ATOM     17  H   UNL     1       1.847  17.561  21.316  0.00  0.00    +0.000 HD
ENDROOT
BRANCH   2  18
ATOM     18  C   UNL     1       1.638   8.967  19.231  0.00  0.00    +0.000 C 
BRANCH  18  19
ATOM     19  C   UNL     1       2.164   7.620  19.742  0.00  0.00    +0.000 C 
BRANCH  19  20
ATOM     20  O   UNL     1       2.243   6.632  18.708  0.00  0.00    +0.000 OA
BRANCH  20  21
ATOM     21  C   UNL     1       3.519   6.207  18.417  0.00  0.00    +0.000 A 
ATOM     22  C   UNL     1       4.283   6.633  17.323  0.00  0.00    +0.000 A 
ATOM     23  C   UNL     1       5.573   6.141  17.118  0.00  0.00    +0.000 A 
ATOM     24  C   UNL     1       6.111   5.218  18.008  0.00  0.00    +0.000 A 
ATOM     25 CL   UNL     1       7.702   4.619  17.752  0.00  0.00    +0.000 Cl
ATOM     26  C   UNL     1       5.365   4.782  19.101  0.00  0.00    +0.000 A 
ATOM     27  C   UNL     1       4.069   5.276  19.303  0.00  0.00    +0.000 A 
ENDBRANCH  20  21
ENDBRANCH  19  20
ENDBRANCH  18  19
ENDBRANCH   2  18
BRANCH   6  28
ATOM     28  C   UNL     1      -2.491  10.781  16.745  0.00  0.00    +0.000 C 
BRANCH  28  29
ATOM     29  C   UNL     1      -3.622  10.349  17.693  0.00  0.00    +0.000 C 
BRANCH  29  30
ATOM     30  C   UNL     1      -4.622  11.456  17.956  0.00  0.00    +0.000 A 
ATOM     31  C   UNL     1      -5.440  11.941  16.924  0.00  0.00    +0.000 A 
ATOM     32  C   UNL     1      -6.346  12.982  17.158  0.00  0.00    +0.000 A 
ATOM     33  C   UNL     1      -6.432  13.542  18.428  0.00  0.00    +0.000 A 
ATOM     34  C   UNL     1      -5.640  13.069  19.466  0.00  0.00    +0.000 A 
ATOM     35  C   UNL     1      -4.736  12.028  19.231  0.00  0.00    +0.000 A 
BRANCH  33  36
ATOM     36  O   UNL     1      -7.289  14.568  18.698  0.00  0.00    +0.000 OA
ATOM     37  H   UNL     1      -8.186  14.208  18.788  0.00  0.00    +0.000 HD
ENDBRANCH  33  36
ENDBRANCH  29  30
ENDBRANCH  28  29
ENDBRANCH   6  28
TORSDOF 8
ENDMDL
MODEL 7
REMARK VINA RESULT:      -7.5      5.133     11.062
REMARK  Name = 
REMARK  9 active torsions:
REMARK  status: ('A' for Active; 'I' for Inactive)
REMARK    1  A    between atoms: C_1  and  N_2
REMARK    2  A    between atoms: N_2  and  C_3
REMARK    3  A    between atoms: C_3  and  C_4
REMARK    4  A    between atoms: C_4  and  O_5
REMARK    5  A    between atoms: O_5  and  C_6
REMARK    6  A    between atoms: N_16  and  C_17
REMARK    7  A    between atoms: C_17  and  C_18
REMARK    8  A    between atoms: C_18  and  C_19
REMARK    9  A    between atoms: C_22  and  O_23
REMARK                            x       y       z     vdW  Elec       q    Type
REMARK                         _______ _______ _______ _____ _____    ______ ____
ROOT
ATOM      1  C   UNL     1       1.024   9.655  21.710  0.00  0.00    +0.000 C 
ATOM      2  N   UNL     1       0.523   9.508  20.355  0.00  0.00    +0.000 N 
ATOM      3  C   UNL     1       0.241  10.701  19.691  0.00  0.00    +0.000 A 
ATOM      4  N   UNL     1      -0.717  10.699  18.773  0.00  0.00    +0.000 NA
ATOM      5  C   UNL     1      -0.953  11.867  18.185  0.00  0.00    +0.000 A 
ATOM      6  N   UNL     1      -1.995  12.008  17.274  0.00  0.00    +0.000 N 
ATOM      7  N   UNL     1      -0.234  12.954  18.398  0.00  0.00    +0.000 NA
ATOM      8  C   UNL     1       0.683  12.895  19.353  0.00  0.00    +0.000 A 
ATOM      9  N   UNL     1       1.428  14.011  19.630  0.00  0.00    +0.000 N 
ATOM     10  C   UNL     1       2.527  13.998  20.591  0.00  0.00    +0.000 C 
ATOM     11  C   UNL     1       3.749  14.719  19.971  0.00  0.00    +0.000 C 
ATOM     12  N   UNL     1       3.449  16.076  19.467  0.00  0.00    +0.000 NA
ATOM     13  C   UNL     1       2.305  16.018  18.531  0.00  0.00    +0.000 C 
ATOM     14  C   UNL     1       1.055  15.326  19.120  0.00  0.00    +0.000 C 
ATOM     15  N   UNL     1       0.930  11.781  20.026  0.00  0.00    +0.000 NA
ATOM     16  H   UNL     1      -1.615  12.276  16.373  0.00  0.00    +0.000 HD
ATOM     17  H   UNL     1       4.264  16.429  18.965  0.00  0.00    +0.000 HD
ENDROOT
BRANCH   2  18
ATOM     18  C   UNL     1       0.743   8.332  19.506  0.00  0.00    +0.000 C 
BRANCH  18  19
ATOM     19  C   UNL     1       2.215   8.091  19.151  0.00  0.00    +0.000 C 
BRANCH  19  20
ATOM     20  O   UNL     1       2.675   6.795  19.553  0.00  0.00    +0.000 OA
BRANCH  20  21
ATOM     21  C   UNL     1       3.720   6.300  18.807  0.00  0.00    +0.000 A 
ATOM     22  C   UNL     1       4.075   6.738  17.525  0.00  0.00    +0.000 A 
ATOM     23  C   UNL     1       5.158   6.170  16.851  0.00  0.00    +0.000 A 
ATOM     24  C   UNL     1       5.896   5.159  17.456  0.00  0.00    +0.000 A 
ATOM     25 CL   UNL     1       7.232   4.467  16.623  0.00  0.00    +0.000 Cl
ATOM     26  C   UNL     1       5.555   4.710  18.731  0.00  0.00    +0.000 A 
ATOM     27  C   UNL     1       4.467   5.280  19.403  0.00  0.00    +0.000 A 
ENDBRANCH  20  21
ENDBRANCH  19  20
ENDBRANCH  18  19
ENDBRANCH   2  18
BRANCH   6  28
ATOM     28  C   UNL     1      -3.061  11.017  17.308  0.00  0.00    +0.000 C 
BRANCH  28  29
ATOM     29  C   UNL     1      -4.436  11.694  17.186  0.00  0.00    +0.000 C 
BRANCH  29  30
ATOM     30  C   UNL     1      -5.236  11.634  18.470  0.00  0.00    +0.000 A 
ATOM     31  C   UNL     1      -6.369  10.812  18.570  0.00  0.00    +0.000 A 
ATOM     32  C   UNL     1      -7.125  10.775  19.747  0.00  0.00    +0.000 A 
ATOM     33  C   UNL     1      -6.750  11.567  20.827  0.00  0.00    +0.000 A 
ATOM     34  C   UNL     1      -5.626  12.379  20.753  0.00  0.00    +0.000 A 
ATOM     35  C   UNL     1      -4.870  12.414  19.577  0.00  0.00    +0.000 A 
BRANCH  33  36
ATOM     36  O   UNL     1      -7.466  11.575  21.988  0.00  0.00    +0.000 OA
ATOM     37  H   UNL     1      -8.407  11.680  21.773  0.00  0.00    +0.000 HD
ENDBRANCH  33  36
ENDBRANCH  29  30
ENDBRANCH  28  29
ENDBRANCH   6  28
TORSDOF 8
ENDMDL
MODEL 8
REMARK VINA RESULT:      -7.5      4.683      7.920
REMARK  Name = 
REMARK  9 active torsions:
REMARK  status: ('A' for Active; 'I' for Inactive)
REMARK    1  A    between atoms: C_1  and  N_2
REMARK    2  A    between atoms: N_2  and  C_3
REMARK    3  A    between atoms: C_3  and  C_4
REMARK    4  A    between atoms: C_4  and  O_5
REMARK    5  A    between atoms: O_5  and  C_6
REMARK    6  A    between atoms: N_16  and  C_17
REMARK    7  A    between atoms: C_17  and  C_18
REMARK    8  A    between atoms: C_18  and  C_19
REMARK    9  A    between atoms: C_22  and  O_23
REMARK                            x       y       z     vdW  Elec       q    Type
REMARK                         _______ _______ _______ _____ _____    ______ ____
ROOT
ATOM      1  C   UNL     1      -0.695  11.687  22.179  0.00  0.00    +0.000 C 
ATOM      2  N   UNL     1       0.351  11.635  21.174  0.00  0.00    +0.000 N 
ATOM      3  C   UNL     1      -0.004  11.019  19.974  0.00  0.00    +0.000 A 
ATOM      4  N   UNL     1       0.942  10.404  19.277  0.00  0.00    +0.000 NA
ATOM      5  C   UNL     1       0.542   9.821  18.152  0.00  0.00    +0.000 A 
ATOM      6  N   UNL     1       1.427   9.070  17.386  0.00  0.00    +0.000 N 
ATOM      7  N   UNL     1      -0.685   9.914  17.675  0.00  0.00    +0.000 NA
ATOM      8  C   UNL     1      -1.589  10.511  18.439  0.00  0.00    +0.000 A 
ATOM      9  N   UNL     1      -2.882  10.599  17.996  0.00  0.00    +0.000 N 
ATOM     10  C   UNL     1      -3.910  11.331  18.728  0.00  0.00    +0.000 C 
ATOM     11  C   UNL     1      -4.704  12.216  17.736  0.00  0.00    +0.000 C 
ATOM     12  N   UNL     1      -5.248  11.475  16.579  0.00  0.00    +0.000 NA
ATOM     13  C   UNL     1      -4.161  10.728  15.910  0.00  0.00    +0.000 C 
ATOM     14  C   UNL     1      -3.357   9.813  16.862  0.00  0.00    +0.000 C 
ATOM     15  N   UNL     1      -1.275  11.060  19.603  0.00  0.00    +0.000 NA
ATOM     16  H   UNL     1       1.512   9.491  16.467  0.00  0.00    +0.000 HD
ATOM     17  H   UNL     1      -5.642  12.141  15.916  0.00  0.00    +0.000 HD
ENDROOT
BRANCH   2  18
ATOM     18  C   UNL     1       1.501  12.543  21.117  0.00  0.00    +0.000 C 
BRANCH  18  19
ATOM     19  C   UNL     1       1.128  13.997  20.801  0.00  0.00    +0.000 C 
BRANCH  19  20
ATOM     20  O   UNL     1       1.364  14.341  19.430  0.00  0.00    +0.000 OA
BRANCH  20  21
ATOM     21  C   UNL     1       2.581  14.938  19.190  0.00  0.00    +0.000 A 
ATOM     22  C   UNL     1       3.458  14.595  18.154  0.00  0.00    +0.000 A 
ATOM     23  C   UNL     1       4.672  15.266  17.995  0.00  0.00    +0.000 A 
ATOM     24  C   UNL     1       5.017  16.289  18.872  0.00  0.00    +0.000 A 
ATOM     25 CL   UNL     1       6.512  17.114  18.668  0.00  0.00    +0.000 Cl
ATOM     26  C   UNL     1       4.156  16.642  19.909  0.00  0.00    +0.000 A 
ATOM     27  C   UNL     1       2.940  15.966  20.068  0.00  0.00    +0.000 A 
ENDBRANCH  20  21
ENDBRANCH  19  20
ENDBRANCH  18  19
ENDBRANCH   2  18
BRANCH   6  28
ATOM     28  C   UNL     1       2.632   8.576  18.035  0.00  0.00    +0.000 C 
BRANCH  28  29
ATOM     29  C   UNL     1       2.508   7.075  18.344  0.00  0.00    +0.000 C 
BRANCH  29  30
ATOM     30  C   UNL     1       3.828   6.342  18.232  0.00  0.00    +0.000 A 
ATOM     31  C   UNL     1       4.614   6.453  17.074  0.00  0.00    +0.000 A 
ATOM     32  C   UNL     1       5.821   5.755  16.958  0.00  0.00    +0.000 A 
ATOM     33  C   UNL     1       6.244   4.940  18.002  0.00  0.00    +0.000 A 
ATOM     34  C   UNL     1       5.487   4.824  19.161  0.00  0.00    +0.000 A 
ATOM     35  C   UNL     1       4.282   5.523  19.277  0.00  0.00    +0.000 A 
BRANCH  33  36
ATOM     36  O   UNL     1       7.406   4.229  17.927  0.00  0.00    +0.000 OA
ATOM     37  H   UNL     1       7.652   3.940  18.821  0.00  0.00    +0.000 HD
ENDBRANCH  33  36
ENDBRANCH  29  30
ENDBRANCH  28  29
ENDBRANCH   6  28
TORSDOF 8
ENDMDL
MODEL 9
REMARK VINA RESULT:      -7.5      5.726     10.857
REMARK  Name = 
REMARK  9 active torsions:
REMARK  status: ('A' for Active; 'I' for Inactive)
REMARK    1  A    between atoms: C_1  and  N_2
REMARK    2  A    between atoms: N_2  and  C_3
REMARK    3  A    between atoms: C_3  and  C_4
REMARK    4  A    between atoms: C_4  and  O_5
REMARK    5  A    between atoms: O_5  and  C_6
REMARK    6  A    between atoms: N_16  and  C_17
REMARK    7  A    between atoms: C_17  and  C_18
REMARK    8  A    between atoms: C_18  and  C_19
REMARK    9  A    between atoms: C_22  and  O_23
REMARK                            x       y       z     vdW  Elec       q    Type
REMARK                         _______ _______ _______ _____ _____    ______ ____
ROOT
ATOM      1  C   UNL     1      -0.271   9.532  23.424  0.00  0.00    +0.000 C 
ATOM      2  N   UNL     1       0.182   9.624  22.048  0.00  0.00    +0.000 N 
ATOM      3  C   UNL     1      -0.365  10.671  21.307  0.00  0.00    +0.000 A 
ATOM      4  N   UNL     1      -0.506  10.511  19.998  0.00  0.00    +0.000 NA
ATOM      5  C   UNL     1      -1.047  11.535  19.348  0.00  0.00    +0.000 A 
ATOM      6  N   UNL     1      -1.328  11.447  17.988  0.00  0.00    +0.000 N 
ATOM      7  N   UNL     1      -1.342  12.691  19.915  0.00  0.00    +0.000 NA
ATOM      8  C   UNL     1      -1.211  12.770  21.231  0.00  0.00    +0.000 A 
ATOM      9  N   UNL     1      -1.539  13.940  21.864  0.00  0.00    +0.000 N 
ATOM     10  C   UNL     1      -1.323  14.142  23.293  0.00  0.00    +0.000 C 
ATOM     11  C   UNL     1      -0.665  15.527  23.514  0.00  0.00    +0.000 C 
ATOM     12  N   UNL     1      -1.401  16.644  22.886  0.00  0.00    +0.000 NA
ATOM     13  C   UNL     1      -1.616  16.354  21.452  0.00  0.00    +0.000 C 
ATOM     14  C   UNL     1      -2.293  14.990  21.188  0.00  0.00    +0.000 C 
ATOM     15  N   UNL     1      -0.736  11.766  21.954  0.00  0.00    +0.000 NA
ATOM     16  H   UNL     1      -0.792  12.151  17.492  0.00  0.00    +0.000 HD
ATOM     17  H   UNL     1      -0.842  17.493  22.967  0.00  0.00    +0.000 HD
ENDROOT
BRANCH   2  18
ATOM     18  C   UNL     1       1.443   9.067  21.545  0.00  0.00    +0.000 C 
BRANCH  18  19
ATOM     19  C   UNL     1       1.289   7.696  20.874  0.00  0.00    +0.000 C 
BRANCH  19  20
ATOM     20  O   UNL     1       2.331   7.427  19.927  0.00  0.00    +0.000 OA
BRANCH  20  21
ATOM     21  C   UNL     1       2.370   6.128  19.472  0.00  0.00    +0.000 A 
ATOM     22  C   UNL     1       2.369   5.745  18.125  0.00  0.00    +0.000 A 
ATOM     23  C   UNL     1       2.413   4.396  17.767  0.00  0.00    +0.000 A 
ATOM     24  C   UNL     1       2.461   3.419  18.755  0.00  0.00    +0.000 A 
ATOM     25 CL   UNL     1       2.520   1.760  18.308  0.00  0.00    +0.000 Cl
ATOM     26  C   UNL     1       2.462   3.783  20.100  0.00  0.00    +0.000 A 
ATOM     27  C   UNL     1       2.415   5.138  20.457  0.00  0.00    +0.000 A 
ENDBRANCH  20  21
ENDBRANCH  19  20
ENDBRANCH  18  19
ENDBRANCH   2  18
BRANCH   6  28
ATOM     28  C   UNL     1      -1.433  10.118  17.405  0.00  0.00    +0.000 C 
BRANCH  28  29
ATOM     29  C   UNL     1      -2.610  10.049  16.418  0.00  0.00    +0.000 C 
BRANCH  29  30
ATOM     30  C   UNL     1      -3.899  10.586  17.003  0.00  0.00    +0.000 A 
ATOM     31  C   UNL     1      -4.507  11.731  16.465  0.00  0.00    +0.000 A 
ATOM     32  C   UNL     1      -5.684  12.244  17.021  0.00  0.00    +0.000 A 
ATOM     33  C   UNL     1      -6.254  11.613  18.121  0.00  0.00    +0.000 A 
ATOM     34  C   UNL     1      -5.674  10.473  18.662  0.00  0.00    +0.000 A 
ATOM     35  C   UNL     1      -4.499   9.959  18.105  0.00  0.00    +0.000 A 
BRANCH  33  36
ATOM     36  O   UNL     1      -7.392  12.087  18.705  0.00  0.00    +0.000 OA
ATOM     37  H   UNL     1      -7.147  12.600  19.493  0.00  0.00    +0.000 HD
ENDBRANCH  33  36
ENDBRANCH  29  30
ENDBRANCH  28  29
ENDBRANCH   6  28
TORSDOF 8
ENDMDL
