MODEL 1
REMARK VINA RESULT:      -7.6      0.000      0.000
REMARK  Name = 
REMARK  11 active torsions:
REMARK  status: ('A' for Active; 'I' for Inactive)
REMARK    1  A    between atoms: C_1  and  C_2
REMARK    2  A    between atoms: C_2  and  N_3
REMARK    3  A    between atoms: N_3  and  C_4
REMARK    4  A    between atoms: C_4  and  C_5
REMARK    5  A    between atoms: C_6  and  C_8
REMARK    6  A    between atoms: C_8  and  N_9
REMARK    7  A    between atoms: C_11  and  S_12
REMARK    8  A    between atoms: S_12  and  C_13
REMARK    9  A    between atoms: C_13  and  C_14
REMARK   10  A    between atoms: N_16  and  C_17
REMARK   11  A    between atoms: C_20  and  C_21
REMARK                            x       y       z     vdW  Elec       q    Type
REMARK                         _______ _______ _______ _____ _____    ______ ____
ROOT
ATOM      1  N   UNL     1       4.234   4.679  19.146  0.00  0.00    +0.000 N 
ATOM      2  C   UNL     1       3.884   5.956  19.519  0.00  0.00    +0.000 A 
ATOM      3  C   UNL     1       2.566   5.936  19.901  0.00  0.00    +0.000 A 
ATOM      4  C   UNL     1       2.075   4.606  19.734  0.00  0.00    +0.000 A 
ATOM      5  C   UNL     1       0.825   3.975  19.929  0.00  0.00    +0.000 A 
ATOM      6  C   UNL     1       0.677   2.614  19.647  0.00  0.00    +0.000 A 
ATOM      7  C   UNL     1       1.748   1.876  19.155  0.00  0.00    +0.000 A 
ATOM      8  C   UNL     1       2.996   2.473  18.944  0.00  0.00    +0.000 A 
ATOM      9  C   UNL     1       3.141   3.839  19.244  0.00  0.00    +0.000 A 
ENDROOT
BRANCH   1  10
ATOM     10  C   UNL     1       5.550   4.312  18.641  0.00  0.00    +0.000 C 
BRANCH  10  12
ATOM     11  N   UNL     1       6.978   6.227  17.909  0.00  0.00    +0.000 N 
ATOM     12  C   UNL     1       6.621   5.356  18.955  0.00  0.00    +0.000 C 
ATOM     13  O   UNL     1       7.152   5.436  20.064  0.00  0.00    +0.000 OA
BRANCH  11  15
ATOM     14  C   UNL     1       7.828   8.568  17.690  0.00  0.00    +0.000 C 
ATOM     15  C   UNL     1       8.094   7.148  18.164  0.00  0.00    +0.000 C 
ENDBRANCH  11  15
BRANCH  11  16
ATOM     16  C   UNL     1       6.278   6.213  16.616  0.00  0.00    +0.000 C 
ATOM     17  C   UNL     1       6.787   5.281  15.531  0.00  0.00    +0.000 C 
ENDBRANCH  11  16
ENDBRANCH  10  12
ENDBRANCH   1  10
BRANCH   3  18
ATOM     18  S   UNL     1       1.674   7.338  20.434  0.00  0.00    +0.000 S 
BRANCH  18  19
ATOM     19  C   UNL     1       1.777   8.403  18.966  0.00  0.00    +0.000 C 
BRANCH  19  20
ATOM     20  C   UNL     1       1.160   9.762  19.252  0.00  0.00    +0.000 C 
ATOM     21  O   UNL     1       1.574  10.758  18.663  0.00  0.00    +0.000 OA
ATOM     22  N   UNL     1       0.128   9.734  20.181  0.00  0.00    +0.000 N 
ATOM     23  H   UNL     1       0.036   8.874  20.714  0.00  0.00    +0.000 HD
BRANCH  22  24
ATOM     24  C   UNL     1      -0.568  10.859  20.673  0.00  0.00    +0.000 A 
ATOM     25  C   UNL     1      -0.384  11.360  21.961  0.00  0.00    +0.000 A 
ATOM     26  C   UNL     1      -1.201  12.376  22.456  0.00  0.00    +0.000 A 
ATOM     27  C   UNL     1      -2.212  12.920  21.662  0.00  0.00    +0.000 A 
ATOM     28  C   UNL     1      -3.167  13.925  22.233  0.00  0.00    +0.000 C 
ATOM     29  C   UNL     1      -2.338  12.485  20.337  0.00  0.00    +0.000 A 
ATOM     30  C   UNL     1      -1.512  11.468  19.843  0.00  0.00    +0.000 A 
ENDBRANCH  22  24
ENDBRANCH  19  20
ENDBRANCH  18  19
ENDBRANCH   3  18
TORSDOF 8
ENDMDL
MODEL 2
REMARK VINA RESULT:      -7.5      2.907      7.870
REMARK  Name = 
REMARK  11 active torsions:
REMARK  status: ('A' for Active; 'I' for Inactive)
REMARK    1  A    between atoms: C_1  and  C_2
REMARK    2  A    between atoms: C_2  and  N_3
REMARK    3  A    between atoms: N_3  and  C_4
REMARK    4  A    between atoms: C_4  and  C_5
REMARK    5  A    between atoms: C_6  and  C_8
REMARK    6  A    between atoms: C_8  and  N_9
REMARK    7  A    between atoms: C_11  and  S_12
REMARK    8  A    between atoms: S_12  and  C_13
REMARK    9  A    between atoms: C_13  and  C_14
REMARK   10  A    between atoms: N_16  and  C_17
REMARK   11  A    between atoms: C_20  and  C_21
REMARK                            x       y       z     vdW  Elec       q    Type
REMARK                         _______ _______ _______ _____ _____    ______ ____
ROOT
ATOM      1  N   UNL     1       3.238   6.545  18.608  0.00  0.00    +0.000 N 
ATOM      2  C   UNL     1       4.497   6.918  18.200  0.00  0.00    +0.000 A 
ATOM      3  C   UNL     1       5.055   5.855  17.535  0.00  0.00    +0.000 A 
ATOM      4  C   UNL     1       4.121   4.777  17.557  0.00  0.00    +0.000 A 
ATOM      5  C   UNL     1       4.123   3.448  17.076  0.00  0.00    +0.000 A 
ATOM      6  C   UNL     1       3.012   2.625  17.285  0.00  0.00    +0.000 A 
ATOM      7  C   UNL     1       1.906   3.099  17.982  0.00  0.00    +0.000 A 
ATOM      8  C   UNL     1       1.876   4.408  18.478  0.00  0.00    +0.000 A 
ATOM      9  C   UNL     1       2.991   5.233  18.252  0.00  0.00    +0.000 A 
ENDROOT
BRANCH   1  10
ATOM     10  C   UNL     1       2.348   7.400  19.382  0.00  0.00    +0.000 C 
BRANCH  10  12
ATOM     11  N   UNL     1       0.928   9.451  19.248  0.00  0.00    +0.000 N 
ATOM     12  C   UNL     1       1.809   8.582  18.578  0.00  0.00    +0.000 C 
ATOM     13  O   UNL     1       2.123   8.771  17.401  0.00  0.00    +0.000 OA
BRANCH  11  15
ATOM     14  C   UNL     1      -1.041  10.125  17.861  0.00  0.00    +0.000 C 
ATOM     15  C   UNL     1       0.308  10.515  18.446  0.00  0.00    +0.000 C 
ENDBRANCH  11  15
BRANCH  11  16
ATOM     16  C   UNL     1       0.631   9.301  20.680  0.00  0.00    +0.000 C 
ATOM     17  C   UNL     1      -0.114  10.422  21.383  0.00  0.00    +0.000 C 
ENDBRANCH  11  16
ENDBRANCH  10  12
ENDBRANCH   1  10
BRANCH   3  18
ATOM     18  S   UNL     1       6.662   5.854  16.854  0.00  0.00    +0.000 S 
BRANCH  18  19
ATOM     19  C   UNL     1       7.636   6.514  18.238  0.00  0.00    +0.000 C 
BRANCH  19  20
ATOM     20  C   UNL     1       7.917   7.993  18.031  0.00  0.00    +0.000 C 
ATOM     21  O   UNL     1       7.437   8.577  17.062  0.00  0.00    +0.000 OA
ATOM     22  N   UNL     1       8.710   8.565  19.017  0.00  0.00    +0.000 N 
ATOM     23  H   UNL     1       9.181   7.914  19.638  0.00  0.00    +0.000 HD
BRANCH  22  24
ATOM     24  C   UNL     1       9.173   9.898  19.031  0.00  0.00    +0.000 A 
ATOM     25  C   UNL     1       9.296  10.670  17.876  0.00  0.00    +0.000 A 
ATOM     26  C   UNL     1       9.900  11.926  17.917  0.00  0.00    +0.000 A 
ATOM     27  C   UNL     1      10.382  12.439  19.122  0.00  0.00    +0.000 A 
ATOM     28  C   UNL     1      11.139  13.734  19.146  0.00  0.00    +0.000 C 
ATOM     29  C   UNL     1      10.176  11.709  20.299  0.00  0.00    +0.000 A 
ATOM     30  C   UNL     1       9.565  10.450  20.254  0.00  0.00    +0.000 A 
ENDBRANCH  22  24
ENDBRANCH  19  20
ENDBRANCH  18  19
ENDBRANCH   3  18
TORSDOF 8
ENDMDL
MODEL 3
REMARK VINA RESULT:      -7.5      1.279      1.586
REMARK  Name = 
REMARK  11 active torsions:
REMARK  status: ('A' for Active; 'I' for Inactive)
REMARK    1  A    between atoms: C_1  and  C_2
REMARK    2  A    between atoms: C_2  and  N_3
REMARK    3  A    between atoms: N_3  and  C_4
REMARK    4  A    between atoms: C_4  and  C_5
REMARK    5  A    between atoms: C_6  and  C_8
REMARK    6  A    between atoms: C_8  and  N_9
REMARK    7  A    between atoms: C_11  and  S_12
REMARK    8  A    between atoms: S_12  and  C_13
REMARK    9  A    between atoms: C_13  and  C_14
REMARK   10  A    between atoms: N_16  and  C_17
REMARK   11  A    between atoms: C_20  and  C_21
REMARK                            x       y       z     vdW  Elec       q    Type
REMARK                         _______ _______ _______ _____ _____    ______ ____
ROOT
ATOM      1  N   UNL     1       3.686   5.111  17.845  0.00  0.00    +0.000 N 
ATOM      2  C   UNL     1       3.486   6.387  18.316  0.00  0.00    +0.000 A 
ATOM      3  C   UNL     1       2.509   6.331  19.278  0.00  0.00    +0.000 A 
ATOM      4  C   UNL     1       2.070   4.978  19.388  0.00  0.00    +0.000 A 
ATOM      5  C   UNL     1       1.097   4.306  20.164  0.00  0.00    +0.000 A 
ATOM      6  C   UNL     1       0.907   2.929  20.010  0.00  0.00    +0.000 A 
ATOM      7  C   UNL     1       1.656   2.214  19.081  0.00  0.00    +0.000 A 
ATOM      8  C   UNL     1       2.621   2.851  18.293  0.00  0.00    +0.000 A 
ATOM      9  C   UNL     1       2.817   4.233  18.464  0.00  0.00    +0.000 A 
ENDROOT
BRANCH   1  10
ATOM     10  C   UNL     1       4.624   4.775  16.782  0.00  0.00    +0.000 C 
BRANCH  10  12
ATOM     11  N   UNL     1       6.725   6.105  17.030  0.00  0.00    +0.000 N 
ATOM     12  C   UNL     1       5.495   5.958  16.361  0.00  0.00    +0.000 C 
ATOM     13  O   UNL     1       5.146   6.748  15.482  0.00  0.00    +0.000 OA
BRANCH  11  15
ATOM     14  C   UNL     1       7.923   8.096  17.953  0.00  0.00    +0.000 C 
ATOM     15  C   UNL     1       7.509   7.308  16.720  0.00  0.00    +0.000 C 
ENDBRANCH  11  15
BRANCH  11  16
ATOM     16  C   UNL     1       7.202   5.110  18.001  0.00  0.00    +0.000 C 
ATOM     17  C   UNL     1       6.891   5.332  19.471  0.00  0.00    +0.000 C 
ENDBRANCH  11  16
ENDBRANCH  10  12
ENDBRANCH   1  10
BRANCH   3  18
ATOM     18  S   UNL     1       1.900   7.718  20.146  0.00  0.00    +0.000 S 
BRANCH  18  19
ATOM     19  C   UNL     1       1.635   8.897  18.790  0.00  0.00    +0.000 C 
BRANCH  19  20
ATOM     20  C   UNL     1       1.018  10.182  19.317  0.00  0.00    +0.000 C 
ATOM     21  O   UNL     1       1.449  11.268  18.935  0.00  0.00    +0.000 OA
ATOM     22  N   UNL     1      -0.032   9.987  20.204  0.00  0.00    +0.000 N 
ATOM     23  H   UNL     1      -0.139   9.043  20.562  0.00  0.00    +0.000 HD
BRANCH  22  24
ATOM     24  C   UNL     1      -0.732  11.004  20.887  0.00  0.00    +0.000 A 
ATOM     25  C   UNL     1      -0.578  11.245  22.252  0.00  0.00    +0.000 A 
ATOM     26  C   UNL     1      -1.400  12.156  22.914  0.00  0.00    +0.000 A 
ATOM     27  C   UNL     1      -2.387  12.855  22.216  0.00  0.00    +0.000 A 
ATOM     28  C   UNL     1      -3.348  13.743  22.947  0.00  0.00    +0.000 C 
ATOM     29  C   UNL     1      -2.481  12.687  20.829  0.00  0.00    +0.000 A 
ATOM     30  C   UNL     1      -1.650  11.774  20.167  0.00  0.00    +0.000 A 
ENDBRANCH  22  24
ENDBRANCH  19  20
ENDBRANCH  18  19
ENDBRANCH   3  18
TORSDOF 8
ENDMDL
MODEL 4
REMARK VINA RESULT:      -7.4      1.782      2.007
REMARK  Name = 
REMARK  11 active torsions:
REMARK  status: ('A' for Active; 'I' for Inactive)
REMARK    1  A    between atoms: C_1  and  C_2
REMARK    2  A    between atoms: C_2  and  N_3
REMARK    3  A    between atoms: N_3  and  C_4
REMARK    4  A    between atoms: C_4  and  C_5
REMARK    5  A    between atoms: C_6  and  C_8
REMARK    6  A    between atoms: C_8  and  N_9
REMARK    7  A    between atoms: C_11  and  S_12
REMARK    8  A    between atoms: S_12  and  C_13
REMARK    9  A    between atoms: C_13  and  C_14
REMARK   10  A    between atoms: N_16  and  C_17
REMARK   11  A    between atoms: C_20  and  C_21
REMARK                            x       y       z     vdW  Elec       q    Type
REMARK                         _______ _______ _______ _____ _____    ______ ____
ROOT
ATOM      1  N   UNL     1       4.238   4.606  19.144  0.00  0.00    +0.000 N 
ATOM      2  C   UNL     1       3.882   5.869  19.551  0.00  0.00    +0.000 A 
ATOM      3  C   UNL     1       2.558   5.838  19.911  0.00  0.00    +0.000 A 
ATOM      4  C   UNL     1       2.070   4.515  19.692  0.00  0.00    +0.000 A 
ATOM      5  C   UNL     1       0.817   3.879  19.845  0.00  0.00    +0.000 A 
ATOM      6  C   UNL     1       0.673   2.527  19.517  0.00  0.00    +0.000 A 
ATOM      7  C   UNL     1       1.752   1.805  19.019  0.00  0.00    +0.000 A 
ATOM      8  C   UNL     1       3.003   2.408  18.849  0.00  0.00    +0.000 A 
ATOM      9  C   UNL     1       3.144   3.763  19.195  0.00  0.00    +0.000 A 
ENDROOT
BRANCH   1  10
ATOM     10  C   UNL     1       5.562   4.254  18.649  0.00  0.00    +0.000 C 
BRANCH  10  12
ATOM     11  N   UNL     1       6.950   6.209  17.946  0.00  0.00    +0.000 N 
ATOM     12  C   UNL     1       6.620   5.308  18.975  0.00  0.00    +0.000 C 
ATOM     13  O   UNL     1       7.161   5.372  20.080  0.00  0.00    +0.000 OA
BRANCH  11  15
ATOM     14  C   UNL     1       7.810   8.539  17.659  0.00  0.00    +0.000 C 
ATOM     15  C   UNL     1       8.053   7.142  18.210  0.00  0.00    +0.000 C 
ENDBRANCH  11  15
BRANCH  11  16
ATOM     16  C   UNL     1       6.236   6.213  16.661  0.00  0.00    +0.000 C 
ATOM     17  C   UNL     1       6.800   5.384  15.520  0.00  0.00    +0.000 C 
ENDBRANCH  11  16
ENDBRANCH  10  12
ENDBRANCH   1  10
BRANCH   3  18
ATOM     18  S   UNL     1       1.657   7.223  20.473  0.00  0.00    +0.000 S 
BRANCH  18  19
ATOM     19  C   UNL     1       1.779   8.332  19.040  0.00  0.00    +0.000 C 
BRANCH  19  20
ATOM     20  C   UNL     1       1.367   9.744  19.424  0.00  0.00    +0.000 C 
ATOM     21  O   UNL     1       0.977   9.977  20.566  0.00  0.00    +0.000 OA
ATOM     22  N   UNL     1       1.499  10.673  18.401  0.00  0.00    +0.000 N 
ATOM     23  H   UNL     1       1.649  10.290  17.472  0.00  0.00    +0.000 HD
BRANCH  22  24
ATOM     24  C   UNL     1       1.127  12.032  18.471  0.00  0.00    +0.000 A 
ATOM     25  C   UNL     1       2.056  13.070  18.533  0.00  0.00    +0.000 A 
ATOM     26  C   UNL     1       1.646  14.384  18.754  0.00  0.00    +0.000 A 
ATOM     27  C   UNL     1       0.291  14.686  18.905  0.00  0.00    +0.000 A 
ATOM     28  C   UNL     1      -0.140  16.077  19.263  0.00  0.00    +0.000 C 
ATOM     29  C   UNL     1      -0.651  13.662  18.749  0.00  0.00    +0.000 A 
ATOM     30  C   UNL     1      -0.234  12.344  18.522  0.00  0.00    +0.000 A 
ENDBRANCH  22  24
ENDBRANCH  19  20
ENDBRANCH  18  19
ENDBRANCH   3  18
TORSDOF 8
ENDMDL
MODEL 5
REMARK VINA RESULT:      -7.4      1.358      1.794
REMARK  Name = 
REMARK  11 active torsions:
REMARK  status: ('A' for Active; 'I' for Inactive)
REMARK    1  A    between atoms: C_1  and  C_2
REMARK    2  A    between atoms: C_2  and  N_3
REMARK    3  A    between atoms: N_3  and  C_4
REMARK    4  A    between atoms: C_4  and  C_5
REMARK    5  A    between atoms: C_6  and  C_8
REMARK    6  A    between atoms: C_8  and  N_9
REMARK    7  A    between atoms: C_11  and  S_12
REMARK    8  A    between atoms: S_12  and  C_13
REMARK    9  A    between atoms: C_13  and  C_14
REMARK   10  A    between atoms: N_16  and  C_17
REMARK   11  A    between atoms: C_20  and  C_21
REMARK                            x       y       z     vdW  Elec       q    Type
REMARK                         _______ _______ _______ _____ _____    ______ ____
ROOT
ATOM      1  N   UNL     1       3.607   5.334  17.969  0.00  0.00    +0.000 N 
ATOM      2  C   UNL     1       3.319   6.598  18.427  0.00  0.00    +0.000 A 
ATOM      3  C   UNL     1       2.402   6.479  19.442  0.00  0.00    +0.000 A 
ATOM      4  C   UNL     1       2.091   5.095  19.599  0.00  0.00    +0.000 A 
ATOM      5  C   UNL     1       1.223   4.359  20.438  0.00  0.00    +0.000 A 
ATOM      6  C   UNL     1       1.147   2.968  20.319  0.00  0.00    +0.000 A 
ATOM      7  C   UNL     1       1.907   2.300  19.365  0.00  0.00    +0.000 A 
ATOM      8  C   UNL     1       2.770   3.001  18.515  0.00  0.00    +0.000 A 
ATOM      9  C   UNL     1       2.852   4.397  18.650  0.00  0.00    +0.000 A 
ENDROOT
BRANCH   1  10
ATOM     10  C   UNL     1       4.514   5.057  16.864  0.00  0.00    +0.000 C 
BRANCH  10  12
ATOM     11  N   UNL     1       6.499   6.518  17.273  0.00  0.00    +0.000 N 
ATOM     12  C   UNL     1       5.367   6.264  16.476  0.00  0.00    +0.000 C 
ATOM     13  O   UNL     1       5.084   6.985  15.518  0.00  0.00    +0.000 OA
BRANCH  11  15
ATOM     14  C   UNL     1       8.158   8.184  18.124  0.00  0.00    +0.000 C 
ATOM     15  C   UNL     1       7.251   7.747  16.984  0.00  0.00    +0.000 C 
ENDBRANCH  11  15
BRANCH  11  16
ATOM     16  C   UNL     1       6.909   5.606  18.350  0.00  0.00    +0.000 C 
ATOM     17  C   UNL     1       7.869   4.478  18.013  0.00  0.00    +0.000 C 
ENDBRANCH  11  16
ENDBRANCH  10  12
ENDBRANCH   1  10
BRANCH   3  18
ATOM     18  S   UNL     1       1.719   7.827  20.315  0.00  0.00    +0.000 S 
BRANCH  18  19
ATOM     19  C   UNL     1       1.431   9.012  18.970  0.00  0.00    +0.000 C 
BRANCH  19  20
ATOM     20  C   UNL     1       0.891  10.321  19.522  0.00  0.00    +0.000 C 
ATOM     21  O   UNL     1       1.492  11.370  19.303  0.00  0.00    +0.000 OA
ATOM     22  N   UNL     1      -0.293  10.192  20.236  0.00  0.00    +0.000 N 
ATOM     23  H   UNL     1      -0.556   9.244  20.489  0.00  0.00    +0.000 HD
BRANCH  22  24
ATOM     24  C   UNL     1      -0.967  11.234  20.907  0.00  0.00    +0.000 A 
ATOM     25  C   UNL     1      -1.814  12.132  20.256  0.00  0.00    +0.000 A 
ATOM     26  C   UNL     1      -2.338  13.235  20.928  0.00  0.00    +0.000 A 
ATOM     27  C   UNL     1      -2.033  13.455  22.273  0.00  0.00    +0.000 A 
ATOM     28  C   UNL     1      -2.496  14.703  22.961  0.00  0.00    +0.000 C 
ATOM     29  C   UNL     1      -1.261  12.506  22.954  0.00  0.00    +0.000 A 
ATOM     30  C   UNL     1      -0.741  11.396  22.276  0.00  0.00    +0.000 A 
ENDBRANCH  22  24
ENDBRANCH  19  20
ENDBRANCH  18  19
ENDBRANCH   3  18
TORSDOF 8
ENDMDL
MODEL 6
REMARK VINA RESULT:      -7.4      2.460      2.835
REMARK  Name = 
REMARK  11 active torsions:
REMARK  status: ('A' for Active; 'I' for Inactive)
REMARK    1  A    between atoms: C_1  and  C_2
REMARK    2  A    between atoms: C_2  and  N_3
REMARK    3  A    between atoms: N_3  and  C_4
REMARK    4  A    between atoms: C_4  and  C_5
REMARK    5  A    between atoms: C_6  and  C_8
REMARK    6  A    between atoms: C_8  and  N_9
REMARK    7  A    between atoms: C_11  and  S_12
REMARK    8  A    between atoms: S_12  and  C_13
REMARK    9  A    between atoms: C_13  and  C_14
REMARK   10  A    between atoms: N_16  and  C_17
REMARK   11  A    between atoms: C_20  and  C_21
REMARK                            x       y       z     vdW  Elec       q    Type
REMARK                         _______ _______ _______ _____ _____    ______ ____
ROOT
ATOM      1  N   UNL     1       3.724   5.113  17.765  0.00  0.00    +0.000 N 
ATOM      2  C   UNL     1       3.520   6.381  18.254  0.00  0.00    +0.000 A 
ATOM      3  C   UNL     1       2.524   6.314  19.196  0.00  0.00    +0.000 A 
ATOM      4  C   UNL     1       2.077   4.961  19.274  0.00  0.00    +0.000 A 
ATOM      5  C   UNL     1       1.086   4.281  20.018  0.00  0.00    +0.000 A 
ATOM      6  C   UNL     1       0.892   2.908  19.837  0.00  0.00    +0.000 A 
ATOM      7  C   UNL     1       1.656   2.205  18.911  0.00  0.00    +0.000 A 
ATOM      8  C   UNL     1       2.640   2.851  18.153  0.00  0.00    +0.000 A 
ATOM      9  C   UNL     1       2.838   4.228  18.352  0.00  0.00    +0.000 A 
ENDROOT
BRANCH   1  10
ATOM     10  C   UNL     1       4.681   4.790  16.715  0.00  0.00    +0.000 C 
BRANCH  10  12
ATOM     11  N   UNL     1       6.771   6.124  17.025  0.00  0.00    +0.000 N 
ATOM     12  C   UNL     1       5.559   5.978  16.325  0.00  0.00    +0.000 C 
ATOM     13  O   UNL     1       5.230   6.774  15.444  0.00  0.00    +0.000 OA
BRANCH  11  15
ATOM     14  C   UNL     1       7.864   8.158  17.984  0.00  0.00    +0.000 C 
ATOM     15  C   UNL     1       7.559   7.331  16.744  0.00  0.00    +0.000 C 
ENDBRANCH  11  15
BRANCH  11  16
ATOM     16  C   UNL     1       7.227   5.123  18.001  0.00  0.00    +0.000 C 
ATOM     17  C   UNL     1       6.909   5.350  19.469  0.00  0.00    +0.000 C 
ENDBRANCH  11  16
ENDBRANCH  10  12
ENDBRANCH   1  10
BRANCH   3  18
ATOM     18  S   UNL     1       1.905   7.689  20.075  0.00  0.00    +0.000 S 
BRANCH  18  19
ATOM     19  C   UNL     1       1.615   8.871  18.727  0.00  0.00    +0.000 C 
BRANCH  19  20
ATOM     20  C   UNL     1       1.316  10.252  19.287  0.00  0.00    +0.000 C 
ATOM     21  O   UNL     1       0.988  10.375  20.465  0.00  0.00    +0.000 OA
ATOM     22  N   UNL     1       1.470  11.283  18.370  0.00  0.00    +0.000 N 
ATOM     23  H   UNL     1       1.558  11.002  17.398  0.00  0.00    +0.000 HD
BRANCH  22  24
ATOM     24  C   UNL     1       1.195  12.646  18.611  0.00  0.00    +0.000 A 
ATOM     25  C   UNL     1      -0.089  13.186  18.526  0.00  0.00    +0.000 A 
ATOM     26  C   UNL     1      -0.292  14.562  18.621  0.00  0.00    +0.000 A 
ATOM     27  C   UNL     1       0.788  15.425  18.815  0.00  0.00    +0.000 A 
ATOM     28  C   UNL     1       0.585  16.910  18.796  0.00  0.00    +0.000 C 
ATOM     29  C   UNL     1       2.065  14.879  18.995  0.00  0.00    +0.000 A 
ATOM     30  C   UNL     1       2.264  13.496  18.904  0.00  0.00    +0.000 A 
ENDBRANCH  22  24
ENDBRANCH  19  20
ENDBRANCH  18  19
ENDBRANCH   3  18
TORSDOF 8
ENDMDL
MODEL 7
REMARK VINA RESULT:      -7.4      2.446      8.515
REMARK  Name = 
REMARK  11 active torsions:
REMARK  status: ('A' for Active; 'I' for Inactive)
REMARK    1  A    between atoms: C_1  and  C_2
REMARK    2  A    between atoms: C_2  and  N_3
REMARK    3  A    between atoms: N_3  and  C_4
REMARK    4  A    between atoms: C_4  and  C_5
REMARK    5  A    between atoms: C_6  and  C_8
REMARK    6  A    between atoms: C_8  and  N_9
REMARK    7  A    between atoms: C_11  and  S_12
REMARK    8  A    between atoms: S_12  and  C_13
REMARK    9  A    between atoms: C_13  and  C_14
REMARK   10  A    between atoms: N_16  and  C_17
REMARK   11  A    between atoms: C_20  and  C_21
REMARK                            x       y       z     vdW  Elec       q    Type
REMARK                         _______ _______ _______ _____ _____    ______ ____
ROOT
ATOM      1  N   UNL     1       3.222   6.408  18.697  0.00  0.00    +0.000 N 
ATOM      2  C   UNL     1       4.520   6.632  19.091  0.00  0.00    +0.000 A 
ATOM      3  C   UNL     1       5.197   5.440  19.007  0.00  0.00    +0.000 A 
ATOM      4  C   UNL     1       4.279   4.438  18.571  0.00  0.00    +0.000 A 
ATOM      5  C   UNL     1       4.365   3.049  18.325  0.00  0.00    +0.000 A 
ATOM      6  C   UNL     1       3.234   2.341  17.906  0.00  0.00    +0.000 A 
ATOM      7  C   UNL     1       2.015   2.990  17.748  0.00  0.00    +0.000 A 
ATOM      8  C   UNL     1       1.895   4.363  17.992  0.00  0.00    +0.000 A 
ATOM      9  C   UNL     1       3.039   5.071  18.398  0.00  0.00    +0.000 A 
ENDROOT
BRANCH   1  10
ATOM     10  C   UNL     1       2.187   7.433  18.691  0.00  0.00    +0.000 C 
BRANCH  10  12
ATOM     11  N   UNL     1       1.143   9.011  20.322  0.00  0.00    +0.000 N 
ATOM     12  C   UNL     1       1.612   7.707  20.080  0.00  0.00    +0.000 C 
ATOM     13  O   UNL     1       1.558   6.836  20.950  0.00  0.00    +0.000 OA
BRANCH  11  15
ATOM     14  C   UNL     1      -0.106  10.597  21.798  0.00  0.00    +0.000 C 
ATOM     15  C   UNL     1       0.706   9.316  21.692  0.00  0.00    +0.000 C 
ENDBRANCH  11  15
BRANCH  11  16
ATOM     16  C   UNL     1       1.100  10.028  19.262  0.00  0.00    +0.000 C 
ATOM     17  C   UNL     1      -0.090  10.036  18.318  0.00  0.00    +0.000 C 
ENDBRANCH  11  16
ENDBRANCH  10  12
ENDBRANCH   1  10
BRANCH   3  18
ATOM     18  S   UNL     1       6.876   5.229  19.431  0.00  0.00    +0.000 S 
BRANCH  18  19
ATOM     19  C   UNL     1       7.683   6.368  18.269  0.00  0.00    +0.000 C 
BRANCH  19  20
ATOM     20  C   UNL     1       7.051   6.254  16.891  0.00  0.00    +0.000 C 
ATOM     21  O   UNL     1       6.468   7.220  16.405  0.00  0.00    +0.000 OA
ATOM     22  N   UNL     1       7.225   5.016  16.286  0.00  0.00    +0.000 N 
ATOM     23  H   UNL     1       7.559   4.271  16.890  0.00  0.00    +0.000 HD
BRANCH  22  24
ATOM     24  C   UNL     1       6.687   4.625  15.042  0.00  0.00    +0.000 A 
ATOM     25  C   UNL     1       5.394   4.122  14.899  0.00  0.00    +0.000 A 
ATOM     26  C   UNL     1       4.958   3.606  13.680  0.00  0.00    +0.000 A 
ATOM     27  C   UNL     1       5.808   3.598  12.571  0.00  0.00    +0.000 A 
ATOM     28  C   UNL     1       5.383   2.936  11.295  0.00  0.00    +0.000 C 
ATOM     29  C   UNL     1       7.072   4.189  12.685  0.00  0.00    +0.000 A 
ATOM     30  C   UNL     1       7.504   4.709  13.911  0.00  0.00    +0.000 A 
ENDBRANCH  22  24
ENDBRANCH  19  20
ENDBRANCH  18  19
ENDBRANCH   3  18
TORSDOF 8
ENDMDL
MODEL 8
REMARK VINA RESULT:      -7.3      2.552      7.444
REMARK  Name = 
REMARK  11 active torsions:
REMARK  status: ('A' for Active; 'I' for Inactive)
REMARK    1  A    between atoms: C_1  and  C_2
REMARK    2  A    between atoms: C_2  and  N_3
REMARK    3  A    between atoms: N_3  and  C_4
REMARK    4  A    between atoms: C_4  and  C_5
REMARK    5  A    between atoms: C_6  and  C_8
REMARK    6  A    between atoms: C_8  and  N_9
REMARK    7  A    between atoms: C_11  and  S_12
REMARK    8  A    between atoms: S_12  and  C_13
REMARK    9  A    between atoms: C_13  and  C_14
REMARK   10  A    between atoms: N_16  and  C_17
REMARK   11  A    between atoms: C_20  and  C_21
REMARK                            x       y       z     vdW  Elec       q    Type
REMARK                         _______ _______ _______ _____ _____    ______ ____
ROOT
ATOM      1  N   UNL     1       3.101   6.081  19.111  0.00  0.00    +0.000 N 
ATOM      2  C   UNL     1       4.420   6.325  18.812  0.00  0.00    +0.000 A 
ATOM      3  C   UNL     1       4.926   5.208  18.197  0.00  0.00    +0.000 A 
ATOM      4  C   UNL     1       3.892   4.227  18.136  0.00  0.00    +0.000 A 
ATOM      5  C   UNL     1       3.804   2.901  17.654  0.00  0.00    +0.000 A 
ATOM      6  C   UNL     1       2.603   2.193  17.765  0.00  0.00    +0.000 A 
ATOM      7  C   UNL     1       1.494   2.778  18.366  0.00  0.00    +0.000 A 
ATOM      8  C   UNL     1       1.551   4.086  18.860  0.00  0.00    +0.000 A 
ATOM      9  C   UNL     1       2.757   4.796  18.732  0.00  0.00    +0.000 A 
ENDROOT
BRANCH   1  10
ATOM     10  C   UNL     1       2.237   7.024  19.807  0.00  0.00    +0.000 C 
BRANCH  10  12
ATOM     11  N   UNL     1       1.158   9.266  19.580  0.00  0.00    +0.000 N 
ATOM     12  C   UNL     1       1.815   8.204  18.932  0.00  0.00    +0.000 C 
ATOM     13  O   UNL     1       2.035   8.231  17.720  0.00  0.00    +0.000 OA
BRANCH  11  15
ATOM     14  C   UNL     1       0.601  11.698  19.418  0.00  0.00    +0.000 C 
ATOM     15  C   UNL     1       0.639  10.344  18.727  0.00  0.00    +0.000 C 
ENDBRANCH  11  15
BRANCH  11  16
ATOM     16  C   UNL     1       0.987   9.296  21.040  0.00  0.00    +0.000 C 
ATOM     17  C   UNL     1      -0.314   8.771  21.624  0.00  0.00    +0.000 C 
ENDBRANCH  11  16
ENDBRANCH  10  12
ENDBRANCH   1  10
BRANCH   3  18
ATOM     18  S   UNL     1       6.578   5.044  17.656  0.00  0.00    +0.000 S 
BRANCH  18  19
ATOM     19  C   UNL     1       6.879   6.683  16.933  0.00  0.00    +0.000 C 
BRANCH  19  20
ATOM     20  C   UNL     1       7.763   7.512  17.850  0.00  0.00    +0.000 C 
ATOM     21  O   UNL     1       8.340   6.975  18.793  0.00  0.00    +0.000 OA
ATOM     22  N   UNL     1       7.846   8.853  17.499  0.00  0.00    +0.000 N 
ATOM     23  H   UNL     1       7.166   9.175  16.817  0.00  0.00    +0.000 HD
BRANCH  22  24
ATOM     24  C   UNL     1       8.542   9.850  18.215  0.00  0.00    +0.000 A 
ATOM     25  C   UNL     1       9.074   9.637  19.487  0.00  0.00    +0.000 A 
ATOM     26  C   UNL     1       9.618  10.692  20.219  0.00  0.00    +0.000 A 
ATOM     27  C   UNL     1       9.651  11.981  19.684  0.00  0.00    +0.000 A 
ATOM     28  C   UNL     1      10.124  13.135  20.516  0.00  0.00    +0.000 C 
ATOM     29  C   UNL     1       9.205  12.180  18.372  0.00  0.00    +0.000 A 
ATOM     30  C   UNL     1       8.664  11.117  17.639  0.00  0.00    +0.000 A 
ENDBRANCH  22  24
ENDBRANCH  19  20
ENDBRANCH  18  19
ENDBRANCH   3  18
TORSDOF 8
ENDMDL
MODEL 9
REMARK VINA RESULT:      -7.3      1.646      2.257
REMARK  Name = 
REMARK  11 active torsions:
REMARK  status: ('A' for Active; 'I' for Inactive)
REMARK    1  A    between atoms: C_1  and  C_2
REMARK    2  A    between atoms: C_2  and  N_3
REMARK    3  A    between atoms: N_3  and  C_4
REMARK    4  A    between atoms: C_4  and  C_5
REMARK    5  A    between atoms: C_6  and  C_8
REMARK    6  A    between atoms: C_8  and  N_9
REMARK    7  A    between atoms: C_11  and  S_12
REMARK    8  A    between atoms: S_12  and  C_13
REMARK    9  A    between atoms: C_13  and  C_14
REMARK   10  A    between atoms: N_16  and  C_17
REMARK   11  A    between atoms: C_20  and  C_21
REMARK                            x       y       z     vdW  Elec       q    Type
REMARK                         _______ _______ _______ _____ _____    ______ ____
ROOT
ATOM      1  N   UNL     1       4.312   4.954  19.359  0.00  0.00    +0.000 N 
ATOM      2  C   UNL     1       3.945   6.271  19.219  0.00  0.00    +0.000 A 
ATOM      3  C   UNL     1       2.630   6.384  19.595  0.00  0.00    +0.000 A 
ATOM      4  C   UNL     1       2.158   5.086  19.955  0.00  0.00    +0.000 A 
ATOM      5  C   UNL     1       0.919   4.563  20.391  0.00  0.00    +0.000 A 
ATOM      6  C   UNL     1       0.790   3.196  20.653  0.00  0.00    +0.000 A 
ATOM      7  C   UNL     1       1.869   2.338  20.469  0.00  0.00    +0.000 A 
ATOM      8  C   UNL     1       3.106   2.824  20.030  0.00  0.00    +0.000 A 
ATOM      9  C   UNL     1       3.232   4.202  19.783  0.00  0.00    +0.000 A 
ENDROOT
BRANCH   1  10
ATOM     10  C   UNL     1       5.630   4.436  19.018  0.00  0.00    +0.000 C 
BRANCH  10  12
ATOM     11  N   UNL     1       6.765   5.037  16.875  0.00  0.00    +0.000 N 
ATOM     12  C   UNL     1       5.814   4.221  17.516  0.00  0.00    +0.000 C 
ATOM     13  O   UNL     1       5.168   3.379  16.891  0.00  0.00    +0.000 OA
BRANCH  11  15
ATOM     14  C   UNL     1       5.643   5.479  14.684  0.00  0.00    +0.000 C 
ATOM     15  C   UNL     1       6.857   4.924  15.413  0.00  0.00    +0.000 C 
ENDBRANCH  11  15
BRANCH  11  16
ATOM     16  C   UNL     1       7.620   5.968  17.625  0.00  0.00    +0.000 C 
ATOM     17  C   UNL     1       7.349   7.457  17.497  0.00  0.00    +0.000 C 
ENDBRANCH  11  16
ENDBRANCH  10  12
ENDBRANCH   1  10
BRANCH   3  18
ATOM     18  S   UNL     1       1.720   7.873  19.560  0.00  0.00    +0.000 S 
BRANCH  18  19
ATOM     19  C   UNL     1       1.514   8.205  21.334  0.00  0.00    +0.000 C 
BRANCH  19  20
ATOM     20  C   UNL     1       0.171   8.866  21.598  0.00  0.00    +0.000 C 
ATOM     21  O   UNL     1      -0.816   8.171  21.826  0.00  0.00    +0.000 OA
ATOM     22  N   UNL     1       0.205  10.253  21.573  0.00  0.00    +0.000 N 
ATOM     23  H   UNL     1       1.047  10.669  21.185  0.00  0.00    +0.000 HD
BRANCH  22  24
ATOM     24  C   UNL     1      -0.909  11.107  21.721  0.00  0.00    +0.000 A 
ATOM     25  C   UNL     1      -1.437  11.853  20.668  0.00  0.00    +0.000 A 
ATOM     26  C   UNL     1      -2.439  12.796  20.893  0.00  0.00    +0.000 A 
ATOM     27  C   UNL     1      -2.941  13.001  22.179  0.00  0.00    +0.000 A 
ATOM     28  C   UNL     1      -3.930  14.098  22.441  0.00  0.00    +0.000 C 
ATOM     29  C   UNL     1      -2.480  12.188  23.222  0.00  0.00    +0.000 A 
ATOM     30  C   UNL     1      -1.478  11.239  22.991  0.00  0.00    +0.000 A 
ENDBRANCH  22  24
ENDBRANCH  19  20
ENDBRANCH  18  19
ENDBRANCH   3  18
TORSDOF 8
ENDMDL
