MODEL 1
REMARK VINA RESULT:      -7.3      0.000      0.000
REMARK  Name = 
REMARK  4 active torsions:
REMARK  status: ('A' for Active; 'I' for Inactive)
REMARK    1  A    between atoms: C_1  and  N_2
REMARK    2  A    between atoms: C_4  and  O_5
REMARK    3  A    between atoms: N_12  and  C_13
REMARK    4  A    between atoms: C_13  and  C_14
REMARK                            x       y       z     vdW  Elec       q    Type
REMARK                         _______ _______ _______ _____ _____    ______ ____
ROOT
ATOM      1  C   UNL     1       0.788   3.943  19.883  0.00  0.00    +0.000 C 
ATOM      2  N   UNL     1       2.079   3.492  19.321  0.00  0.00    +0.000 NA
ATOM      3  C   UNL     1       2.789   2.542  20.186  0.00  0.00    +0.000 C 
ATOM      4  C   UNL     1       4.231   2.434  19.649  0.00  0.00    +0.000 C 
ATOM      5  C   UNL     1       4.636   3.715  18.873  0.00  0.00    +0.000 C 
ATOM      6  C   UNL     1       5.868   4.456  19.425  0.00  0.00    +0.000 C 
ATOM      7  C   UNL     1       6.544   5.099  18.223  0.00  0.00    +0.000 C 
ATOM      8  N   UNL     1       5.917   4.524  17.052  0.00  0.00    +0.000 N 
ATOM      9  C   UNL     1       6.344   4.924  15.806  0.00  0.00    +0.000 C 
ATOM     10  O   UNL     1       7.245   5.742  15.665  0.00  0.00    +0.000 OA
ATOM     11  N   UNL     1       5.714   4.333  14.746  0.00  0.00    +0.000 N 
ATOM     12  C   UNL     1       5.028   3.429  17.419  0.00  0.00    +0.000 C 
ATOM     13  S   UNL     1       3.155   4.752  18.897  0.00  0.00    +0.000 S 
ATOM     14  O   UNL     1       2.771   5.223  17.590  0.00  0.00    +0.000 OA
ATOM     15  O   UNL     1       3.216   5.634  20.044  0.00  0.00    +0.000 OA
ATOM     16  H   UNL     1       4.738   4.138  14.891  0.00  0.00    +0.000 HD
ENDROOT
BRANCH   4  17
ATOM     17  O   UNL     1       5.111   2.133  20.739  0.00  0.00    +0.000 OA
ATOM     18  H   UNL     1       5.950   2.615  20.619  0.00  0.00    +0.000 HD
ENDBRANCH   4  17
BRANCH  11  19
ATOM     19  C   UNL     1       6.060   4.749  13.400  0.00  0.00    +0.000 C 
BRANCH  19  20
ATOM     20  C   UNL     1       6.204   3.570  12.474  0.00  0.00    +0.000 A 
ATOM     21  C   UNL     1       7.461   3.185  11.988  0.00  0.00    +0.000 A 
ATOM     22  C   UNL     1       7.580   2.101  11.115  0.00  0.00    +0.000 A 
ATOM     23  C   UNL     1       6.447   1.393  10.718  0.00  0.00    +0.000 A 
ATOM     24  C   UNL     1       5.192   1.762  11.201  0.00  0.00    +0.000 A 
ATOM     25  C   UNL     1       5.071   2.846  12.073  0.00  0.00    +0.000 A 
ENDBRANCH  19  20
ENDBRANCH  11  19
TORSDOF 3
ENDMDL
MODEL 2
REMARK VINA RESULT:      -7.2      0.225      1.030
REMARK  Name = 
REMARK  4 active torsions:
REMARK  status: ('A' for Active; 'I' for Inactive)
REMARK    1  A    between atoms: C_1  and  N_2
REMARK    2  A    between atoms: C_4  and  O_5
REMARK    3  A    between atoms: N_12  and  C_13
REMARK    4  A    between atoms: C_13  and  C_14
REMARK                            x       y       z     vdW  Elec       q    Type
REMARK                         _______ _______ _______ _____ _____    ______ ____
ROOT
ATOM      1  C   UNL     1       0.929   4.337  19.996  0.00  0.00    +0.000 C 
ATOM      2  N   UNL     1       2.142   3.778  19.365  0.00  0.00    +0.000 NA
ATOM      3  C   UNL     1       2.812   2.763  20.190  0.00  0.00    +0.000 C 
ATOM      4  C   UNL     1       4.208   2.533  19.575  0.00  0.00    +0.000 C 
ATOM      5  C   UNL     1       4.681   3.777  18.780  0.00  0.00    +0.000 C 
ATOM      6  C   UNL     1       6.002   4.404  19.265  0.00  0.00    +0.000 C 
ATOM      7  C   UNL     1       6.666   4.992  18.029  0.00  0.00    +0.000 C 
ATOM      8  N   UNL     1       5.929   4.481  16.893  0.00  0.00    +0.000 N 
ATOM      9  C   UNL     1       6.321   4.849  15.627  0.00  0.00    +0.000 C 
ATOM     10  O   UNL     1       7.282   5.585  15.438  0.00  0.00    +0.000 OA
ATOM     11  N   UNL     1       5.586   4.322  14.602  0.00  0.00    +0.000 N 
ATOM     12  C   UNL     1       4.968   3.466  17.306  0.00  0.00    +0.000 C 
ATOM     13  S   UNL     1       3.301   4.940  18.885  0.00  0.00    +0.000 S 
ATOM     14  O   UNL     1       2.891   5.451  17.601  0.00  0.00    +0.000 OA
ATOM     15  O   UNL     1       3.501   5.807  20.027  0.00  0.00    +0.000 OA
ATOM     16  H   UNL     1       4.606   4.213  14.799  0.00  0.00    +0.000 HD
ENDROOT
BRANCH   4  17
ATOM     17  O   UNL     1       5.115   2.149  20.616  0.00  0.00    +0.000 OA
ATOM     18  H   UNL     1       4.636   1.627  21.285  0.00  0.00    +0.000 HD
ENDBRANCH   4  17
BRANCH  11  19
ATOM     19  C   UNL     1       5.895   4.714  13.239  0.00  0.00    +0.000 C 
BRANCH  19  20
ATOM     20  C   UNL     1       6.145   3.516  12.361  0.00  0.00    +0.000 A 
ATOM     21  C   UNL     1       5.093   2.677  11.969  0.00  0.00    +0.000 A 
ATOM     22  C   UNL     1       5.339   1.559  11.170  0.00  0.00    +0.000 A 
ATOM     23  C   UNL     1       6.637   1.267  10.756  0.00  0.00    +0.000 A 
ATOM     24  C   UNL     1       7.691   2.097  11.132  0.00  0.00    +0.000 A 
ATOM     25  C   UNL     1       7.447   3.215  11.932  0.00  0.00    +0.000 A 
ENDBRANCH  19  20
ENDBRANCH  11  19
TORSDOF 3
ENDMDL
MODEL 3
REMARK VINA RESULT:      -7.2      1.962      2.575
REMARK  Name = 
REMARK  4 active torsions:
REMARK  status: ('A' for Active; 'I' for Inactive)
REMARK    1  A    between atoms: C_1  and  N_2
REMARK    2  A    between atoms: C_4  and  O_5
REMARK    3  A    between atoms: N_12  and  C_13
REMARK    4  A    between atoms: C_13  and  C_14
REMARK                            x       y       z     vdW  Elec       q    Type
REMARK                         _______ _______ _______ _____ _____    ______ ____
ROOT
ATOM      1  C   UNL     1       0.830   1.692  18.963  0.00  0.00    +0.000 C 
ATOM      2  N   UNL     1       1.900   2.688  19.178  0.00  0.00    +0.000 NA
ATOM      3  C   UNL     1       1.802   3.376  20.473  0.00  0.00    +0.000 C 
ATOM      4  C   UNL     1       2.749   4.592  20.408  0.00  0.00    +0.000 C 
ATOM      5  C   UNL     1       2.972   5.051  18.943  0.00  0.00    +0.000 C 
ATOM      6  C   UNL     1       2.562   6.505  18.641  0.00  0.00    +0.000 C 
ATOM      7  C   UNL     1       3.507   6.988  17.550  0.00  0.00    +0.000 C 
ATOM      8  N   UNL     1       4.554   5.993  17.453  0.00  0.00    +0.000 N 
ATOM      9  C   UNL     1       5.564   6.179  16.538  0.00  0.00    +0.000 C 
ATOM     10  O   UNL     1       5.605   7.168  15.815  0.00  0.00    +0.000 OA
ATOM     11  N   UNL     1       6.523   5.205  16.507  0.00  0.00    +0.000 N 
ATOM     12  C   UNL     1       4.446   5.014  18.527  0.00  0.00    +0.000 C 
ATOM     13  S   UNL     1       2.042   3.864  17.946  0.00  0.00    +0.000 S 
ATOM     14  O   UNL     1       2.822   3.282  16.883  0.00  0.00    +0.000 OA
ATOM     15  O   UNL     1       0.707   4.380  17.724  0.00  0.00    +0.000 OA
ATOM     16  H   UNL     1       6.184   4.274  16.681  0.00  0.00    +0.000 HD
ENDROOT
BRANCH   4  17
ATOM     17  O   UNL     1       2.231   5.629  21.252  0.00  0.00    +0.000 OA
ATOM     18  H   UNL     1       2.969   6.166  21.593  0.00  0.00    +0.000 HD
ENDBRANCH   4  17
BRANCH  11  19
ATOM     19  C   UNL     1       7.586   5.295  15.524  0.00  0.00    +0.000 C 
BRANCH  19  20
ATOM     20  C   UNL     1       7.161   4.729  14.194  0.00  0.00    +0.000 A 
ATOM     21  C   UNL     1       7.839   5.070  13.016  0.00  0.00    +0.000 A 
ATOM     22  C   UNL     1       7.425   4.555  11.787  0.00  0.00    +0.000 A 
ATOM     23  C   UNL     1       6.329   3.696  11.721  0.00  0.00    +0.000 A 
ATOM     24  C   UNL     1       5.651   3.343  12.886  0.00  0.00    +0.000 A 
ATOM     25  C   UNL     1       6.064   3.858  14.116  0.00  0.00    +0.000 A 
ENDBRANCH  19  20
ENDBRANCH  11  19
TORSDOF 3
ENDMDL
MODEL 4
REMARK VINA RESULT:      -7.1      1.946      2.731
REMARK  Name = 
REMARK  4 active torsions:
REMARK  status: ('A' for Active; 'I' for Inactive)
REMARK    1  A    between atoms: C_1  and  N_2
REMARK    2  A    between atoms: C_4  and  O_5
REMARK    3  A    between atoms: N_12  and  C_13
REMARK    4  A    between atoms: C_13  and  C_14
REMARK                            x       y       z     vdW  Elec       q    Type
REMARK                         _______ _______ _______ _____ _____    ______ ____
ROOT
ATOM      1  C   UNL     1       1.095   1.517  19.170  0.00  0.00    +0.000 C 
ATOM      2  N   UNL     1       2.101   2.589  19.322  0.00  0.00    +0.000 NA
ATOM      3  C   UNL     1       1.968   3.338  20.579  0.00  0.00    +0.000 C 
ATOM      4  C   UNL     1       2.835   4.606  20.442  0.00  0.00    +0.000 C 
ATOM      5  C   UNL     1       3.020   4.999  18.953  0.00  0.00    +0.000 C 
ATOM      6  C   UNL     1       2.518   6.406  18.578  0.00  0.00    +0.000 C 
ATOM      7  C   UNL     1       3.424   6.889  17.455  0.00  0.00    +0.000 C 
ATOM      8  N   UNL     1       4.531   5.958  17.401  0.00  0.00    +0.000 N 
ATOM      9  C   UNL     1       5.523   6.158  16.468  0.00  0.00    +0.000 C 
ATOM     10  O   UNL     1       5.497   7.106  15.693  0.00  0.00    +0.000 OA
ATOM     11  N   UNL     1       6.541   5.245  16.481  0.00  0.00    +0.000 N 
ATOM     12  C   UNL     1       4.492   5.032  18.526  0.00  0.00    +0.000 C 
ATOM     13  S   UNL     1       2.162   3.704  18.028  0.00  0.00    +0.000 S 
ATOM     14  O   UNL     1       2.972   3.116  16.990  0.00  0.00    +0.000 OA
ATOM     15  O   UNL     1       0.796   4.122  17.791  0.00  0.00    +0.000 OA
ATOM     16  H   UNL     1       6.263   4.305  16.706  0.00  0.00    +0.000 HD
ENDROOT
BRANCH   4  17
ATOM     17  O   UNL     1       2.258   5.651  21.234  0.00  0.00    +0.000 OA
ATOM     18  H   UNL     1       1.531   5.285  21.771  0.00  0.00    +0.000 HD
ENDBRANCH   4  17
BRANCH  11  19
ATOM     19  C   UNL     1       7.591   5.349  15.484  0.00  0.00    +0.000 C 
BRANCH  19  20
ATOM     20  C   UNL     1       7.159   4.773  14.161  0.00  0.00    +0.000 A 
ATOM     21  C   UNL     1       6.128   3.827  14.089  0.00  0.00    +0.000 A 
ATOM     22  C   UNL     1       5.748   3.287  12.859  0.00  0.00    +0.000 A 
ATOM     23  C   UNL     1       6.395   3.683  11.690  0.00  0.00    +0.000 A 
ATOM     24  C   UNL     1       7.417   4.629  11.747  0.00  0.00    +0.000 A 
ATOM     25  C   UNL     1       7.798   5.170  12.977  0.00  0.00    +0.000 A 
ENDBRANCH  19  20
ENDBRANCH  11  19
TORSDOF 3
ENDMDL
MODEL 5
REMARK VINA RESULT:      -6.9      4.426      7.490
REMARK  Name = 
REMARK  4 active torsions:
REMARK  status: ('A' for Active; 'I' for Inactive)
REMARK    1  A    between atoms: C_1  and  N_2
REMARK    2  A    between atoms: C_4  and  O_5
REMARK    3  A    between atoms: N_12  and  C_13
REMARK    4  A    between atoms: C_13  and  C_14
REMARK                            x       y       z     vdW  Elec       q    Type
REMARK                         _______ _______ _______ _____ _____    ______ ____
ROOT
ATOM      1  C   UNL     1       1.294   2.299  21.970  0.00  0.00    +0.000 C 
ATOM      2  N   UNL     1       1.331   2.923  20.631  0.00  0.00    +0.000 NA
ATOM      3  C   UNL     1       1.213   1.953  19.534  0.00  0.00    +0.000 C 
ATOM      4  C   UNL     1       1.606   2.691  18.237  0.00  0.00    +0.000 C 
ATOM      5  C   UNL     1       2.545   3.889  18.538  0.00  0.00    +0.000 C 
ATOM      6  C   UNL     1       3.920   3.836  17.845  0.00  0.00    +0.000 C 
ATOM      7  C   UNL     1       4.318   5.282  17.591  0.00  0.00    +0.000 C 
ATOM      8  N   UNL     1       3.135   6.077  17.848  0.00  0.00    +0.000 N 
ATOM      9  C   UNL     1       3.204   7.441  17.688  0.00  0.00    +0.000 C 
ATOM     10  O   UNL     1       4.234   7.996  17.323  0.00  0.00    +0.000 OA
ATOM     11  N   UNL     1       2.048   8.127  17.939  0.00  0.00    +0.000 N 
ATOM     12  C   UNL     1       1.970   5.227  18.062  0.00  0.00    +0.000 C 
ATOM     13  S   UNL     1       2.695   3.912  20.339  0.00  0.00    +0.000 S 
ATOM     14  O   UNL     1       2.421   5.205  20.915  0.00  0.00    +0.000 OA
ATOM     15  O   UNL     1       3.851   3.130  20.725  0.00  0.00    +0.000 OA
ATOM     16  H   UNL     1       1.487   7.749  18.683  0.00  0.00    +0.000 HD
ENDROOT
BRANCH   4  17
ATOM     17  O   UNL     1       2.172   1.746  17.320  0.00  0.00    +0.000 OA
ATOM     18  H   UNL     1       1.851   1.940  16.420  0.00  0.00    +0.000 HD
ENDBRANCH   4  17
BRANCH  11  19
ATOM     19  C   UNL     1       2.057   9.576  17.856  0.00  0.00    +0.000 C 
BRANCH  19  20
ATOM     20  C   UNL     1       0.842  10.176  18.513  0.00  0.00    +0.000 A 
ATOM     21  C   UNL     1      -0.437   9.989  17.971  0.00  0.00    +0.000 A 
ATOM     22  C   UNL     1      -1.554  10.566  18.578  0.00  0.00    +0.000 A 
ATOM     23  C   UNL     1      -1.406  11.336  19.730  0.00  0.00    +0.000 A 
ATOM     24  C   UNL     1      -0.140  11.523  20.284  0.00  0.00    +0.000 A 
ATOM     25  C   UNL     1       0.978  10.948  19.677  0.00  0.00    +0.000 A 
ENDBRANCH  19  20
ENDBRANCH  11  19
TORSDOF 3
ENDMDL
MODEL 6
REMARK VINA RESULT:      -6.7      5.103      8.154
REMARK  Name = 
REMARK  4 active torsions:
REMARK  status: ('A' for Active; 'I' for Inactive)
REMARK    1  A    between atoms: C_1  and  N_2
REMARK    2  A    between atoms: C_4  and  O_5
REMARK    3  A    between atoms: N_12  and  C_13
REMARK    4  A    between atoms: C_13  and  C_14
REMARK                            x       y       z     vdW  Elec       q    Type
REMARK                         _______ _______ _______ _____ _____    ______ ____
ROOT
ATOM      1  C   UNL     1       1.457   2.785  21.319  0.00  0.00    +0.000 C 
ATOM      2  N   UNL     1       1.355   3.593  20.086  0.00  0.00    +0.000 NA
ATOM      3  C   UNL     1       1.547   2.809  18.859  0.00  0.00    +0.000 C 
ATOM      4  C   UNL     1       1.754   3.815  17.709  0.00  0.00    +0.000 C 
ATOM      5  C   UNL     1       2.307   5.164  18.239  0.00  0.00    +0.000 C 
ATOM      6  C   UNL     1       3.661   5.598  17.644  0.00  0.00    +0.000 C 
ATOM      7  C   UNL     1       3.641   7.120  17.623  0.00  0.00    +0.000 C 
ATOM      8  N   UNL     1       2.276   7.509  17.904  0.00  0.00    +0.000 N 
ATOM      9  C   UNL     1       1.961   8.848  17.940  0.00  0.00    +0.000 C 
ATOM     10  O   UNL     1       2.802   9.714  17.730  0.00  0.00    +0.000 OA
ATOM     11  N   UNL     1       0.651   9.143  18.201  0.00  0.00    +0.000 N 
ATOM     12  C   UNL     1       1.392   6.350  17.914  0.00  0.00    +0.000 C 
ATOM     13  S   UNL     1       2.392   4.951  20.032  0.00  0.00    +0.000 S 
ATOM     14  O   UNL     1       1.747   6.015  20.761  0.00  0.00    +0.000 OA
ATOM     15  O   UNL     1       3.711   4.468  20.387  0.00  0.00    +0.000 OA
ATOM     16  H   UNL     1       0.198   8.515  18.844  0.00  0.00    +0.000 HD
ENDROOT
BRANCH   4  17
ATOM     17  O   UNL     1       2.590   3.215  16.711  0.00  0.00    +0.000 OA
ATOM     18  H   UNL     1       2.364   2.271  16.627  0.00  0.00    +0.000 HD
ENDBRANCH   4  17
BRANCH  11  19
ATOM     19  C   UNL     1       0.253  10.533  18.322  0.00  0.00    +0.000 C 
BRANCH  19  20
ATOM     20  C   UNL     1      -1.228  10.706  18.110  0.00  0.00    +0.000 A 
ATOM     21  C   UNL     1      -1.958  11.644  18.852  0.00  0.00    +0.000 A 
ATOM     22  C   UNL     1      -3.334  11.783  18.661  0.00  0.00    +0.000 A 
ATOM     23  C   UNL     1      -3.995  10.985  17.729  0.00  0.00    +0.000 A 
ATOM     24  C   UNL     1      -3.280  10.053  16.979  0.00  0.00    +0.000 A 
ATOM     25  C   UNL     1      -1.904   9.913  17.170  0.00  0.00    +0.000 A 
ENDBRANCH  19  20
ENDBRANCH  11  19
TORSDOF 3
ENDMDL
MODEL 7
REMARK VINA RESULT:      -6.7      5.115      8.167
REMARK  Name = 
REMARK  4 active torsions:
REMARK  status: ('A' for Active; 'I' for Inactive)
REMARK    1  A    between atoms: C_1  and  N_2
REMARK    2  A    between atoms: C_4  and  O_5
REMARK    3  A    between atoms: N_12  and  C_13
REMARK    4  A    between atoms: C_13  and  C_14
REMARK                            x       y       z     vdW  Elec       q    Type
REMARK                         _______ _______ _______ _____ _____    ______ ____
ROOT
ATOM      1  C   UNL     1       1.506   2.807  21.333  0.00  0.00    +0.000 C 
ATOM      2  N   UNL     1       1.394   3.609  20.098  0.00  0.00    +0.000 NA
ATOM      3  C   UNL     1       1.593   2.822  18.873  0.00  0.00    +0.000 C 
ATOM      4  C   UNL     1       1.788   3.827  17.719  0.00  0.00    +0.000 C 
ATOM      5  C   UNL     1       2.328   5.183  18.243  0.00  0.00    +0.000 C 
ATOM      6  C   UNL     1       3.676   5.629  17.646  0.00  0.00    +0.000 C 
ATOM      7  C   UNL     1       3.641   7.150  17.619  0.00  0.00    +0.000 C 
ATOM      8  N   UNL     1       2.272   7.526  17.900  0.00  0.00    +0.000 N 
ATOM      9  C   UNL     1       1.944   8.862  17.931  0.00  0.00    +0.000 C 
ATOM     10  O   UNL     1       2.776   9.736  17.717  0.00  0.00    +0.000 OA
ATOM     11  N   UNL     1       0.632   9.144  18.194  0.00  0.00    +0.000 N 
ATOM     12  C   UNL     1       1.400   6.358  17.915  0.00  0.00    +0.000 C 
ATOM     13  S   UNL     1       2.418   4.978  20.037  0.00  0.00    +0.000 S 
ATOM     14  O   UNL     1       1.763   6.037  20.763  0.00  0.00    +0.000 OA
ATOM     15  O   UNL     1       3.741   4.509  20.392  0.00  0.00    +0.000 OA
ATOM     16  H   UNL     1       0.186   8.514  18.839  0.00  0.00    +0.000 HD
ENDROOT
BRANCH   4  17
ATOM     17  O   UNL     1       2.629   3.231  16.723  0.00  0.00    +0.000 OA
ATOM     18  H   UNL     1       2.114   3.096  15.906  0.00  0.00    +0.000 HD
ENDBRANCH   4  17
BRANCH  11  19
ATOM     19  C   UNL     1       0.219  10.531  18.309  0.00  0.00    +0.000 C 
BRANCH  19  20
ATOM     20  C   UNL     1      -1.264  10.687  18.100  0.00  0.00    +0.000 A 
ATOM     21  C   UNL     1      -1.941   9.923  17.140  0.00  0.00    +0.000 A 
ATOM     22  C   UNL     1      -3.313  10.090  16.942  0.00  0.00    +0.000 A 
ATOM     23  C   UNL     1      -4.022  11.022  17.698  0.00  0.00    +0.000 A 
ATOM     24  C   UNL     1      -3.361  11.783  18.661  0.00  0.00    +0.000 A 
ATOM     25  C   UNL     1      -1.989  11.618  18.860  0.00  0.00    +0.000 A 
ENDBRANCH  19  20
ENDBRANCH  11  19
TORSDOF 3
ENDMDL
MODEL 8
REMARK VINA RESULT:      -6.7      1.774      2.120
REMARK  Name = 
REMARK  4 active torsions:
REMARK  status: ('A' for Active; 'I' for Inactive)
REMARK    1  A    between atoms: C_1  and  N_2
REMARK    2  A    between atoms: C_4  and  O_5
REMARK    3  A    between atoms: N_12  and  C_13
REMARK    4  A    between atoms: C_13  and  C_14
REMARK                            x       y       z     vdW  Elec       q    Type
REMARK                         _______ _______ _______ _____ _____    ______ ____
ROOT
ATOM      1  C   UNL     1       0.826   1.510  18.957  0.00  0.00    +0.000 C 
ATOM      2  N   UNL     1       1.988   2.422  18.998  0.00  0.00    +0.000 NA
ATOM      3  C   UNL     1       2.199   3.037  20.316  0.00  0.00    +0.000 C 
ATOM      4  C   UNL     1       3.201   4.193  20.118  0.00  0.00    +0.000 C 
ATOM      5  C   UNL     1       3.162   4.724  18.661  0.00  0.00    +0.000 C 
ATOM      6  C   UNL     1       2.808   6.216  18.514  0.00  0.00    +0.000 C 
ATOM      7  C   UNL     1       3.551   6.704  17.279  0.00  0.00    +0.000 C 
ATOM      8  N   UNL     1       4.482   5.653  16.927  0.00  0.00    +0.000 N 
ATOM      9  C   UNL     1       5.303   5.830  15.837  0.00  0.00    +0.000 C 
ATOM     10  O   UNL     1       5.272   6.855  15.167  0.00  0.00    +0.000 OA
ATOM     11  N   UNL     1       6.162   4.801  15.569  0.00  0.00    +0.000 N 
ATOM     12  C   UNL     1       4.519   4.620  17.955  0.00  0.00    +0.000 C 
ATOM     13  S   UNL     1       1.969   3.659  17.817  0.00  0.00    +0.000 S 
ATOM     14  O   UNL     1       2.479   3.094  16.593  0.00  0.00    +0.000 OA
ATOM     15  O   UNL     1       0.658   4.270  17.893  0.00  0.00    +0.000 OA
ATOM     16  H   UNL     1       5.797   3.885  15.764  0.00  0.00    +0.000 HD
ENDROOT
BRANCH   4  17
ATOM     17  O   UNL     1       2.937   5.207  21.096  0.00  0.00    +0.000 OA
ATOM     18  H   UNL     1       1.978   5.253  21.263  0.00  0.00    +0.000 HD
ENDBRANCH   4  17
BRANCH  11  19
ATOM     19  C   UNL     1       7.014   4.883  14.397  0.00  0.00    +0.000 C 
BRANCH  19  20
ATOM     20  C   UNL     1       6.495   4.024  13.273  0.00  0.00    +0.000 A 
ATOM     21  C   UNL     1       7.374   3.322  12.437  0.00  0.00    +0.000 A 
ATOM     22  C   UNL     1       6.882   2.544  11.388  0.00  0.00    +0.000 A 
ATOM     23  C   UNL     1       5.510   2.460  11.161  0.00  0.00    +0.000 A 
ATOM     24  C   UNL     1       4.625   3.147  11.989  0.00  0.00    +0.000 A 
ATOM     25  C   UNL     1       5.115   3.927  13.039  0.00  0.00    +0.000 A 
ENDBRANCH  19  20
ENDBRANCH  11  19
TORSDOF 3
ENDMDL
MODEL 9
REMARK VINA RESULT:      -6.6      6.165      8.627
REMARK  Name = 
REMARK  4 active torsions:
REMARK  status: ('A' for Active; 'I' for Inactive)
REMARK    1  A    between atoms: C_1  and  N_2
REMARK    2  A    between atoms: C_4  and  O_5
REMARK    3  A    between atoms: N_12  and  C_13
REMARK    4  A    between atoms: C_13  and  C_14
REMARK                            x       y       z     vdW  Elec       q    Type
REMARK                         _______ _______ _______ _____ _____    ______ ____
ROOT
ATOM      1  C   UNL     1      -3.282  12.198  19.698  0.00  0.00    +0.000 C 
ATOM      2  N   UNL     1      -1.938  11.666  20.006  0.00  0.00    +0.000 NA
ATOM      3  C   UNL     1      -1.198  12.482  20.978  0.00  0.00    +0.000 C 
ATOM      4  C   UNL     1       0.270  12.011  20.936  0.00  0.00    +0.000 C 
ATOM      5  C   UNL     1       0.613  11.369  19.566  0.00  0.00    +0.000 C 
ATOM      6  C   UNL     1       1.761  12.044  18.793  0.00  0.00    +0.000 C 
ATOM      7  C   UNL     1       2.441  10.938  18.000  0.00  0.00    +0.000 C 
ATOM      8  N   UNL     1       1.911   9.692  18.511  0.00  0.00    +0.000 N 
ATOM      9  C   UNL     1       2.362   8.508  17.973  0.00  0.00    +0.000 C 
ATOM     10  O   UNL     1       3.205   8.483  17.085  0.00  0.00    +0.000 OA
ATOM     11  N   UNL     1       1.825   7.371  18.510  0.00  0.00    +0.000 N 
ATOM     12  C   UNL     1       1.090   9.918  19.694  0.00  0.00    +0.000 C 
ATOM     13  S   UNL     1      -0.940  11.407  18.642  0.00  0.00    +0.000 S 
ATOM     14  O   UNL     1      -1.299  10.127  18.084  0.00  0.00    +0.000 OA
ATOM     15  O   UNL     1      -0.995  12.626  17.863  0.00  0.00    +0.000 OA
ATOM     16  H   UNL     1       0.860   7.449  18.785  0.00  0.00    +0.000 HD
ENDROOT
BRANCH   4  17
ATOM     17  O   UNL     1       1.121  13.115  21.271  0.00  0.00    +0.000 OA
ATOM     18  H   UNL     1       0.874  13.888  20.732  0.00  0.00    +0.000 HD
ENDBRANCH   4  17
BRANCH  11  19
ATOM     19  C   UNL     1       2.199   6.085  17.952  0.00  0.00    +0.000 C 
BRANCH  19  20
ATOM     20  C   UNL     1       1.869   4.955  18.892  0.00  0.00    +0.000 A 
ATOM     21  C   UNL     1       2.050   5.092  20.275  0.00  0.00    +0.000 A 
ATOM     22  C   UNL     1       1.759   4.031  21.135  0.00  0.00    +0.000 A 
ATOM     23  C   UNL     1       1.285   2.825  20.624  0.00  0.00    +0.000 A 
ATOM     24  C   UNL     1       1.093   2.678  19.251  0.00  0.00    +0.000 A 
ATOM     25  C   UNL     1       1.385   3.737  18.389  0.00  0.00    +0.000 A 
ENDBRANCH  19  20
ENDBRANCH  11  19
TORSDOF 3
ENDMDL
