MODEL 1
REMARK VINA RESULT:      -7.9      0.000      0.000
REMARK  Name = 
REMARK  5 active torsions:
REMARK  status: ('A' for Active; 'I' for Inactive)
REMARK    1  A    between atoms: N_2  and  C_4
REMARK    2  A    between atoms: C_9  and  C_10
REMARK    3  A    between atoms: N_11  and  N_12
REMARK    4  A    between atoms: C_13  and  S_14
REMARK    5  A    between atoms: C_17  and  C_18
REMARK                            x       y       z     vdW  Elec       q    Type
REMARK                         _______ _______ _______ _____ _____    ______ ____
ROOT
ATOM      1  C   UNL     1       4.937   4.158  17.763  0.00  0.00    +0.000 C 
ATOM      2  N   UNL     1       3.683   4.483  17.788  0.00  0.00    +0.000 NA
ENDROOT
BRANCH   1   8
ATOM      3  C   UNL     1       6.933   5.062  16.479  0.00  0.00    +0.000 A 
ATOM      4  C   UNL     1       7.629   5.279  15.279  0.00  0.00    +0.000 A 
ATOM      5  C   UNL     1       7.081   4.735  14.139  0.00  0.00    +0.000 A 
ATOM      6  C   UNL     1       5.908   4.017  14.165  0.00  0.00    +0.000 A 
ATOM      7  C   UNL     1       5.209   3.797  15.335  0.00  0.00    +0.000 A 
ATOM      8  C   UNL     1       5.731   4.327  16.525  0.00  0.00    +0.000 A 
ATOM      9  O   UNL     1       5.541   3.581  12.931  0.00  0.00    +0.000 OA
ATOM     10  C   UNL     1       6.620   4.094  12.123  0.00  0.00    +0.000 C 
ATOM     11  O   UNL     1       7.602   4.829  12.887  0.00  0.00    +0.000 OA
BRANCH   3  13
ATOM     12  O   UNL     1       8.027   4.768  18.471  0.00  0.00    +0.000 OA
ATOM     13  N   UNL     1       7.521   5.585  17.694  0.00  0.00    +0.000 N 
ATOM     14  O   UNL     1       7.466   6.809  17.864  0.00  0.00    +0.000 OA
ENDBRANCH   3  13
ENDBRANCH   1   8
BRANCH   2  15
ATOM     15  N   UNL     1       3.090   4.476  19.041  0.00  0.00    +0.000 N 
ATOM     16  C   UNL     1       2.895   3.342  19.803  0.00  0.00    +0.000 A 
ATOM     17  N   UNL     1       2.343   3.638  20.952  0.00  0.00    +0.000 NA
ATOM     18  N   UNL     1       2.090   4.985  20.947  0.00  0.00    +0.000 NA
ATOM     19  C   UNL     1       2.468   5.487  19.777  0.00  0.00    +0.000 A 
BRANCH  19  20
ATOM     20  C   UNL     1       2.224   6.861  19.346  0.00  0.00    +0.000 A 
ATOM     21  C   UNL     1       2.550   7.275  18.058  0.00  0.00    +0.000 A 
ATOM     22  C   UNL     1       2.279   8.590  17.690  0.00  0.00    +0.000 A 
ATOM     23  C   UNL     1       1.713   9.458  18.617  0.00  0.00    +0.000 A 
ATOM     24  C   UNL     1       1.443   8.973  19.882  0.00  0.00    +0.000 A 
ATOM     25  N   UNL     1       1.676   7.698  20.259  0.00  0.00    +0.000 NA
ENDBRANCH  19  20
BRANCH  16  26
ATOM     26  S   UNL     1       3.408   1.772  19.290  0.00  0.00    +0.000 S 
ATOM     27  H   UNL     1       4.728   2.021  19.290  0.00  0.00    +0.000 HD
ENDBRANCH  16  26
ENDBRANCH   2  15
TORSDOF 5
ENDMDL
MODEL 2
REMARK VINA RESULT:      -7.7      0.542      1.123
REMARK  Name = 
REMARK  5 active torsions:
REMARK  status: ('A' for Active; 'I' for Inactive)
REMARK    1  A    between atoms: N_2  and  C_4
REMARK    2  A    between atoms: C_9  and  C_10
REMARK    3  A    between atoms: N_11  and  N_12
REMARK    4  A    between atoms: C_13  and  S_14
REMARK    5  A    between atoms: C_17  and  C_18
REMARK                            x       y       z     vdW  Elec       q    Type
REMARK                         _______ _______ _______ _____ _____    ______ ____
ROOT
ATOM      1  C   UNL     1       4.972   4.217  17.879  0.00  0.00    +0.000 C 
ATOM      2  N   UNL     1       3.697   4.445  17.895  0.00  0.00    +0.000 NA
ENDROOT
BRANCH   1   8
ATOM      3  C   UNL     1       6.942   5.116  16.551  0.00  0.00    +0.000 A 
ATOM      4  C   UNL     1       7.618   5.320  15.338  0.00  0.00    +0.000 A 
ATOM      5  C   UNL     1       7.057   4.755  14.214  0.00  0.00    +0.000 A 
ATOM      6  C   UNL     1       5.890   4.029  14.269  0.00  0.00    +0.000 A 
ATOM      7  C   UNL     1       5.211   3.821  15.452  0.00  0.00    +0.000 A 
ATOM      8  C   UNL     1       5.746   4.373  16.626  0.00  0.00    +0.000 A 
ATOM      9  O   UNL     1       5.507   3.571  13.047  0.00  0.00    +0.000 OA
ATOM     10  C   UNL     1       6.570   4.080  12.215  0.00  0.00    +0.000 C 
ATOM     11  O   UNL     1       7.558   4.833  12.953  0.00  0.00    +0.000 OA
BRANCH   3  13
ATOM     12  O   UNL     1       7.545   6.893  17.867  0.00  0.00    +0.000 OA
ATOM     13  N   UNL     1       7.544   5.662  17.749  0.00  0.00    +0.000 N 
ATOM     14  O   UNL     1       8.016   4.856  18.559  0.00  0.00    +0.000 OA
ENDBRANCH   3  13
ENDBRANCH   1   8
BRANCH   2  15
ATOM     15  N   UNL     1       3.110   4.468  19.150  0.00  0.00    +0.000 N 
ATOM     16  C   UNL     1       2.923   3.351  19.941  0.00  0.00    +0.000 A 
ATOM     17  N   UNL     1       2.376   3.673  21.086  0.00  0.00    +0.000 NA
ATOM     18  N   UNL     1       2.120   5.020  21.049  0.00  0.00    +0.000 NA
ATOM     19  C   UNL     1       2.491   5.494  19.866  0.00  0.00    +0.000 A 
BRANCH  19  20
ATOM     20  C   UNL     1       2.241   6.857  19.403  0.00  0.00    +0.000 A 
ATOM     21  C   UNL     1       1.655   7.800  20.240  0.00  0.00    +0.000 A 
ATOM     22  C   UNL     1       1.456   9.091  19.757  0.00  0.00    +0.000 A 
ATOM     23  C   UNL     1       1.826   9.398  18.453  0.00  0.00    +0.000 A 
ATOM     24  C   UNL     1       2.380   8.396  17.680  0.00  0.00    +0.000 A 
ATOM     25  N   UNL     1       2.603   7.143  18.129  0.00  0.00    +0.000 NA
ENDBRANCH  19  20
BRANCH  16  26
ATOM     26  S   UNL     1       3.436   1.771  19.462  0.00  0.00    +0.000 S 
ATOM     27  H   UNL     1       2.261   1.360  18.960  0.00  0.00    +0.000 HD
ENDBRANCH  16  26
ENDBRANCH   2  15
TORSDOF 5
ENDMDL
MODEL 3
REMARK VINA RESULT:      -7.6      3.572      7.183
REMARK  Name = 
REMARK  5 active torsions:
REMARK  status: ('A' for Active; 'I' for Inactive)
REMARK    1  A    between atoms: N_2  and  C_4
REMARK    2  A    between atoms: C_9  and  C_10
REMARK    3  A    between atoms: N_11  and  N_12
REMARK    4  A    between atoms: C_13  and  S_14
REMARK    5  A    between atoms: C_17  and  C_18
REMARK                            x       y       z     vdW  Elec       q    Type
REMARK                         _______ _______ _______ _____ _____    ______ ____
ROOT
ATOM      1  C   UNL     1       2.666   6.545  20.129  0.00  0.00    +0.000 C 
ATOM      2  N   UNL     1       2.186   5.408  19.735  0.00  0.00    +0.000 NA
ENDROOT
BRANCH   1   8
ATOM      3  C   UNL     1       1.520   8.670  19.338  0.00  0.00    +0.000 A 
ATOM      4  C   UNL     1       0.731   9.806  19.579  0.00  0.00    +0.000 A 
ATOM      5  C   UNL     1       0.207   9.938  20.845  0.00  0.00    +0.000 A 
ATOM      6  C   UNL     1       0.442   9.009  21.832  0.00  0.00    +0.000 A 
ATOM      7  C   UNL     1       1.217   7.887  21.613  0.00  0.00    +0.000 A 
ATOM      8  C   UNL     1       1.770   7.706  20.336  0.00  0.00    +0.000 A 
ATOM      9  O   UNL     1      -0.159   9.336  23.006  0.00  0.00    +0.000 OA
ATOM     10  C   UNL     1      -0.811  10.573  22.648  0.00  0.00    +0.000 C 
ATOM     11  O   UNL     1      -0.582  10.959  21.275  0.00  0.00    +0.000 OA
BRANCH   3  13
ATOM     12  O   UNL     1       1.604   7.531  17.350  0.00  0.00    +0.000 OA
ATOM     13  N   UNL     1       2.038   8.491  17.998  0.00  0.00    +0.000 N 
ATOM     14  O   UNL     1       2.879   9.308  17.606  0.00  0.00    +0.000 OA
ENDBRANCH   3  13
ENDBRANCH   1   8
BRANCH   2  15
ATOM     15  N   UNL     1       3.072   4.343  19.768  0.00  0.00    +0.000 N 
ATOM     16  C   UNL     1       2.892   3.205  20.530  0.00  0.00    +0.000 A 
ATOM     17  N   UNL     1       3.868   2.354  20.340  0.00  0.00    +0.000 NA
ATOM     18  N   UNL     1       4.765   2.948  19.490  0.00  0.00    +0.000 NA
ATOM     19  C   UNL     1       4.334   4.169  19.197  0.00  0.00    +0.000 A 
BRANCH  19  20
ATOM     20  C   UNL     1       5.094   5.157  18.436  0.00  0.00    +0.000 A 
ATOM     21  C   UNL     1       4.591   5.692  17.255  0.00  0.00    +0.000 A 
ATOM     22  C   UNL     1       5.346   6.645  16.576  0.00  0.00    +0.000 A 
ATOM     23  C   UNL     1       6.585   7.022  17.082  0.00  0.00    +0.000 A 
ATOM     24  C   UNL     1       7.022   6.424  18.248  0.00  0.00    +0.000 A 
ATOM     25  N   UNL     1       6.302   5.514  18.936  0.00  0.00    +0.000 NA
ENDBRANCH  19  20
BRANCH  16  26
ATOM     26  S   UNL     1       1.499   2.959  21.525  0.00  0.00    +0.000 S 
ATOM     27  H   UNL     1       0.956   1.963  20.805  0.00  0.00    +0.000 HD
ENDBRANCH  16  26
ENDBRANCH   2  15
TORSDOF 5
ENDMDL
MODEL 4
REMARK VINA RESULT:      -7.5      3.573      7.199
REMARK  Name = 
REMARK  5 active torsions:
REMARK  status: ('A' for Active; 'I' for Inactive)
REMARK    1  A    between atoms: N_2  and  C_4
REMARK    2  A    between atoms: C_9  and  C_10
REMARK    3  A    between atoms: N_11  and  N_12
REMARK    4  A    between atoms: C_13  and  S_14
REMARK    5  A    between atoms: C_17  and  C_18
REMARK                            x       y       z     vdW  Elec       q    Type
REMARK                         _______ _______ _______ _____ _____    ______ ____
ROOT
ATOM      1  C   UNL     1       2.704   6.550  20.142  0.00  0.00    +0.000 C 
ATOM      2  N   UNL     1       2.247   5.426  19.686  0.00  0.00    +0.000 NA
ENDROOT
BRANCH   1   8
ATOM      3  C   UNL     1       1.554   8.654  19.303  0.00  0.00    +0.000 A 
ATOM      4  C   UNL     1       0.758   9.790  19.517  0.00  0.00    +0.000 A 
ATOM      5  C   UNL     1       0.220   9.941  20.776  0.00  0.00    +0.000 A 
ATOM      6  C   UNL     1       0.451   9.030  21.781  0.00  0.00    +0.000 A 
ATOM      7  C   UNL     1       1.234   7.909  21.589  0.00  0.00    +0.000 A 
ATOM      8  C   UNL     1       1.800   7.709  20.321  0.00  0.00    +0.000 A 
ATOM      9  O   UNL     1      -0.163   9.375  22.944  0.00  0.00    +0.000 OA
ATOM     10  C   UNL     1      -0.817  10.602  22.558  0.00  0.00    +0.000 C 
ATOM     11  O   UNL     1      -0.577  10.965  21.181  0.00  0.00    +0.000 OA
BRANCH   3  13
ATOM     12  O   UNL     1       2.914   9.280  17.568  0.00  0.00    +0.000 OA
ATOM     13  N   UNL     1       2.086   8.455  17.972  0.00  0.00    +0.000 N 
ATOM     14  O   UNL     1       1.668   7.479  17.339  0.00  0.00    +0.000 OA
ENDBRANCH   3  13
ENDBRANCH   1   8
BRANCH   2  15
ATOM     15  N   UNL     1       3.125   4.356  19.749  0.00  0.00    +0.000 N 
ATOM     16  C   UNL     1       2.900   3.208  20.483  0.00  0.00    +0.000 A 
ATOM     17  N   UNL     1       3.881   2.354  20.331  0.00  0.00    +0.000 NA
ATOM     18  N   UNL     1       4.824   2.956  19.538  0.00  0.00    +0.000 NA
ATOM     19  C   UNL     1       4.414   4.183  19.241  0.00  0.00    +0.000 A 
BRANCH  19  20
ATOM     20  C   UNL     1       5.217   5.178  18.536  0.00  0.00    +0.000 A 
ATOM     21  C   UNL     1       6.490   5.517  18.982  0.00  0.00    +0.000 A 
ATOM     22  C   UNL     1       7.223   6.458  18.263  0.00  0.00    +0.000 A 
ATOM     23  C   UNL     1       6.661   7.047  17.136  0.00  0.00    +0.000 A 
ATOM     24  C   UNL     1       5.382   6.671  16.774  0.00  0.00    +0.000 A 
ATOM     25  N   UNL     1       4.657   5.748  17.440  0.00  0.00    +0.000 NA
ENDBRANCH  19  20
BRANCH  16  26
ATOM     26  S   UNL     1       1.456   2.954  21.401  0.00  0.00    +0.000 S 
ATOM     27  H   UNL     1       0.877   4.134  21.127  0.00  0.00    +0.000 HD
ENDBRANCH  16  26
ENDBRANCH   2  15
TORSDOF 5
ENDMDL
MODEL 5
REMARK VINA RESULT:      -7.4      3.513      6.554
REMARK  Name = 
REMARK  5 active torsions:
REMARK  status: ('A' for Active; 'I' for Inactive)
REMARK    1  A    between atoms: N_2  and  C_4
REMARK    2  A    between atoms: C_9  and  C_10
REMARK    3  A    between atoms: N_11  and  N_12
REMARK    4  A    between atoms: C_13  and  S_14
REMARK    5  A    between atoms: C_17  and  C_18
REMARK                            x       y       z     vdW  Elec       q    Type
REMARK                         _______ _______ _______ _____ _____    ______ ____
ROOT
ATOM      1  C   UNL     1       4.481   5.053  16.371  0.00  0.00    +0.000 C 
ATOM      2  N   UNL     1       4.822   4.231  15.430  0.00  0.00    +0.000 NA
ENDROOT
BRANCH   1   8
ATOM      3  C   UNL     1       2.739   5.660  18.117  0.00  0.00    +0.000 A 
ATOM      4  C   UNL     1       1.765   5.300  19.062  0.00  0.00    +0.000 A 
ATOM      5  C   UNL     1       1.473   3.958  19.168  0.00  0.00    +0.000 A 
ATOM      6  C   UNL     1       2.102   3.012  18.393  0.00  0.00    +0.000 A 
ATOM      7  C   UNL     1       3.064   3.348  17.461  0.00  0.00    +0.000 A 
ATOM      8  C   UNL     1       3.393   4.704  17.313  0.00  0.00    +0.000 A 
ATOM      9  O   UNL     1       1.674   1.750  18.665  0.00  0.00    +0.000 OA
ATOM     10  C   UNL     1       0.694   2.007  19.692  0.00  0.00    +0.000 C 
ATOM     11  O   UNL     1       0.562   3.409  20.015  0.00  0.00    +0.000 OA
BRANCH   3  13
ATOM     12  O   UNL     1       2.063   7.848  18.023  0.00  0.00    +0.000 OA
ATOM     13  N   UNL     1       3.023   7.071  17.959  0.00  0.00    +0.000 N 
ATOM     14  O   UNL     1       4.201   7.390  17.765  0.00  0.00    +0.000 OA
ENDBRANCH   3  13
ENDBRANCH   1   8
BRANCH   2  15
ATOM     15  N   UNL     1       5.976   4.562  14.738  0.00  0.00    +0.000 N 
ATOM     16  C   UNL     1       6.248   4.165  13.443  0.00  0.00    +0.000 A 
ATOM     17  N   UNL     1       7.393   4.649  13.034  0.00  0.00    +0.000 NA
ATOM     18  N   UNL     1       7.946   5.329  14.088  0.00  0.00    +0.000 NA
ATOM     19  C   UNL     1       7.139   5.223  15.137  0.00  0.00    +0.000 A 
BRANCH  19  20
ATOM     20  C   UNL     1       7.460   5.694  16.482  0.00  0.00    +0.000 A 
ATOM     21  C   UNL     1       7.633   4.798  17.532  0.00  0.00    +0.000 A 
ATOM     22  C   UNL     1       7.957   5.296  18.791  0.00  0.00    +0.000 A 
ATOM     23  C   UNL     1       8.079   6.669  18.972  0.00  0.00    +0.000 A 
ATOM     24  C   UNL     1       7.868   7.491  17.882  0.00  0.00    +0.000 A 
ATOM     25  N   UNL     1       7.574   7.035  16.647  0.00  0.00    +0.000 NA
ENDBRANCH  19  20
BRANCH  16  26
ATOM     26  S   UNL     1       5.145   3.217  12.507  0.00  0.00    +0.000 S 
ATOM     27  H   UNL     1       4.993   2.218  13.390  0.00  0.00    +0.000 HD
ENDBRANCH  16  26
ENDBRANCH   2  15
TORSDOF 5
ENDMDL
MODEL 6
REMARK VINA RESULT:      -7.2      1.887      3.554
REMARK  Name = 
REMARK  5 active torsions:
REMARK  status: ('A' for Active; 'I' for Inactive)
REMARK    1  A    between atoms: N_2  and  C_4
REMARK    2  A    between atoms: C_9  and  C_10
REMARK    3  A    between atoms: N_11  and  N_12
REMARK    4  A    between atoms: C_13  and  S_14
REMARK    5  A    between atoms: C_17  and  C_18
REMARK                            x       y       z     vdW  Elec       q    Type
REMARK                         _______ _______ _______ _____ _____    ______ ____
ROOT
ATOM      1  C   UNL     1       4.552   5.786  17.767  0.00  0.00    +0.000 C 
ATOM      2  N   UNL     1       3.262   5.849  17.674  0.00  0.00    +0.000 NA
ENDROOT
BRANCH   1   8
ATOM      3  C   UNL     1       6.695   5.850  16.404  0.00  0.00    +0.000 A 
ATOM      4  C   UNL     1       7.427   5.543  15.246  0.00  0.00    +0.000 A 
ATOM      5  C   UNL     1       6.789   4.779  14.295  0.00  0.00    +0.000 A 
ATOM      6  C   UNL     1       5.496   4.338  14.462  0.00  0.00    +0.000 A 
ATOM      7  C   UNL     1       4.761   4.632  15.592  0.00  0.00    +0.000 A 
ATOM      8  C   UNL     1       5.371   5.404  16.593  0.00  0.00    +0.000 A 
ATOM      9  O   UNL     1       5.056   3.610  13.401  0.00  0.00    +0.000 OA
ATOM     10  C   UNL     1       6.220   3.632  12.549  0.00  0.00    +0.000 C 
ATOM     11  O   UNL     1       7.324   4.373  13.113  0.00  0.00    +0.000 OA
BRANCH   3  13
ATOM     12  O   UNL     1       7.811   5.979  18.402  0.00  0.00    +0.000 OA
ATOM     13  N   UNL     1       7.368   6.611  17.435  0.00  0.00    +0.000 N 
ATOM     14  O   UNL     1       7.444   7.834  17.273  0.00  0.00    +0.000 OA
ENDBRANCH   3  13
ENDBRANCH   1   8
BRANCH   2  15
ATOM     15  N   UNL     1       2.612   6.408  18.763  0.00  0.00    +0.000 N 
ATOM     16  C   UNL     1       2.316   7.751  18.887  0.00  0.00    +0.000 A 
ATOM     17  N   UNL     1       1.671   7.989  20.001  0.00  0.00    +0.000 NA
ATOM     18  N   UNL     1       1.587   6.802  20.683  0.00  0.00    +0.000 NA
ATOM     19  C   UNL     1       2.210   5.861  19.983  0.00  0.00    +0.000 A 
BRANCH  19  20
ATOM     20  C   UNL     1       2.455   4.501  20.455  0.00  0.00    +0.000 A 
ATOM     21  C   UNL     1       1.518   3.837  21.241  0.00  0.00    +0.000 A 
ATOM     22  C   UNL     1       1.791   2.533  21.650  0.00  0.00    +0.000 A 
ATOM     23  C   UNL     1       2.993   1.939  21.283  0.00  0.00    +0.000 A 
ATOM     24  C   UNL     1       3.879   2.677  20.522  0.00  0.00    +0.000 A 
ATOM     25  N   UNL     1       3.632   3.933  20.095  0.00  0.00    +0.000 NA
ENDBRANCH  19  20
BRANCH  16  26
ATOM     26  S   UNL     1       2.701   8.909  17.662  0.00  0.00    +0.000 S 
ATOM     27  H   UNL     1       3.394   8.081  16.863  0.00  0.00    +0.000 HD
ENDBRANCH  16  26
ENDBRANCH   2  15
TORSDOF 5
ENDMDL
MODEL 7
REMARK VINA RESULT:      -7.1      3.502      6.560
REMARK  Name = 
REMARK  5 active torsions:
REMARK  status: ('A' for Active; 'I' for Inactive)
REMARK    1  A    between atoms: N_2  and  C_4
REMARK    2  A    between atoms: C_9  and  C_10
REMARK    3  A    between atoms: N_11  and  N_12
REMARK    4  A    between atoms: C_13  and  S_14
REMARK    5  A    between atoms: C_17  and  C_18
REMARK                            x       y       z     vdW  Elec       q    Type
REMARK                         _______ _______ _______ _____ _____    ______ ____
ROOT
ATOM      1  C   UNL     1       4.475   5.086  16.422  0.00  0.00    +0.000 C 
ATOM      2  N   UNL     1       4.826   4.255  15.492  0.00  0.00    +0.000 NA
ENDROOT
BRANCH   1   8
ATOM      3  C   UNL     1       2.714   5.697  18.147  0.00  0.00    +0.000 A 
ATOM      4  C   UNL     1       1.746   5.338  19.099  0.00  0.00    +0.000 A 
ATOM      5  C   UNL     1       1.486   3.993  19.239  0.00  0.00    +0.000 A 
ATOM      6  C   UNL     1       2.140   3.042  18.491  0.00  0.00    +0.000 A 
ATOM      7  C   UNL     1       3.095   3.377  17.553  0.00  0.00    +0.000 A 
ATOM      8  C   UNL     1       3.393   4.736  17.370  0.00  0.00    +0.000 A 
ATOM      9  O   UNL     1       1.740   1.779  18.795  0.00  0.00    +0.000 OA
ATOM     10  C   UNL     1       0.751   2.039  19.813  0.00  0.00    +0.000 C 
ATOM     11  O   UNL     1       0.586   3.445  20.098  0.00  0.00    +0.000 OA
BRANCH   3  13
ATOM     12  O   UNL     1       4.146   7.470  17.903  0.00  0.00    +0.000 OA
ATOM     13  N   UNL     1       2.965   7.110  17.953  0.00  0.00    +0.000 N 
ATOM     14  O   UNL     1       1.978   7.848  17.857  0.00  0.00    +0.000 OA
ENDBRANCH   3  13
ENDBRANCH   1   8
BRANCH   2  15
ATOM     15  N   UNL     1       5.975   4.591  14.794  0.00  0.00    +0.000 N 
ATOM     16  C   UNL     1       6.229   4.219  13.489  0.00  0.00    +0.000 A 
ATOM     17  N   UNL     1       7.373   4.702  13.076  0.00  0.00    +0.000 NA
ATOM     18  N   UNL     1       7.943   5.357  14.138  0.00  0.00    +0.000 NA
ATOM     19  C   UNL     1       7.147   5.236  15.193  0.00  0.00    +0.000 A 
BRANCH  19  20
ATOM     20  C   UNL     1       7.487   5.677  16.544  0.00  0.00    +0.000 A 
ATOM     21  C   UNL     1       7.549   7.030  16.860  0.00  0.00    +0.000 A 
ATOM     22  C   UNL     1       7.859   7.398  18.167  0.00  0.00    +0.000 A 
ATOM     23  C   UNL     1       8.116   6.412  19.113  0.00  0.00    +0.000 A 
ATOM     24  C   UNL     1       8.056   5.092  18.710  0.00  0.00    +0.000 A 
ATOM     25  N   UNL     1       7.739   4.707  17.456  0.00  0.00    +0.000 NA
ENDBRANCH  19  20
BRANCH  16  26
ATOM     26  S   UNL     1       5.109   3.299  12.545  0.00  0.00    +0.000 S 
ATOM     27  H   UNL     1       4.254   3.009  13.539  0.00  0.00    +0.000 HD
ENDBRANCH  16  26
ENDBRANCH   2  15
TORSDOF 5
ENDMDL
MODEL 8
REMARK VINA RESULT:      -7.1      3.539      7.198
REMARK  Name = 
REMARK  5 active torsions:
REMARK  status: ('A' for Active; 'I' for Inactive)
REMARK    1  A    between atoms: N_2  and  C_4
REMARK    2  A    between atoms: C_9  and  C_10
REMARK    3  A    between atoms: N_11  and  N_12
REMARK    4  A    between atoms: C_13  and  S_14
REMARK    5  A    between atoms: C_17  and  C_18
REMARK                            x       y       z     vdW  Elec       q    Type
REMARK                         _______ _______ _______ _____ _____    ______ ____
ROOT
ATOM      1  C   UNL     1       2.586   6.485  19.968  0.00  0.00    +0.000 C 
ATOM      2  N   UNL     1       2.070   5.408  19.466  0.00  0.00    +0.000 NA
ENDROOT
BRANCH   1   8
ATOM      3  C   UNL     1       1.537   8.706  19.319  0.00  0.00    +0.000 A 
ATOM      4  C   UNL     1       0.791   9.853  19.632  0.00  0.00    +0.000 A 
ATOM      5  C   UNL     1       0.254   9.915  20.898  0.00  0.00    +0.000 A 
ATOM      6  C   UNL     1       0.438   8.909  21.818  0.00  0.00    +0.000 A 
ATOM      7  C   UNL     1       1.170   7.775  21.528  0.00  0.00    +0.000 A 
ATOM      8  C   UNL     1       1.734   7.664  20.248  0.00  0.00    +0.000 A 
ATOM      9  O   UNL     1      -0.167   9.176  23.006  0.00  0.00    +0.000 OA
ATOM     10  C   UNL     1      -0.764  10.460  22.730  0.00  0.00    +0.000 C 
ATOM     11  O   UNL     1      -0.499  10.934  21.392  0.00  0.00    +0.000 OA
BRANCH   3  13
ATOM     12  O   UNL     1       2.770   9.538  17.575  0.00  0.00    +0.000 OA
ATOM     13  N   UNL     1       2.067   8.603  17.976  0.00  0.00    +0.000 N 
ATOM     14  O   UNL     1       1.771   7.591  17.330  0.00  0.00    +0.000 OA
ENDBRANCH   3  13
ENDBRANCH   1   8
BRANCH   2  15
ATOM     15  N   UNL     1       2.909   4.305  19.433  0.00  0.00    +0.000 N 
ATOM     16  C   UNL     1       2.901   3.294  20.374  0.00  0.00    +0.000 A 
ATOM     17  N   UNL     1       3.775   2.367  20.073  0.00  0.00    +0.000 NA
ATOM     18  N   UNL     1       4.440   2.784  18.949  0.00  0.00    +0.000 NA
ATOM     19  C   UNL     1       3.978   3.978  18.597  0.00  0.00    +0.000 A 
BRANCH  19  20
ATOM     20  C   UNL     1       4.543   4.805  17.534  0.00  0.00    +0.000 A 
ATOM     21  C   UNL     1       4.751   4.289  16.260  0.00  0.00    +0.000 A 
ATOM     22  C   UNL     1       5.274   5.125  15.276  0.00  0.00    +0.000 A 
ATOM     23  C   UNL     1       5.592   6.440  15.594  0.00  0.00    +0.000 A 
ATOM     24  C   UNL     1       5.377   6.867  16.891  0.00  0.00    +0.000 A 
ATOM     25  N   UNL     1       4.852   6.085  17.857  0.00  0.00    +0.000 NA
ENDBRANCH  19  20
BRANCH  16  26
ATOM     26  S   UNL     1       1.803   3.270  21.710  0.00  0.00    +0.000 S 
ATOM     27  H   UNL     1       2.014   1.995  22.074  0.00  0.00    +0.000 HD
ENDBRANCH  16  26
ENDBRANCH   2  15
TORSDOF 5
ENDMDL
MODEL 9
REMARK VINA RESULT:      -7.1      1.994      3.482
REMARK  Name = 
REMARK  5 active torsions:
REMARK  status: ('A' for Active; 'I' for Inactive)
REMARK    1  A    between atoms: N_2  and  C_4
REMARK    2  A    between atoms: C_9  and  C_10
REMARK    3  A    between atoms: N_11  and  N_12
REMARK    4  A    between atoms: C_13  and  S_14
REMARK    5  A    between atoms: C_17  and  C_18
REMARK                            x       y       z     vdW  Elec       q    Type
REMARK                         _______ _______ _______ _____ _____    ______ ____
ROOT
ATOM      1  C   UNL     1       4.232   5.783  18.133  0.00  0.00    +0.000 C 
ATOM      2  N   UNL     1       3.020   6.140  17.851  0.00  0.00    +0.000 NA
ENDROOT
BRANCH   1   8
ATOM      3  C   UNL     1       6.550   5.443  17.150  0.00  0.00    +0.000 A 
ATOM      4  C   UNL     1       7.396   5.076  16.092  0.00  0.00    +0.000 A 
ATOM      5  C   UNL     1       6.790   4.589  14.955  0.00  0.00    +0.000 A 
ATOM      6  C   UNL     1       5.424   4.469  14.852  0.00  0.00    +0.000 A 
ATOM      7  C   UNL     1       4.576   4.827  15.881  0.00  0.00    +0.000 A 
ATOM      8  C   UNL     1       5.147   5.324  17.063  0.00  0.00    +0.000 A 
ATOM      9  O   UNL     1       5.036   3.978  13.645  0.00  0.00    +0.000 OA
ATOM     10  C   UNL     1       6.313   3.792  12.999  0.00  0.00    +0.000 C 
ATOM     11  O   UNL     1       7.431   4.178  13.828  0.00  0.00    +0.000 OA
BRANCH   3  13
ATOM     12  O   UNL     1       7.168   5.138  19.336  0.00  0.00    +0.000 OA
ATOM     13  N   UNL     1       7.173   5.910  18.370  0.00  0.00    +0.000 N 
ATOM     14  O   UNL     1       7.658   7.048  18.354  0.00  0.00    +0.000 OA
ENDBRANCH   3  13
ENDBRANCH   1   8
BRANCH   2  15
ATOM     15  N   UNL     1       2.318   6.740  18.884  0.00  0.00    +0.000 N 
ATOM     16  C   UNL     1       2.182   8.105  19.043  0.00  0.00    +0.000 A 
ATOM     17  N   UNL     1       1.443   8.385  20.086  0.00  0.00    +0.000 NA
ATOM     18  N   UNL     1       1.126   7.196  20.690  0.00  0.00    +0.000 NA
ATOM     19  C   UNL     1       1.705   6.207  20.020  0.00  0.00    +0.000 A 
BRANCH  19  20
ATOM     20  C   UNL     1       1.716   4.810  20.447  0.00  0.00    +0.000 A 
ATOM     21  C   UNL     1       1.007   3.842  19.743  0.00  0.00    +0.000 A 
ATOM     22  C   UNL     1       1.066   2.521  20.179  0.00  0.00    +0.000 A 
ATOM     23  C   UNL     1       1.809   2.207  21.312  0.00  0.00    +0.000 A 
ATOM     24  C   UNL     1       2.463   3.233  21.966  0.00  0.00    +0.000 A 
ATOM     25  N   UNL     1       2.440   4.517  21.554  0.00  0.00    +0.000 NA
ENDBRANCH  19  20
BRANCH  16  26
ATOM     26  S   UNL     1       2.858   9.246  17.932  0.00  0.00    +0.000 S 
ATOM     27  H   UNL     1       1.696   9.705  17.439  0.00  0.00    +0.000 HD
ENDBRANCH  16  26
ENDBRANCH   2  15
TORSDOF 5
ENDMDL
