MODEL 1
REMARK VINA RESULT:      -6.2      0.000      0.000
REMARK  Name = 
REMARK  8 active torsions:
REMARK  status: ('A' for Active; 'I' for Inactive)
REMARK    1  A    between atoms: C_1  and  N_2
REMARK    2  A    between atoms: C_3  and  C_5
REMARK    3  A    between atoms: C_19  and  C_20
REMARK    4  A    between atoms: N_22  and  O_23
REMARK    5  A    between atoms: C_24  and  C_25
REMARK    6  A    between atoms: C_25  and  C_26
REMARK    7  A    between atoms: C_26  and  C_27
REMARK    8  A    between atoms: C_26  and  C_28
REMARK                            x       y       z     vdW  Elec       q    Type
REMARK                         _______ _______ _______ _____ _____    ______ ____
ROOT
ATOM      1  C   UNL     1       7.051  13.337  22.533  0.00  0.00    +0.000 C 
ATOM      2  C   UNL     1       8.504  12.635  22.389  0.00  0.00    +0.000 C 
ATOM      3  S   UNL     1       9.586  11.861  20.753  0.00  0.00    +0.000 S 
ATOM      4  C   UNL     1      10.725  12.832  19.562  0.00  0.00    +0.000 A 
ATOM      5  C   UNL     1      11.711  13.784  19.846  0.00  0.00    +0.000 A 
ATOM      6  C   UNL     1      12.276  14.625  18.829  0.00  0.00    +0.000 A 
ATOM      7  C   UNL     1      12.018  14.417  17.470  0.00  0.00    +0.000 A 
ATOM      8  C   UNL     1      11.219  13.351  17.129  0.00  0.00    +0.000 A 
ATOM      9  C   UNL     1      10.567  12.613  18.156  0.00  0.00    +0.000 A 
ATOM     10  N   UNL     1       9.416  11.953  17.699  0.00  0.00    +0.000 N 
ATOM     11  C   UNL     1       8.334  12.817  17.622  0.00  0.00    +0.000 C 
ATOM     12  O   UNL     1       7.399  12.577  16.845  0.00  0.00    +0.000 OA
ATOM     13  C   UNL     1       8.273  14.027  18.623  0.00  0.00    +0.000 C 
ATOM     14  O   UNL     1       9.142  14.879  19.322  0.00  0.00    +0.000 OA
ATOM     15  C   UNL     1       8.621  15.616  20.447  0.00  0.00    +0.000 C 
ATOM     16  C   UNL     1       7.014  15.800  20.437  0.00  0.00    +0.000 C 
ATOM     17  C   UNL     1       6.697  15.910  21.877  0.00  0.00    +0.000 C 
ATOM     18  O   UNL     1       6.492  17.003  22.386  0.00  0.00    +0.000 OA
ATOM     19  N   UNL     1       6.929  14.834  22.665  0.00  0.00    +0.000 N 
ATOM     20  H   UNL     1       9.469  11.449  16.826  0.00  0.00    +0.000 HD
ATOM     21  H   UNL     1       6.749  15.130  23.635  0.00  0.00    +0.000 HD
ENDROOT
BRANCH   1  24
ATOM     22  C   UNL     1       5.756  11.349  25.577  0.00  0.00    +0.000 C 
ATOM     23  N   UNL     1       6.684  12.097  24.739  0.00  0.00    +0.000 N 
ATOM     24  C   UNL     1       6.237  13.076  23.889  0.00  0.00    +0.000 C 
ATOM     25  O   UNL     1       5.125  13.596  24.075  0.00  0.00    +0.000 OA
ATOM     26  H   UNL     1       7.612  11.716  24.619  0.00  0.00    +0.000 HD
ENDBRANCH   1  24
BRANCH  15  27
ATOM     27  C   UNL     1       9.458  15.465  21.905  0.00  0.00    +0.000 C 
ATOM     28  O   UNL     1      10.046  14.418  22.248  0.00  0.00    +0.000 OA
ATOM     29  N   UNL     1       9.587  16.525  22.780  0.00  0.00    +0.000 N 
ATOM     30  H   UNL     1       8.983  17.344  22.747  0.00  0.00    +0.000 HD
BRANCH  29  31
ATOM     31  O   UNL     1      10.057  16.217  24.093  0.00  0.00    +0.000 OA
ATOM     32  H   UNL     1      10.907  16.703  24.161  0.00  0.00    +0.000 HD
ENDBRANCH  29  31
ENDBRANCH  15  27
BRANCH  16  33
ATOM     33  C   UNL     1       5.933  14.836  19.819  0.00  0.00    +0.000 C 
BRANCH  33  34
ATOM     34  C   UNL     1       4.586  15.318  19.281  0.00  0.00    +0.000 C 
ATOM     35  C   UNL     1       4.400  15.216  17.785  0.00  0.00    +0.000 C 
ATOM     36  C   UNL     1       3.435  14.720  20.081  0.00  0.00    +0.000 C 
ENDBRANCH  33  34
ENDBRANCH  16  33
TORSDOF 5
ENDMDL
MODEL 2
REMARK VINA RESULT:      -6.2      5.693      8.455
REMARK  Name = 
REMARK  8 active torsions:
REMARK  status: ('A' for Active; 'I' for Inactive)
REMARK    1  A    between atoms: C_1  and  N_2
REMARK    2  A    between atoms: C_3  and  C_5
REMARK    3  A    between atoms: C_19  and  C_20
REMARK    4  A    between atoms: N_22  and  O_23
REMARK    5  A    between atoms: C_24  and  C_25
REMARK    6  A    between atoms: C_25  and  C_26
REMARK    7  A    between atoms: C_26  and  C_27
REMARK    8  A    between atoms: C_26  and  C_28
REMARK                            x       y       z     vdW  Elec       q    Type
REMARK                         _______ _______ _______ _____ _____    ______ ____
ROOT
ATOM      1  C   UNL     1      -0.614  13.195  18.681  0.00  0.00    +0.000 C 
ATOM      2  C   UNL     1       0.844  12.562  18.998  0.00  0.00    +0.000 C 
ATOM      3  S   UNL     1       2.815  13.275  18.772  0.00  0.00    +0.000 S 
ATOM      4  C   UNL     1       3.800  14.353  20.008  0.00  0.00    +0.000 A 
ATOM      5  C   UNL     1       3.938  14.222  21.394  0.00  0.00    +0.000 A 
ATOM      6  C   UNL     1       4.475  15.274  22.210  0.00  0.00    +0.000 A 
ATOM      7  C   UNL     1       5.068  16.412  21.654  0.00  0.00    +0.000 A 
ATOM      8  C   UNL     1       5.148  16.483  20.283  0.00  0.00    +0.000 A 
ATOM      9  C   UNL     1       4.494  15.495  19.496  0.00  0.00    +0.000 A 
ATOM     10  N   UNL     1       4.188  15.951  18.203  0.00  0.00    +0.000 N 
ATOM     11  C   UNL     1       3.038  16.726  18.200  0.00  0.00    +0.000 C 
ATOM     12  O   UNL     1       2.857  17.568  17.308  0.00  0.00    +0.000 OA
ATOM     13  C   UNL     1       1.931  16.425  19.274  0.00  0.00    +0.000 C 
ATOM     14  O   UNL     1       1.821  15.935  20.585  0.00  0.00    +0.000 OA
ATOM     15  C   UNL     1       0.534  15.466  21.034  0.00  0.00    +0.000 C 
ATOM     16  C   UNL     1      -0.720  16.051  20.196  0.00  0.00    +0.000 C 
ATOM     17  C   UNL     1      -1.728  14.978  20.341  0.00  0.00    +0.000 C 
ATOM     18  O   UNL     1      -2.638  15.087  21.151  0.00  0.00    +0.000 OA
ATOM     19  N   UNL     1      -1.460  13.773  19.788  0.00  0.00    +0.000 N 
ATOM     20  H   UNL     1       4.899  16.454  17.693  0.00  0.00    +0.000 HD
ATOM     21  H   UNL     1      -2.216  13.136  20.077  0.00  0.00    +0.000 HD
ENDROOT
BRANCH   1  24
ATOM     22  C   UNL     1      -2.953  11.345  16.231  0.00  0.00    +0.000 C 
ATOM     23  N   UNL     1      -1.729  11.683  16.946  0.00  0.00    +0.000 N 
ATOM     24  C   UNL     1      -1.772  12.186  18.222  0.00  0.00    +0.000 C 
ATOM     25  O   UNL     1      -2.786  12.021  18.917  0.00  0.00    +0.000 OA
ATOM     26  H   UNL     1      -0.882  11.770  16.403  0.00  0.00    +0.000 HD
ENDBRANCH   1  24
BRANCH  15  27
ATOM     27  C   UNL     1       0.480  13.908  21.683  0.00  0.00    +0.000 C 
ATOM     28  O   UNL     1       1.276  13.005  21.353  0.00  0.00    +0.000 OA
ATOM     29  N   UNL     1      -0.423  13.564  22.669  0.00  0.00    +0.000 N 
ATOM     30  H   UNL     1      -1.260  14.109  22.864  0.00  0.00    +0.000 HD
BRANCH  29  31
ATOM     31  O   UNL     1      -0.576  12.170  22.938  0.00  0.00    +0.000 OA
ATOM     32  H   UNL     1       0.132  11.746  22.405  0.00  0.00    +0.000 HD
ENDBRANCH  29  31
ENDBRANCH  15  27
BRANCH  16  33
ATOM     33  C   UNL     1      -0.754  16.488  18.684  0.00  0.00    +0.000 C 
BRANCH  33  34
ATOM     34  C   UNL     1      -0.953  17.935  18.231  0.00  0.00    +0.000 C 
ATOM     35  C   UNL     1      -0.458  18.262  16.842  0.00  0.00    +0.000 C 
ATOM     36  C   UNL     1      -2.382  18.396  18.495  0.00  0.00    +0.000 C 
ENDBRANCH  33  34
ENDBRANCH  16  33
TORSDOF 5
ENDMDL
MODEL 3
REMARK VINA RESULT:      -6.1      8.890     12.034
REMARK  Name = 
REMARK  8 active torsions:
REMARK  status: ('A' for Active; 'I' for Inactive)
REMARK    1  A    between atoms: C_1  and  N_2
REMARK    2  A    between atoms: C_3  and  C_5
REMARK    3  A    between atoms: C_19  and  C_20
REMARK    4  A    between atoms: N_22  and  O_23
REMARK    5  A    between atoms: C_24  and  C_25
REMARK    6  A    between atoms: C_25  and  C_26
REMARK    7  A    between atoms: C_26  and  C_27
REMARK    8  A    between atoms: C_26  and  C_28
REMARK                            x       y       z     vdW  Elec       q    Type
REMARK                         _______ _______ _______ _____ _____    ______ ____
ROOT
ATOM      1  C   UNL     1      -2.047  11.974  19.686  0.00  0.00    +0.000 C 
ATOM      2  C   UNL     1      -2.962  13.311  19.642  0.00  0.00    +0.000 C 
ATOM      3  S   UNL     1      -4.307  14.194  21.005  0.00  0.00    +0.000 S 
ATOM      4  C   UNL     1      -3.879  15.390  22.435  0.00  0.00    +0.000 A 
ATOM      5  C   UNL     1      -3.037  16.507  22.444  0.00  0.00    +0.000 A 
ATOM      6  C   UNL     1      -2.602  17.126  23.665  0.00  0.00    +0.000 A 
ATOM      7  C   UNL     1      -3.142  16.773  24.906  0.00  0.00    +0.000 A 
ATOM      8  C   UNL     1      -4.136  15.822  24.921  0.00  0.00    +0.000 A 
ATOM      9  C   UNL     1      -4.457  15.131  23.719  0.00  0.00    +0.000 A 
ATOM     10  N   UNL     1      -5.047  13.880  23.957  0.00  0.00    +0.000 N 
ATOM     11  C   UNL     1      -4.093  12.921  24.264  0.00  0.00    +0.000 C 
ATOM     12  O   UNL     1      -4.404  11.923  24.929  0.00  0.00    +0.000 OA
ATOM     13  C   UNL     1      -2.656  13.074  23.645  0.00  0.00    +0.000 C 
ATOM     14  O   UNL     1      -1.776  14.084  23.226  0.00  0.00    +0.000 OA
ATOM     15  C   UNL     1      -0.689  13.725  22.350  0.00  0.00    +0.000 C 
ATOM     16  C   UNL     1      -0.287  12.158  22.393  0.00  0.00    +0.000 C 
ATOM     17  C   UNL     1       0.264  11.934  21.039  0.00  0.00    +0.000 C 
ATOM     18  O   UNL     1       1.474  11.903  20.858  0.00  0.00    +0.000 OA
ATOM     19  N   UNL     1      -0.571  12.060  19.982  0.00  0.00    +0.000 N 
ATOM     20  H   UNL     1      -5.776  13.820  24.653  0.00  0.00    +0.000 HD
ATOM     21  H   UNL     1       0.006  11.972  19.133  0.00  0.00    +0.000 HD
ENDROOT
BRANCH   1  24
ATOM     22  C   UNL     1      -2.623  11.036  15.986  0.00  0.00    +0.000 C 
ATOM     23  N   UNL     1      -2.187  11.817  17.137  0.00  0.00    +0.000 N 
ATOM     24  C   UNL     1      -1.800  11.204  18.302  0.00  0.00    +0.000 C 
ATOM     25  O   UNL     1      -1.460  10.010  18.288  0.00  0.00    +0.000 OA
ATOM     26  H   UNL     1      -2.409  12.802  17.141  0.00  0.00    +0.000 HD
ENDBRANCH   1  24
BRANCH  15  27
ATOM     27  C   UNL     1      -0.545  14.608  20.919  0.00  0.00    +0.000 C 
ATOM     28  O   UNL     1      -1.527  15.074  20.304  0.00  0.00    +0.000 OA
ATOM     29  N   UNL     1       0.687  14.917  20.378  0.00  0.00    +0.000 N 
ATOM     30  H   UNL     1       1.540  14.422  20.631  0.00  0.00    +0.000 HD
BRANCH  29  31
ATOM     31  O   UNL     1       0.691  15.409  19.037  0.00  0.00    +0.000 OA
ATOM     32  H   UNL     1       1.421  16.065  19.028  0.00  0.00    +0.000 HD
ENDBRANCH  29  31
ENDBRANCH  15  27
BRANCH  16  33
ATOM     33  C   UNL     1      -1.220  10.928  22.700  0.00  0.00    +0.000 C 
BRANCH  33  34
ATOM     34  C   UNL     1      -0.706   9.494  22.826  0.00  0.00    +0.000 C 
ATOM     35  C   UNL     1      -0.524   8.743  21.527  0.00  0.00    +0.000 C 
ATOM     36  C   UNL     1       0.510   9.430  23.743  0.00  0.00    +0.000 C 
ENDBRANCH  33  34
ENDBRANCH  16  33
TORSDOF 5
ENDMDL
MODEL 4
REMARK VINA RESULT:      -6.0      2.671      5.765
REMARK  Name = 
REMARK  8 active torsions:
REMARK  status: ('A' for Active; 'I' for Inactive)
REMARK    1  A    between atoms: C_1  and  N_2
REMARK    2  A    between atoms: C_3  and  C_5
REMARK    3  A    between atoms: C_19  and  C_20
REMARK    4  A    between atoms: N_22  and  O_23
REMARK    5  A    between atoms: C_24  and  C_25
REMARK    6  A    between atoms: C_25  and  C_26
REMARK    7  A    between atoms: C_26  and  C_27
REMARK    8  A    between atoms: C_26  and  C_28
REMARK                            x       y       z     vdW  Elec       q    Type
REMARK                         _______ _______ _______ _____ _____    ______ ____
ROOT
ATOM      1  C   UNL     1       8.587  11.289  18.780  0.00  0.00    +0.000 C 
ATOM      2  C   UNL     1       8.181  12.346  17.622  0.00  0.00    +0.000 C 
ATOM      3  S   UNL     1       7.115  14.166  17.627  0.00  0.00    +0.000 S 
ATOM      4  C   UNL     1       7.815  15.910  17.986  0.00  0.00    +0.000 A 
ATOM      5  C   UNL     1       8.981  16.520  17.511  0.00  0.00    +0.000 A 
ATOM      6  C   UNL     1       9.508  17.720  18.097  0.00  0.00    +0.000 A 
ATOM      7  C   UNL     1       8.792  18.455  19.047  0.00  0.00    +0.000 A 
ATOM      8  C   UNL     1       7.538  18.005  19.389  0.00  0.00    +0.000 A 
ATOM      9  C   UNL     1       7.092  16.747  18.895  0.00  0.00    +0.000 A 
ATOM     10  N   UNL     1       6.100  16.171  19.704  0.00  0.00    +0.000 N 
ATOM     11  C   UNL     1       6.651  15.549  20.814  0.00  0.00    +0.000 C 
ATOM     12  O   UNL     1       5.975  15.395  21.841  0.00  0.00    +0.000 OA
ATOM     13  C   UNL     1       8.096  14.945  20.691  0.00  0.00    +0.000 C 
ATOM     14  O   UNL     1       9.293  15.173  19.993  0.00  0.00    +0.000 OA
ATOM     15  C   UNL     1      10.257  14.104  19.918  0.00  0.00    +0.000 C 
ATOM     16  C   UNL     1      10.104  12.986  21.077  0.00  0.00    +0.000 C 
ATOM     17  C   UNL     1      10.645  11.774  20.424  0.00  0.00    +0.000 C 
ATOM     18  O   UNL     1      11.783  11.396  20.663  0.00  0.00    +0.000 OA
ATOM     19  N   UNL     1       9.980  11.275  19.357  0.00  0.00    +0.000 N 
ATOM     20  H   UNL     1       5.344  16.759  20.025  0.00  0.00    +0.000 HD
ATOM     21  H   UNL     1      10.554  10.507  18.979  0.00  0.00    +0.000 HD
ENDROOT
BRANCH   1  24
ATOM     22  C   UNL     1       7.323   7.908  17.413  0.00  0.00    +0.000 C 
ATOM     23  N   UNL     1       7.808   9.282  17.399  0.00  0.00    +0.000 N 
ATOM     24  C   UNL     1       8.660   9.740  18.372  0.00  0.00    +0.000 C 
ATOM     25  O   UNL     1       9.317   8.933  19.048  0.00  0.00    +0.000 OA
ATOM     26  H   UNL     1       7.317   9.942  16.813  0.00  0.00    +0.000 HD
ENDBRANCH   1  24
BRANCH  15  27
ATOM     27  C   UNL     1      10.793  13.673  18.376  0.00  0.00    +0.000 C 
ATOM     28  O   UNL     1      10.088  13.792  17.352  0.00  0.00    +0.000 OA
ATOM     29  N   UNL     1      12.077  13.216  18.157  0.00  0.00    +0.000 N 
ATOM     30  H   UNL     1      12.669  12.856  18.903  0.00  0.00    +0.000 HD
BRANCH  29  31
ATOM     31  O   UNL     1      12.333  12.615  16.887  0.00  0.00    +0.000 OA
ATOM     32  H   UNL     1      12.994  11.916  17.084  0.00  0.00    +0.000 HD
ENDBRANCH  29  31
ENDBRANCH  15  27
BRANCH  16  33
ATOM     33  C   UNL     1       8.792  12.538  21.823  0.00  0.00    +0.000 C 
BRANCH  33  34
ATOM     34  C   UNL     1       8.628  12.591  23.342  0.00  0.00    +0.000 C 
ATOM     35  C   UNL     1       8.735  13.963  23.967  0.00  0.00    +0.000 C 
ATOM     36  C   UNL     1       7.394  11.813  23.784  0.00  0.00    +0.000 C 
ENDBRANCH  33  34
ENDBRANCH  16  33
TORSDOF 5
ENDMDL
MODEL 5
REMARK VINA RESULT:      -6.0      1.915      2.029
REMARK  Name = 
REMARK  8 active torsions:
REMARK  status: ('A' for Active; 'I' for Inactive)
REMARK    1  A    between atoms: C_1  and  N_2
REMARK    2  A    between atoms: C_3  and  C_5
REMARK    3  A    between atoms: C_19  and  C_20
REMARK    4  A    between atoms: N_22  and  O_23
REMARK    5  A    between atoms: C_24  and  C_25
REMARK    6  A    between atoms: C_25  and  C_26
REMARK    7  A    between atoms: C_26  and  C_27
REMARK    8  A    between atoms: C_26  and  C_28
REMARK                            x       y       z     vdW  Elec       q    Type
REMARK                         _______ _______ _______ _____ _____    ______ ____
ROOT
ATOM      1  C   UNL     1       6.191  15.073  21.671  0.00  0.00    +0.000 C 
ATOM      2  C   UNL     1       7.647  14.454  22.021  0.00  0.00    +0.000 C 
ATOM      3  S   UNL     1       8.983  13.206  20.971  0.00  0.00    +0.000 S 
ATOM      4  C   UNL     1      10.304  13.744  19.696  0.00  0.00    +0.000 A 
ATOM      5  C   UNL     1      11.230  14.791  19.758  0.00  0.00    +0.000 A 
ATOM      6  C   UNL     1      11.956  15.238  18.603  0.00  0.00    +0.000 A 
ATOM      7  C   UNL     1      11.925  14.536  17.393  0.00  0.00    +0.000 A 
ATOM      8  C   UNL     1      11.192  13.373  17.350  0.00  0.00    +0.000 A 
ATOM      9  C   UNL     1      10.379  13.021  18.463  0.00  0.00    +0.000 A 
ATOM     10  N   UNL     1       9.318  12.173  18.110  0.00  0.00    +0.000 N 
ATOM     11  C   UNL     1       8.265  12.884  17.555  0.00  0.00    +0.000 C 
ATOM     12  O   UNL     1       7.470  12.323  16.787  0.00  0.00    +0.000 OA
ATOM     13  C   UNL     1       8.041  14.369  18.019  0.00  0.00    +0.000 C 
ATOM     14  O   UNL     1       8.785  15.466  18.481  0.00  0.00    +0.000 OA
ATOM     15  C   UNL     1       8.087  16.529  19.161  0.00  0.00    +0.000 C 
ATOM     16  C   UNL     1       6.503  16.601  18.838  0.00  0.00    +0.000 C 
ATOM     17  C   UNL     1       5.953  17.207  20.070  0.00  0.00    +0.000 C 
ATOM     18  O   UNL     1       5.669  18.396  20.103  0.00  0.00    +0.000 OA
ATOM     19  N   UNL     1       6.051  16.506  21.223  0.00  0.00    +0.000 N 
ATOM     20  H   UNL     1       9.513  11.390  17.502  0.00  0.00    +0.000 HD
ATOM     21  H   UNL     1       5.714  17.123  21.977  0.00  0.00    +0.000 HD
ENDROOT
BRANCH   1  24
ATOM     22  C   UNL     1       4.951  16.308  25.111  0.00  0.00    +0.000 C 
ATOM     23  N   UNL     1       5.331  16.362  23.705  0.00  0.00    +0.000 N 
ATOM     24  C   UNL     1       5.165  15.275  22.886  0.00  0.00    +0.000 C 
ATOM     25  O   UNL     1       4.371  14.376  23.206  0.00  0.00    +0.000 OA
ATOM     26  H   UNL     1       5.935  17.119  23.416  0.00  0.00    +0.000 HD
ENDBRANCH   1  24
BRANCH  15  27
ATOM     27  C   UNL     1       8.672  16.967  20.683  0.00  0.00    +0.000 C 
ATOM     28  O   UNL     1       9.159  16.146  21.487  0.00  0.00    +0.000 OA
ATOM     29  N   UNL     1       8.696  18.283  21.098  0.00  0.00    +0.000 N 
ATOM     30  H   UNL     1       8.134  19.010  20.660  0.00  0.00    +0.000 HD
BRANCH  29  31
ATOM     31  O   UNL     1       8.936  18.511  22.488  0.00  0.00    +0.000 OA
ATOM     32  H   UNL     1       8.873  19.486  22.583  0.00  0.00    +0.000 HD
ENDBRANCH  29  31
ENDBRANCH  15  27
BRANCH  16  33
ATOM     33  C   UNL     1       5.537  15.417  18.459  0.00  0.00    +0.000 C 
BRANCH  33  34
ATOM     34  C   UNL     1       4.013  15.528  18.502  0.00  0.00    +0.000 C 
ATOM     35  C   UNL     1       3.345  15.905  17.200  0.00  0.00    +0.000 C 
ATOM     36  C   UNL     1       3.397  14.305  19.172  0.00  0.00    +0.000 C 
ENDBRANCH  33  34
ENDBRANCH  16  33
TORSDOF 5
ENDMDL
MODEL 6
REMARK VINA RESULT:      -5.9      8.479     12.673
REMARK  Name = 
REMARK  8 active torsions:
REMARK  status: ('A' for Active; 'I' for Inactive)
REMARK    1  A    between atoms: C_1  and  N_2
REMARK    2  A    between atoms: C_3  and  C_5
REMARK    3  A    between atoms: C_19  and  C_20
REMARK    4  A    between atoms: N_22  and  O_23
REMARK    5  A    between atoms: C_24  and  C_25
REMARK    6  A    between atoms: C_25  and  C_26
REMARK    7  A    between atoms: C_26  and  C_27
REMARK    8  A    between atoms: C_26  and  C_28
REMARK                            x       y       z     vdW  Elec       q    Type
REMARK                         _______ _______ _______ _____ _____    ______ ____
ROOT
ATOM      1  C   UNL     1      -1.337  15.337  20.201  0.00  0.00    +0.000 C 
ATOM      2  C   UNL     1      -2.598  16.091  20.885  0.00  0.00    +0.000 C 
ATOM      3  S   UNL     1      -4.687  15.854  20.733  0.00  0.00    +0.000 S 
ATOM      4  C   UNL     1      -5.785  14.641  21.725  0.00  0.00    +0.000 A 
ATOM      5  C   UNL     1      -5.787  14.353  23.094  0.00  0.00    +0.000 A 
ATOM      6  C   UNL     1      -6.475  13.215  23.634  0.00  0.00    +0.000 A 
ATOM      7  C   UNL     1      -7.337  12.435  22.857  0.00  0.00    +0.000 A 
ATOM      8  C   UNL     1      -7.534  12.813  21.548  0.00  0.00    +0.000 A 
ATOM      9  C   UNL     1      -6.744  13.862  21.002  0.00  0.00    +0.000 A 
ATOM     10  N   UNL     1      -6.640  13.787  19.604  0.00  0.00    +0.000 N 
ATOM     11  C   UNL     1      -5.687  12.857  19.217  0.00  0.00    +0.000 C 
ATOM     12  O   UNL     1      -5.758  12.319  18.102  0.00  0.00    +0.000 OA
ATOM     13  C   UNL     1      -4.464  12.601  20.169  0.00  0.00    +0.000 C 
ATOM     14  O   UNL     1      -4.153  12.627  21.538  0.00  0.00    +0.000 OA
ATOM     15  C   UNL     1      -2.766  12.691  21.925  0.00  0.00    +0.000 C 
ATOM     16  C   UNL     1      -1.733  12.181  20.788  0.00  0.00    +0.000 C 
ATOM     17  C   UNL     1      -0.510  12.953  21.100  0.00  0.00    +0.000 C 
ATOM     18  O   UNL     1       0.414  12.433  21.711  0.00  0.00    +0.000 OA
ATOM     19  N   UNL     1      -0.555  14.298  20.965  0.00  0.00    +0.000 N 
ATOM     20  H   UNL     1      -7.479  13.606  19.071  0.00  0.00    +0.000 HD
ATOM     21  H   UNL     1       0.341  14.664  21.320  0.00  0.00    +0.000 HD
ENDROOT
BRANCH   1  24
ATOM     22  C   UNL     1       2.032  16.245  18.552  0.00  0.00    +0.000 C 
ATOM     23  N   UNL     1       0.593  16.060  18.688  0.00  0.00    +0.000 N 
ATOM     24  C   UNL     1      -0.028  16.212  19.902  0.00  0.00    +0.000 C 
ATOM     25  O   UNL     1       0.530  16.853  20.806  0.00  0.00    +0.000 OA
ATOM     26  H   UNL     1       0.113  15.586  17.936  0.00  0.00    +0.000 HD
ENDBRANCH   1  24
BRANCH  15  27
ATOM     27  C   UNL     1      -2.331  13.930  22.985  0.00  0.00    +0.000 C 
ATOM     28  O   UNL     1      -2.953  15.009  23.063  0.00  0.00    +0.000 OA
ATOM     29  N   UNL     1      -1.285  13.788  23.875  0.00  0.00    +0.000 N 
ATOM     30  H   UNL     1      -0.562  13.079  23.768  0.00  0.00    +0.000 HD
BRANCH  29  31
ATOM     31  O   UNL     1      -0.824  14.979  24.514  0.00  0.00    +0.000 OA
ATOM     32  H   UNL     1      -1.513  15.170  25.187  0.00  0.00    +0.000 HD
ENDBRANCH  29  31
ENDBRANCH  15  27
BRANCH  16  33
ATOM     33  C   UNL     1      -1.907  12.241  19.225  0.00  0.00    +0.000 C 
BRANCH  33  34
ATOM     34  C   UNL     1      -1.490  11.106  18.288  0.00  0.00    +0.000 C 
ATOM     35  C   UNL     1      -0.340  10.249  18.765  0.00  0.00    +0.000 C 
ATOM     36  C   UNL     1      -2.703  10.303  17.834  0.00  0.00    +0.000 C 
ENDBRANCH  33  34
ENDBRANCH  16  33
TORSDOF 5
ENDMDL
MODEL 7
REMARK VINA RESULT:      -5.7      9.235     13.227
REMARK  Name = 
REMARK  8 active torsions:
REMARK  status: ('A' for Active; 'I' for Inactive)
REMARK    1  A    between atoms: C_1  and  N_2
REMARK    2  A    between atoms: C_3  and  C_5
REMARK    3  A    between atoms: C_19  and  C_20
REMARK    4  A    between atoms: N_22  and  O_23
REMARK    5  A    between atoms: C_24  and  C_25
REMARK    6  A    between atoms: C_25  and  C_26
REMARK    7  A    between atoms: C_26  and  C_27
REMARK    8  A    between atoms: C_26  and  C_28
REMARK                            x       y       z     vdW  Elec       q    Type
REMARK                         _______ _______ _______ _____ _____    ______ ____
ROOT
ATOM      1  C   UNL     1      -2.516  15.810  21.137  0.00  0.00    +0.000 C 
ATOM      2  C   UNL     1      -4.111  16.087  21.086  0.00  0.00    +0.000 C 
ATOM      3  S   UNL     1      -5.716  15.149  20.092  0.00  0.00    +0.000 S 
ATOM      4  C   UNL     1      -6.717  13.633  20.694  0.00  0.00    +0.000 A 
ATOM      5  C   UNL     1      -7.257  13.364  21.956  0.00  0.00    +0.000 A 
ATOM      6  C   UNL     1      -7.732  12.059  22.320  0.00  0.00    +0.000 A 
ATOM      7  C   UNL     1      -7.861  11.030  21.382  0.00  0.00    +0.000 A 
ATOM      8  C   UNL     1      -7.542  11.316  20.075  0.00  0.00    +0.000 A 
ATOM      9  C   UNL     1      -6.951  12.572  19.762  0.00  0.00    +0.000 A 
ATOM     10  N   UNL     1      -6.203  12.536  18.575  0.00  0.00    +0.000 N 
ATOM     11  C   UNL     1      -4.946  11.988  18.786  0.00  0.00    +0.000 C 
ATOM     12  O   UNL     1      -4.333  11.457  17.849  0.00  0.00    +0.000 OA
ATOM     13  C   UNL     1      -4.282  12.168  20.198  0.00  0.00    +0.000 C 
ATOM     14  O   UNL     1      -4.655  12.300  21.545  0.00  0.00    +0.000 OA
ATOM     15  C   UNL     1      -3.692  12.836  22.474  0.00  0.00    +0.000 C 
ATOM     16  C   UNL     1      -2.154  12.710  21.987  0.00  0.00    +0.000 C 
ATOM     17  C   UNL     1      -1.509  13.854  22.667  0.00  0.00    +0.000 C 
ATOM     18  O   UNL     1      -0.858  13.683  23.688  0.00  0.00    +0.000 OA
ATOM     19  N   UNL     1      -1.894  15.103  22.316  0.00  0.00    +0.000 N 
ATOM     20  H   UNL     1      -6.605  12.078  17.770  0.00  0.00    +0.000 HD
ATOM     21  H   UNL     1      -1.420  15.754  22.958  0.00  0.00    +0.000 HD
ENDROOT
BRANCH   1  24
ATOM     22  C   UNL     1       0.467  18.129  20.350  0.00  0.00    +0.000 C 
ATOM     23  N   UNL     1      -0.837  17.495  20.200  0.00  0.00    +0.000 N 
ATOM     24  C   UNL     1      -1.551  17.080  21.295  0.00  0.00    +0.000 C 
ATOM     25  O   UNL     1      -1.296  17.551  22.414  0.00  0.00    +0.000 OA
ATOM     26  H   UNL     1      -1.083  17.152  19.282  0.00  0.00    +0.000 HD
ENDBRANCH   1  24
BRANCH  15  27
ATOM     27  C   UNL     1      -4.190  14.150  23.409  0.00  0.00    +0.000 C 
ATOM     28  O   UNL     1      -4.977  15.025  22.990  0.00  0.00    +0.000 OA
ATOM     29  N   UNL     1      -3.794  14.296  24.723  0.00  0.00    +0.000 N 
ATOM     30  H   UNL     1      -2.993  13.806  25.115  0.00  0.00    +0.000 HD
BRANCH  29  31
ATOM     31  O   UNL     1      -4.032  15.570  25.325  0.00  0.00    +0.000 OA
ATOM     32  H   UNL     1      -4.687  15.995  24.729  0.00  0.00    +0.000 HD
ENDBRANCH  29  31
ENDBRANCH  15  27
BRANCH  16  33
ATOM     33  C   UNL     1      -1.603  12.705  20.512  0.00  0.00    +0.000 C 
BRANCH  33  34
ATOM     34  C   UNL     1      -0.525  11.739  20.020  0.00  0.00    +0.000 C 
ATOM     35  C   UNL     1       0.810  12.361  19.679  0.00  0.00    +0.000 C 
ATOM     36  C   UNL     1      -0.417  10.529  20.942  0.00  0.00    +0.000 C 
ENDBRANCH  33  34
ENDBRANCH  16  33
TORSDOF 5
ENDMDL
MODEL 8
REMARK VINA RESULT:      -5.7      6.045      9.231
REMARK  Name = 
REMARK  8 active torsions:
REMARK  status: ('A' for Active; 'I' for Inactive)
REMARK    1  A    between atoms: C_1  and  N_2
REMARK    2  A    between atoms: C_3  and  C_5
REMARK    3  A    between atoms: C_19  and  C_20
REMARK    4  A    between atoms: N_22  and  O_23
REMARK    5  A    between atoms: C_24  and  C_25
REMARK    6  A    between atoms: C_25  and  C_26
REMARK    7  A    between atoms: C_26  and  C_27
REMARK    8  A    between atoms: C_26  and  C_28
REMARK                            x       y       z     vdW  Elec       q    Type
REMARK                         _______ _______ _______ _____ _____    ______ ____
ROOT
ATOM      1  C   UNL     1      -0.213  15.549  19.006  0.00  0.00    +0.000 C 
ATOM      2  C   UNL     1      -1.376  14.542  19.516  0.00  0.00    +0.000 C 
ATOM      3  S   UNL     1      -1.616  12.449  19.443  0.00  0.00    +0.000 S 
ATOM      4  C   UNL     1      -0.942  11.167  20.694  0.00  0.00    +0.000 A 
ATOM      5  C   UNL     1      -0.966  11.186  22.092  0.00  0.00    +0.000 A 
ATOM      6  C   UNL     1      -0.168  10.290  22.882  0.00  0.00    +0.000 A 
ATOM      7  C   UNL     1       0.532   9.224  22.309  0.00  0.00    +0.000 A 
ATOM      8  C   UNL     1       0.411   9.037  20.951  0.00  0.00    +0.000 A 
ATOM      9  C   UNL     1      -0.277  10.011  20.174  0.00  0.00    +0.000 A 
ATOM     10  N   UNL     1       0.120  10.005  18.828  0.00  0.00    +0.000 N 
ATOM     11  C   UNL     1       1.312  10.693  18.650  0.00  0.00    +0.000 C 
ATOM     12  O   UNL     1       2.045  10.429  17.686  0.00  0.00    +0.000 OA
ATOM     13  C   UNL     1       1.640  11.882  19.623  0.00  0.00    +0.000 C 
ATOM     14  O   UNL     1       1.393  12.277  20.948  0.00  0.00    +0.000 OA
ATOM     15  C   UNL     1       1.580  13.664  21.295  0.00  0.00    +0.000 C 
ATOM     16  C   UNL     1       2.554  14.478  20.292  0.00  0.00    +0.000 C 
ATOM     17  C   UNL     1       2.047  15.862  20.409  0.00  0.00    +0.000 C 
ATOM     18  O   UNL     1       2.627  16.679  21.111  0.00  0.00    +0.000 OA
ATOM     19  N   UNL     1       0.792  16.120  19.975  0.00  0.00    +0.000 N 
ATOM     20  H   UNL     1       0.207   9.116  18.358  0.00  0.00    +0.000 HD
ATOM     21  H   UNL     1       0.581  17.096  20.230  0.00  0.00    +0.000 HD
ENDROOT
BRANCH   1  24
ATOM     22  C   UNL     1      -2.532  18.607  18.592  0.00  0.00    +0.000 C 
ATOM     23  N   UNL     1      -1.608  17.680  19.234  0.00  0.00    +0.000 N 
ATOM     24  C   UNL     1      -0.665  17.003  18.504  0.00  0.00    +0.000 C 
ATOM     25  O   UNL     1      -0.332  17.423  17.384  0.00  0.00    +0.000 OA
ATOM     26  H   UNL     1      -1.837  17.369  20.168  0.00  0.00    +0.000 HD
ENDBRANCH   1  24
BRANCH  15  27
ATOM     27  C   UNL     1       0.281  14.438  22.045  0.00  0.00    +0.000 C 
ATOM     28  O   UNL     1      -0.905  14.076  21.900  0.00  0.00    +0.000 OA
ATOM     29  N   UNL     1       0.471  15.491  22.918  0.00  0.00    +0.000 N 
ATOM     30  H   UNL     1       1.334  16.031  22.951  0.00  0.00    +0.000 HD
BRANCH  29  31
ATOM     31  O   UNL     1      -0.688  16.249  23.267  0.00  0.00    +0.000 OA
ATOM     32  H   UNL     1      -1.151  15.686  23.925  0.00  0.00    +0.000 HD
ENDBRANCH  29  31
ENDBRANCH  15  27
BRANCH  16  33
ATOM     33  C   UNL     1       2.794  14.223  18.757  0.00  0.00    +0.000 C 
BRANCH  33  34
ATOM     34  C   UNL     1       3.821  14.994  17.927  0.00  0.00    +0.000 C 
ATOM     35  C   UNL     1       3.326  16.271  17.288  0.00  0.00    +0.000 C 
ATOM     36  C   UNL     1       5.126  15.162  18.697  0.00  0.00    +0.000 C 
ENDBRANCH  33  34
ENDBRANCH  16  33
TORSDOF 5
ENDMDL
MODEL 9
REMARK VINA RESULT:      -5.7      9.492     13.236
REMARK  Name = 
REMARK  8 active torsions:
REMARK  status: ('A' for Active; 'I' for Inactive)
REMARK    1  A    between atoms: C_1  and  N_2
REMARK    2  A    between atoms: C_3  and  C_5
REMARK    3  A    between atoms: C_19  and  C_20
REMARK    4  A    between atoms: N_22  and  O_23
REMARK    5  A    between atoms: C_24  and  C_25
REMARK    6  A    between atoms: C_25  and  C_26
REMARK    7  A    between atoms: C_26  and  C_27
REMARK    8  A    between atoms: C_26  and  C_28
REMARK                            x       y       z     vdW  Elec       q    Type
REMARK                         _______ _______ _______ _____ _____    ______ ____
ROOT
ATOM      1  C   UNL     1      -2.275  15.537  20.475  0.00  0.00    +0.000 C 
ATOM      2  C   UNL     1      -3.715  16.126  20.929  0.00  0.00    +0.000 C 
ATOM      3  S   UNL     1      -5.692  15.415  20.758  0.00  0.00    +0.000 S 
ATOM      4  C   UNL     1      -6.598  14.226  21.952  0.00  0.00    +0.000 A 
ATOM      5  C   UNL     1      -6.654  14.237  23.350  0.00  0.00    +0.000 A 
ATOM      6  C   UNL     1      -7.137  13.114  24.103  0.00  0.00    +0.000 A 
ATOM      7  C   UNL     1      -7.756  12.022  23.487  0.00  0.00    +0.000 A 
ATOM      8  C   UNL     1      -7.916  12.067  22.121  0.00  0.00    +0.000 A 
ATOM      9  C   UNL     1      -7.315  13.125  21.385  0.00  0.00    +0.000 A 
ATOM     10  N   UNL     1      -7.083  12.785  20.043  0.00  0.00    +0.000 N 
ATOM     11  C   UNL     1      -5.932  12.024  19.906  0.00  0.00    +0.000 C 
ATOM     12  O   UNL     1      -5.800  11.263  18.936  0.00  0.00    +0.000 OA
ATOM     13  C   UNL     1      -4.765  12.243  20.935  0.00  0.00    +0.000 C 
ATOM     14  O   UNL     1      -4.580  12.620  22.275  0.00  0.00    +0.000 OA
ATOM     15  C   UNL     1      -3.271  13.062  22.687  0.00  0.00    +0.000 C 
ATOM     16  C   UNL     1      -2.066  12.564  21.730  0.00  0.00    +0.000 C 
ATOM     17  C   UNL     1      -1.056  13.630  21.907  0.00  0.00    +0.000 C 
ATOM     18  O   UNL     1      -0.100  13.461  22.651  0.00  0.00    +0.000 OA
ATOM     19  N   UNL     1      -1.363  14.875  21.477  0.00  0.00    +0.000 N 
ATOM     20  H   UNL     1      -7.820  12.320  19.533  0.00  0.00    +0.000 HD
ATOM     21  H   UNL     1      -0.593  15.492  21.775  0.00  0.00    +0.000 HD
ENDROOT
BRANCH   1  24
ATOM     22  C   UNL     1       0.321  17.213  18.163  0.00  0.00    +0.000 C 
ATOM     23  N   UNL     1      -0.983  16.848  18.700  0.00  0.00    +0.000 N 
ATOM     24  C   UNL     1      -1.151  16.593  20.037  0.00  0.00    +0.000 C 
ATOM     25  O   UNL     1      -0.320  17.015  20.856  0.00  0.00    +0.000 OA
ATOM     26  H   UNL     1      -1.690  16.553  18.041  0.00  0.00    +0.000 HD
ENDBRANCH   1  24
BRANCH  15  27
ATOM     27  C   UNL     1      -3.187  14.559  23.463  0.00  0.00    +0.000 C 
ATOM     28  O   UNL     1      -3.885  15.540  23.129  0.00  0.00    +0.000 OA
ATOM     29  N   UNL     1      -2.373  14.763  24.559  0.00  0.00    +0.000 N 
ATOM     30  H   UNL     1      -1.597  14.146  24.792  0.00  0.00    +0.000 HD
BRANCH  29  31
ATOM     31  O   UNL     1      -2.160  16.118  24.955  0.00  0.00    +0.000 OA
ATOM     32  H   UNL     1      -3.064  16.459  25.132  0.00  0.00    +0.000 HD
ENDBRANCH  29  31
ENDBRANCH  15  27
BRANCH  16  33
ATOM     33  C   UNL     1      -2.119  12.257  20.187  0.00  0.00    +0.000 C 
BRANCH  33  34
ATOM     34  C   UNL     1      -0.886  11.895  19.359  0.00  0.00    +0.000 C 
ATOM     35  C   UNL     1      -0.811  10.462  18.883  0.00  0.00    +0.000 C 
ATOM     36  C   UNL     1      -0.654  12.918  18.252  0.00  0.00    +0.000 C 
ENDBRANCH  33  34
ENDBRANCH  16  33
TORSDOF 5
ENDMDL
