MODEL 1
REMARK VINA RESULT:      -8.0      0.000      0.000
REMARK  Name = 
REMARK  6 active torsions:
REMARK  status: ('A' for Active; 'I' for Inactive)
REMARK    1  A    between atoms: C_1  and  C_2
REMARK    2  A    between atoms: C_6  and  C_8
REMARK    3  A    between atoms: C_11  and  C_12
REMARK    4  A    between atoms: C_12  and  N_13
REMARK    5  A    between atoms: C_15  and  C_16
REMARK    6  A    between atoms: C_19  and  C_20
REMARK                            x       y       z     vdW  Elec       q    Type
REMARK                         _______ _______ _______ _____ _____    ______ ____
ROOT
ATOM      1  C   UNL     1       6.770   5.602  17.194  0.00  0.00    +0.000 A 
ATOM      2  C   UNL     1       7.195   4.765  16.180  0.00  0.00    +0.000 A 
ATOM      3  C   UNL     1       6.068   4.031  15.750  0.00  0.00    +0.000 A 
ATOM      4  C   UNL     1       5.014   4.441  16.539  0.00  0.00    +0.000 A 
ATOM      5  O   UNL     1       5.426   5.420  17.405  0.00  0.00    +0.000 OA
ENDROOT
BRANCH   1  11
ATOM      6  C   UNL     1       9.485  12.334  18.397  0.00  0.00    +0.000 C 
ATOM      7  C   UNL     1       9.026  10.936  18.327  0.00  0.00    +0.000 A 
ATOM      8  C   UNL     1       8.269  10.201  17.447  0.00  0.00    +0.000 A 
ATOM      9  C   UNL     1       8.224   8.899  18.008  0.00  0.00    +0.000 A 
ATOM     10  N   UNL     1       7.560   7.826  17.440  0.00  0.00    +0.000 N 
ATOM     11  C   UNL     1       7.525   6.558  17.987  0.00  0.00    +0.000 C 
ATOM     12  O   UNL     1       8.064   6.217  19.035  0.00  0.00    +0.000 OA
ATOM     13  N   UNL     1       8.914   8.865  19.152  0.00  0.00    +0.000 NA
ATOM     14  O   UNL     1       9.412  10.133  19.351  0.00  0.00    +0.000 OA
ATOM     15  H   UNL     1       7.072   7.975  16.570  0.00  0.00    +0.000 HD
ENDBRANCH   1  11
BRANCH   4  16
ATOM     16  C   UNL     1       3.594   4.011  16.616  0.00  0.00    +0.000 C 
BRANCH  16  17
ATOM     17  N   UNL     1       3.124   4.075  17.997  0.00  0.00    +0.000 N 
ATOM     18  N   UNL     1       2.709   5.263  18.500  0.00  0.00    +0.000 NA
ATOM     19  C   UNL     1       2.279   4.965  19.735  0.00  0.00    +0.000 A 
ATOM     20  C   UNL     1       1.704   6.017  20.610  0.00  0.00    +0.000 C 
ATOM     21  C   UNL     1       2.460   3.598  20.017  0.00  0.00    +0.000 A 
ATOM     22 BR   UNL     1       1.985   2.749  21.617  0.00  0.00    +0.000 Br
ATOM     23  C   UNL     1       3.042   3.041  18.903  0.00  0.00    +0.000 A 
ATOM     24  C   UNL     1       3.494   1.659  18.615  0.00  0.00    +0.000 C 
ENDBRANCH  16  17
ENDBRANCH   4  16
TORSDOF 3
ENDMDL
MODEL 2
REMARK VINA RESULT:      -7.8      3.979      6.853
REMARK  Name = 
REMARK  6 active torsions:
REMARK  status: ('A' for Active; 'I' for Inactive)
REMARK    1  A    between atoms: C_1  and  C_2
REMARK    2  A    between atoms: C_6  and  C_8
REMARK    3  A    between atoms: C_11  and  C_12
REMARK    4  A    between atoms: C_12  and  N_13
REMARK    5  A    between atoms: C_15  and  C_16
REMARK    6  A    between atoms: C_19  and  C_20
REMARK                            x       y       z     vdW  Elec       q    Type
REMARK                         _______ _______ _______ _____ _____    ______ ____
ROOT
ATOM      1  C   UNL     1       1.916   5.804  20.335  0.00  0.00    +0.000 A 
ATOM      2  C   UNL     1       1.054   4.756  20.598  0.00  0.00    +0.000 A 
ATOM      3  C   UNL     1       1.801   3.565  20.466  0.00  0.00    +0.000 A 
ATOM      4  C   UNL     1       3.077   3.945  20.107  0.00  0.00    +0.000 A 
ATOM      5  O   UNL     1       3.165   5.311  20.051  0.00  0.00    +0.000 OA
ENDROOT
BRANCH   1  11
ATOM      6  C   UNL     1      -1.271  11.855  23.051  0.00  0.00    +0.000 C 
ATOM      7  C   UNL     1      -0.551  10.762  22.373  0.00  0.00    +0.000 A 
ATOM      8  C   UNL     1      -0.430   9.408  22.566  0.00  0.00    +0.000 A 
ATOM      9  C   UNL     1       0.432   8.970  21.527  0.00  0.00    +0.000 A 
ATOM     10  N   UNL     1       0.826   7.657  21.340  0.00  0.00    +0.000 N 
ATOM     11  C   UNL     1       1.660   7.235  20.323  0.00  0.00    +0.000 C 
ATOM     12  O   UNL     1       2.161   7.954  19.465  0.00  0.00    +0.000 OA
ATOM     13  N   UNL     1       0.799  10.005  20.765  0.00  0.00    +0.000 NA
ATOM     14  O   UNL     1       0.188  11.120  21.292  0.00  0.00    +0.000 OA
ATOM     15  H   UNL     1       0.482   6.961  21.984  0.00  0.00    +0.000 HD
ENDBRANCH   1  11
BRANCH   4  16
ATOM     16  C   UNL     1       4.297   3.166  19.771  0.00  0.00    +0.000 C 
BRANCH  16  17
ATOM     17  N   UNL     1       5.170   3.949  18.901  0.00  0.00    +0.000 N 
ATOM     18  N   UNL     1       6.153   4.702  19.454  0.00  0.00    +0.000 NA
ATOM     19  C   UNL     1       6.804   5.219  18.402  0.00  0.00    +0.000 A 
ATOM     20  C   UNL     1       7.991   6.087  18.599  0.00  0.00    +0.000 C 
ATOM     21  C   UNL     1       6.203   4.821  17.192  0.00  0.00    +0.000 A 
ATOM     22 BR   UNL     1       6.795   5.300  15.481  0.00  0.00    +0.000 Br
ATOM     23  C   UNL     1       5.127   4.035  17.527  0.00  0.00    +0.000 A 
ATOM     24  C   UNL     1       4.105   3.358  16.694  0.00  0.00    +0.000 C 
ENDBRANCH  16  17
ENDBRANCH   4  16
TORSDOF 3
ENDMDL
MODEL 3
REMARK VINA RESULT:      -7.6      1.545      2.168
REMARK  Name = 
REMARK  6 active torsions:
REMARK  status: ('A' for Active; 'I' for Inactive)
REMARK    1  A    between atoms: C_1  and  C_2
REMARK    2  A    between atoms: C_6  and  C_8
REMARK    3  A    between atoms: C_11  and  C_12
REMARK    4  A    between atoms: C_12  and  N_13
REMARK    5  A    between atoms: C_15  and  C_16
REMARK    6  A    between atoms: C_19  and  C_20
REMARK                            x       y       z     vdW  Elec       q    Type
REMARK                         _______ _______ _______ _____ _____    ______ ____
ROOT
ATOM      1  C   UNL     1       7.592   7.169  18.114  0.00  0.00    +0.000 A 
ATOM      2  C   UNL     1       8.124   6.202  18.946  0.00  0.00    +0.000 A 
ATOM      3  C   UNL     1       7.371   5.025  18.745  0.00  0.00    +0.000 A 
ATOM      4  C   UNL     1       6.401   5.339  17.816  0.00  0.00    +0.000 A 
ATOM      5  O   UNL     1       6.545   6.637  17.404  0.00  0.00    +0.000 OA
ENDROOT
BRANCH   1  11
ATOM      6  C   UNL     1      11.064  13.272  20.313  0.00  0.00    +0.000 C 
ATOM      7  C   UNL     1      10.315  12.154  19.714  0.00  0.00    +0.000 A 
ATOM      8  C   UNL     1      10.068  10.848  20.062  0.00  0.00    +0.000 A 
ATOM      9  C   UNL     1       9.262  10.339  19.012  0.00  0.00    +0.000 A 
ATOM     10  N   UNL     1       8.774   9.046  18.957  0.00  0.00    +0.000 N 
ATOM     11  C   UNL     1       7.984   8.557  17.935  0.00  0.00    +0.000 C 
ATOM     12  O   UNL     1       7.615   9.191  16.951  0.00  0.00    +0.000 OA
ATOM     13  N   UNL     1       9.044  11.289  18.096  0.00  0.00    +0.000 NA
ATOM     14  O   UNL     1       9.700  12.417  18.533  0.00  0.00    +0.000 OA
ATOM     15  H   UNL     1       9.008   8.417  19.710  0.00  0.00    +0.000 HD
ENDBRANCH   1  11
BRANCH   4  16
ATOM     16  C   UNL     1       5.280   4.556  17.236  0.00  0.00    +0.000 C 
BRANCH  16  17
ATOM     17  N   UNL     1       4.150   4.534  18.160  0.00  0.00    +0.000 N 
ATOM     18  N   UNL     1       3.800   5.674  18.805  0.00  0.00    +0.000 NA
ATOM     19  C   UNL     1       2.704   5.336  19.499  0.00  0.00    +0.000 A 
ATOM     20  C   UNL     1       1.989   6.344  20.321  0.00  0.00    +0.000 C 
ATOM     21  C   UNL     1       2.391   3.976  19.319  0.00  0.00    +0.000 A 
ATOM     22 BR   UNL     1       0.934   3.088  20.091  0.00  0.00    +0.000 Br
ATOM     23  C   UNL     1       3.353   3.458  18.485  0.00  0.00    +0.000 A 
ATOM     24  C   UNL     1       3.570   2.088  17.963  0.00  0.00    +0.000 C 
ENDBRANCH  16  17
ENDBRANCH   4  16
TORSDOF 3
ENDMDL
MODEL 4
REMARK VINA RESULT:      -7.6      0.938      1.671
REMARK  Name = 
REMARK  6 active torsions:
REMARK  status: ('A' for Active; 'I' for Inactive)
REMARK    1  A    between atoms: C_1  and  C_2
REMARK    2  A    between atoms: C_6  and  C_8
REMARK    3  A    between atoms: C_11  and  C_12
REMARK    4  A    between atoms: C_12  and  N_13
REMARK    5  A    between atoms: C_15  and  C_16
REMARK    6  A    between atoms: C_19  and  C_20
REMARK                            x       y       z     vdW  Elec       q    Type
REMARK                         _______ _______ _______ _____ _____    ______ ____
ROOT
ATOM      1  C   UNL     1       6.878   5.722  17.193  0.00  0.00    +0.000 A 
ATOM      2  C   UNL     1       7.299   4.954  16.124  0.00  0.00    +0.000 A 
ATOM      3  C   UNL     1       6.197   4.168  15.722  0.00  0.00    +0.000 A 
ATOM      4  C   UNL     1       5.164   4.480  16.580  0.00  0.00    +0.000 A 
ATOM      5  O   UNL     1       5.560   5.448  17.464  0.00  0.00    +0.000 OA
ENDROOT
BRANCH   1  11
ATOM      6  C   UNL     1       9.453  12.507  18.407  0.00  0.00    +0.000 C 
ATOM      7  C   UNL     1       9.023  11.100  18.335  0.00  0.00    +0.000 A 
ATOM      8  C   UNL     1       8.280  10.351  17.455  0.00  0.00    +0.000 A 
ATOM      9  C   UNL     1       8.264   9.047  18.012  0.00  0.00    +0.000 A 
ATOM     10  N   UNL     1       7.621   7.962  17.444  0.00  0.00    +0.000 N 
ATOM     11  C   UNL     1       7.614   6.692  17.987  0.00  0.00    +0.000 C 
ATOM     12  O   UNL     1       8.164   6.359  19.032  0.00  0.00    +0.000 OA
ATOM     13  N   UNL     1       8.958   9.025  19.154  0.00  0.00    +0.000 NA
ATOM     14  O   UNL     1       9.429  10.303  19.355  0.00  0.00    +0.000 OA
ATOM     15  H   UNL     1       7.128   8.103  16.576  0.00  0.00    +0.000 HD
ENDBRANCH   1  11
BRANCH   4  16
ATOM     16  C   UNL     1       3.778   3.959  16.711  0.00  0.00    +0.000 C 
BRANCH  16  17
ATOM     17  N   UNL     1       3.575   3.400  18.044  0.00  0.00    +0.000 N 
ATOM     18  N   UNL     1       4.562   2.663  18.610  0.00  0.00    +0.000 NA
ATOM     19  C   UNL     1       4.096   2.374  19.834  0.00  0.00    +0.000 A 
ATOM     20  C   UNL     1       4.919   1.596  20.793  0.00  0.00    +0.000 C 
ATOM     21  C   UNL     1       2.802   2.897  20.018  0.00  0.00    +0.000 A 
ATOM     22 BR   UNL     1       1.783   2.742  21.582  0.00  0.00    +0.000 Br
ATOM     23  C   UNL     1       2.460   3.523  18.843  0.00  0.00    +0.000 A 
ATOM     24  C   UNL     1       1.224   4.226  18.426  0.00  0.00    +0.000 C 
ENDBRANCH  16  17
ENDBRANCH   4  16
TORSDOF 3
ENDMDL
MODEL 5
REMARK VINA RESULT:      -7.5      2.311      3.739
REMARK  Name = 
REMARK  6 active torsions:
REMARK  status: ('A' for Active; 'I' for Inactive)
REMARK    1  A    between atoms: C_1  and  C_2
REMARK    2  A    between atoms: C_6  and  C_8
REMARK    3  A    between atoms: C_11  and  C_12
REMARK    4  A    between atoms: C_12  and  N_13
REMARK    5  A    between atoms: C_15  and  C_16
REMARK    6  A    between atoms: C_19  and  C_20
REMARK                            x       y       z     vdW  Elec       q    Type
REMARK                         _______ _______ _______ _____ _____    ______ ____
ROOT
ATOM      1  C   UNL     1       8.349   8.851  18.359  0.00  0.00    +0.000 A 
ATOM      2  C   UNL     1       7.396   8.864  17.358  0.00  0.00    +0.000 A 
ATOM      3  C   UNL     1       6.926   7.540  17.219  0.00  0.00    +0.000 A 
ATOM      4  C   UNL     1       7.632   6.780  18.128  0.00  0.00    +0.000 A 
ATOM      5  O   UNL     1       8.483   7.575  18.847  0.00  0.00    +0.000 OA
ENDROOT
BRANCH   1  11
ATOM      6  C   UNL     1      12.333  14.983  17.545  0.00  0.00    +0.000 C 
ATOM      7  C   UNL     1      11.572  13.773  17.901  0.00  0.00    +0.000 A 
ATOM      8  C   UNL     1      10.838  12.843  17.205  0.00  0.00    +0.000 A 
ATOM      9  C   UNL     1      10.377  11.934  18.192  0.00  0.00    +0.000 A 
ATOM     10  N   UNL     1       9.592  10.826  17.928  0.00  0.00    +0.000 N 
ATOM     11  C   UNL     1       9.151   9.940  18.892  0.00  0.00    +0.000 C 
ATOM     12  O   UNL     1       9.387  10.016  20.093  0.00  0.00    +0.000 OA
ATOM     13  N   UNL     1      10.813  12.304  19.400  0.00  0.00    +0.000 NA
ATOM     14  O   UNL     1      11.556  13.449  19.219  0.00  0.00    +0.000 OA
ATOM     15  H   UNL     1       9.324  10.649  16.972  0.00  0.00    +0.000 HD
ENDBRANCH   1  11
BRANCH   4  16
ATOM     16  C   UNL     1       7.637   5.324  18.426  0.00  0.00    +0.000 C 
BRANCH  16  17
ATOM     17  N   UNL     1       6.269   4.820  18.496  0.00  0.00    +0.000 N 
ATOM     18  N   UNL     1       5.597   4.892  19.671  0.00  0.00    +0.000 NA
ATOM     19  C   UNL     1       4.373   4.429  19.380  0.00  0.00    +0.000 A 
ATOM     20  C   UNL     1       3.314   4.383  20.418  0.00  0.00    +0.000 C 
ATOM     21  C   UNL     1       4.292   4.030  18.032  0.00  0.00    +0.000 A 
ATOM     22 BR   UNL     1       2.766   3.337  17.197  0.00  0.00    +0.000 Br
ATOM     23  C   UNL     1       5.532   4.250  17.482  0.00  0.00    +0.000 A 
ATOM     24  C   UNL     1       6.063   4.000  16.121  0.00  0.00    +0.000 C 
ENDBRANCH  16  17
ENDBRANCH   4  16
TORSDOF 3
ENDMDL
MODEL 6
REMARK VINA RESULT:      -7.5      5.132      7.764
REMARK  Name = 
REMARK  6 active torsions:
REMARK  status: ('A' for Active; 'I' for Inactive)
REMARK    1  A    between atoms: C_1  and  C_2
REMARK    2  A    between atoms: C_6  and  C_8
REMARK    3  A    between atoms: C_11  and  C_12
REMARK    4  A    between atoms: C_12  and  N_13
REMARK    5  A    between atoms: C_15  and  C_16
REMARK    6  A    between atoms: C_19  and  C_20
REMARK                            x       y       z     vdW  Elec       q    Type
REMARK                         _______ _______ _______ _____ _____    ______ ____
ROOT
ATOM      1  C   UNL     1       1.848   7.754  19.847  0.00  0.00    +0.000 A 
ATOM      2  C   UNL     1       1.268   7.919  21.090  0.00  0.00    +0.000 A 
ATOM      3  C   UNL     1       0.648   9.187  21.091  0.00  0.00    +0.000 A 
ATOM      4  C   UNL     1       0.899   9.743  19.855  0.00  0.00    +0.000 A 
ATOM      5  O   UNL     1       1.607   8.865  19.078  0.00  0.00    +0.000 OA
ENDROOT
BRANCH   1  11
ATOM      6  C   UNL     1       6.471   4.785  14.953  0.00  0.00    +0.000 C 
ATOM      7  C   UNL     1       5.544   5.202  16.019  0.00  0.00    +0.000 A 
ATOM      8  C   UNL     1       4.912   6.374  16.358  0.00  0.00    +0.000 A 
ATOM      9  C   UNL     1       4.156   6.055  17.516  0.00  0.00    +0.000 A 
ATOM     10  N   UNL     1       3.355   6.954  18.198  0.00  0.00    +0.000 N 
ATOM     11  C   UNL     1       2.616   6.638  19.321  0.00  0.00    +0.000 C 
ATOM     12  O   UNL     1       2.574   5.537  19.861  0.00  0.00    +0.000 OA
ATOM     13  N   UNL     1       4.331   4.771  17.842  0.00  0.00    +0.000 NA
ATOM     14  O   UNL     1       5.195   4.241  16.911  0.00  0.00    +0.000 OA
ATOM     15  H   UNL     1       3.303   7.901  17.854  0.00  0.00    +0.000 HD
ENDBRANCH   1  11
BRANCH   4  16
ATOM     16  C   UNL     1       0.567  11.066  19.265  0.00  0.00    +0.000 C 
BRANCH  16  17
ATOM     17  N   UNL     1      -0.771  11.033  18.680  0.00  0.00    +0.000 N 
ATOM     18  N   UNL     1      -0.981  10.318  17.548  0.00  0.00    +0.000 NA
ATOM     19  C   UNL     1      -2.299  10.431  17.327  0.00  0.00    +0.000 A 
ATOM     20  C   UNL     1      -2.935   9.743  16.176  0.00  0.00    +0.000 C 
ATOM     21  C   UNL     1      -2.905  11.250  18.298  0.00  0.00    +0.000 A 
ATOM     22 BR   UNL     1      -4.729  11.666  18.379  0.00  0.00    +0.000 Br
ATOM     23  C   UNL     1      -1.903  11.665  19.143  0.00  0.00    +0.000 A 
ATOM     24  C   UNL     1      -1.921  12.558  20.326  0.00  0.00    +0.000 C 
ENDBRANCH  16  17
ENDBRANCH   4  16
TORSDOF 3
ENDMDL
MODEL 7
REMARK VINA RESULT:      -7.3      5.331      7.847
REMARK  Name = 
REMARK  6 active torsions:
REMARK  status: ('A' for Active; 'I' for Inactive)
REMARK    1  A    between atoms: C_1  and  C_2
REMARK    2  A    between atoms: C_6  and  C_8
REMARK    3  A    between atoms: C_11  and  C_12
REMARK    4  A    between atoms: C_12  and  N_13
REMARK    5  A    between atoms: C_15  and  C_16
REMARK    6  A    between atoms: C_19  and  C_20
REMARK                            x       y       z     vdW  Elec       q    Type
REMARK                         _______ _______ _______ _____ _____    ______ ____
ROOT
ATOM      1  C   UNL     1       1.827   7.846  19.783  0.00  0.00    +0.000 A 
ATOM      2  C   UNL     1       1.286   8.150  21.018  0.00  0.00    +0.000 A 
ATOM      3  C   UNL     1       0.690   9.425  20.904  0.00  0.00    +0.000 A 
ATOM      4  C   UNL     1       0.917   9.846  19.611  0.00  0.00    +0.000 A 
ATOM      5  O   UNL     1       1.586   8.877  18.910  0.00  0.00    +0.000 OA
ENDROOT
BRANCH   1  11
ATOM      6  C   UNL     1       6.404   4.348  15.205  0.00  0.00    +0.000 C 
ATOM      7  C   UNL     1       5.478   4.878  16.221  0.00  0.00    +0.000 A 
ATOM      8  C   UNL     1       4.887   6.095  16.461  0.00  0.00    +0.000 A 
ATOM      9  C   UNL     1       4.102   5.893  17.626  0.00  0.00    +0.000 A 
ATOM     10  N   UNL     1       3.327   6.869  18.225  0.00  0.00    +0.000 N 
ATOM     11  C   UNL     1       2.559   6.666  19.355  0.00  0.00    +0.000 C 
ATOM     12  O   UNL     1       2.466   5.610  19.974  0.00  0.00    +0.000 OA
ATOM     13  N   UNL     1       4.222   4.631  18.049  0.00  0.00    +0.000 NA
ATOM     14  O   UNL     1       5.079   4.000  17.176  0.00  0.00    +0.000 OA
ATOM     15  H   UNL     1       3.317   7.789  17.811  0.00  0.00    +0.000 HD
ENDBRANCH   1  11
BRANCH   4  16
ATOM     16  C   UNL     1       0.592  11.108  18.897  0.00  0.00    +0.000 C 
BRANCH  16  17
ATOM     17  N   UNL     1      -0.835  11.396  19.008  0.00  0.00    +0.000 N 
ATOM     18  N   UNL     1      -1.265  12.247  19.971  0.00  0.00    +0.000 NA
ATOM     19  C   UNL     1      -2.584  12.351  19.754  0.00  0.00    +0.000 A 
ATOM     20  C   UNL     1      -3.422  13.241  20.596  0.00  0.00    +0.000 C 
ATOM     21  C   UNL     1      -2.985  11.534  18.679  0.00  0.00    +0.000 A 
ATOM     22 BR   UNL     1      -4.733  11.385  18.025  0.00  0.00    +0.000 Br
ATOM     23  C   UNL     1      -1.855  10.892  18.231  0.00  0.00    +0.000 A 
ATOM     24  C   UNL     1      -1.652   9.895  17.154  0.00  0.00    +0.000 C 
ENDBRANCH  16  17
ENDBRANCH   4  16
TORSDOF 3
ENDMDL
MODEL 8
REMARK VINA RESULT:      -7.3      1.101      2.082
REMARK  Name = 
REMARK  6 active torsions:
REMARK  status: ('A' for Active; 'I' for Inactive)
REMARK    1  A    between atoms: C_1  and  C_2
REMARK    2  A    between atoms: C_6  and  C_8
REMARK    3  A    between atoms: C_11  and  C_12
REMARK    4  A    between atoms: C_12  and  N_13
REMARK    5  A    between atoms: C_15  and  C_16
REMARK    6  A    between atoms: C_19  and  C_20
REMARK                            x       y       z     vdW  Elec       q    Type
REMARK                         _______ _______ _______ _____ _____    ______ ____
ROOT
ATOM      1  C   UNL     1       6.867   6.996  17.425  0.00  0.00    +0.000 A 
ATOM      2  C   UNL     1       7.040   6.103  16.385  0.00  0.00    +0.000 A 
ATOM      3  C   UNL     1       5.768   5.567  16.086  0.00  0.00    +0.000 A 
ATOM      4  C   UNL     1       4.885   6.143  16.975  0.00  0.00    +0.000 A 
ATOM      5  O   UNL     1       5.541   7.038  17.778  0.00  0.00    +0.000 OA
ENDROOT
BRANCH   1  11
ATOM      6  C   UNL     1      10.234  13.409  18.721  0.00  0.00    +0.000 C 
ATOM      7  C   UNL     1       9.678  12.050  18.600  0.00  0.00    +0.000 A 
ATOM      8  C   UNL     1       8.690  11.464  17.847  0.00  0.00    +0.000 A 
ATOM      9  C   UNL     1       8.689  10.103  18.247  0.00  0.00    +0.000 A 
ATOM     10  N   UNL     1       7.841   9.138  17.733  0.00  0.00    +0.000 N 
ATOM     11  C   UNL     1       7.848   7.812  18.121  0.00  0.00    +0.000 C 
ATOM     12  O   UNL     1       8.591   7.319  18.963  0.00  0.00    +0.000 OA
ATOM     13  N   UNL     1       9.622   9.896  19.181  0.00  0.00    +0.000 NA
ATOM     14  O   UNL     1      10.237  11.108  19.401  0.00  0.00    +0.000 OA
ATOM     15  H   UNL     1       7.175   9.417  17.028  0.00  0.00    +0.000 HD
ENDBRANCH   1  11
BRANCH   4  16
ATOM     16  C   UNL     1       3.430   5.952  17.206  0.00  0.00    +0.000 C 
BRANCH  16  17
ATOM     17  N   UNL     1       3.206   4.811  18.089  0.00  0.00    +0.000 N 
ATOM     18  N   UNL     1       3.528   3.567  17.656  0.00  0.00    +0.000 NA
ATOM     19  C   UNL     1       3.278   2.776  18.709  0.00  0.00    +0.000 A 
ATOM     20  C   UNL     1       3.544   1.318  18.641  0.00  0.00    +0.000 C 
ATOM     21  C   UNL     1       2.763   3.521  19.788  0.00  0.00    +0.000 A 
ATOM     22 BR   UNL     1       2.290   2.821  21.459  0.00  0.00    +0.000 Br
ATOM     23  C   UNL     1       2.684   4.826  19.363  0.00  0.00    +0.000 A 
ATOM     24  C   UNL     1       2.197   6.052  20.037  0.00  0.00    +0.000 C 
ENDBRANCH  16  17
ENDBRANCH   4  16
TORSDOF 3
ENDMDL
MODEL 9
REMARK VINA RESULT:      -7.3      1.743      2.801
REMARK  Name = 
REMARK  6 active torsions:
REMARK  status: ('A' for Active; 'I' for Inactive)
REMARK    1  A    between atoms: C_1  and  C_2
REMARK    2  A    between atoms: C_6  and  C_8
REMARK    3  A    between atoms: C_11  and  C_12
REMARK    4  A    between atoms: C_12  and  N_13
REMARK    5  A    between atoms: C_15  and  C_16
REMARK    6  A    between atoms: C_19  and  C_20
REMARK                            x       y       z     vdW  Elec       q    Type
REMARK                         _______ _______ _______ _____ _____    ______ ____
ROOT
ATOM      1  C   UNL     1       7.510   7.408  17.840  0.00  0.00    +0.000 A 
ATOM      2  C   UNL     1       7.954   6.388  18.661  0.00  0.00    +0.000 A 
ATOM      3  C   UNL     1       7.251   5.222  18.287  0.00  0.00    +0.000 A 
ATOM      4  C   UNL     1       6.397   5.593  17.270  0.00  0.00    +0.000 A 
ATOM      5  O   UNL     1       6.566   6.919  16.971  0.00  0.00    +0.000 OA
ENDROOT
BRANCH   1  11
ATOM      6  C   UNL     1      11.183  13.194  20.517  0.00  0.00    +0.000 C 
ATOM      7  C   UNL     1      10.382  12.158  19.841  0.00  0.00    +0.000 A 
ATOM      8  C   UNL     1      10.155  10.818  20.039  0.00  0.00    +0.000 A 
ATOM      9  C   UNL     1       9.265  10.444  18.999  0.00  0.00    +0.000 A 
ATOM     10  N   UNL     1       8.767   9.166  18.819  0.00  0.00    +0.000 N 
ATOM     11  C   UNL     1       7.895   8.809  17.808  0.00  0.00    +0.000 C 
ATOM     12  O   UNL     1       7.455   9.561  16.945  0.00  0.00    +0.000 OA
ATOM     13  N   UNL     1       8.982  11.501  18.232  0.00  0.00    +0.000 NA
ATOM     14  O   UNL     1       9.678  12.568  18.755  0.00  0.00    +0.000 OA
ATOM     15  H   UNL     1       9.054   8.448  19.466  0.00  0.00    +0.000 HD
ENDBRANCH   1  11
BRANCH   4  16
ATOM     16  C   UNL     1       5.369   4.843  16.502  0.00  0.00    +0.000 C 
BRANCH  16  17
ATOM     17  N   UNL     1       4.330   4.349  17.402  0.00  0.00    +0.000 N 
ATOM     18  N   UNL     1       4.206   3.014  17.599  0.00  0.00    +0.000 NA
ATOM     19  C   UNL     1       3.234   2.905  18.517  0.00  0.00    +0.000 A 
ATOM     20  C   UNL     1       2.825   1.575  19.032  0.00  0.00    +0.000 C 
ATOM     21  C   UNL     1       2.725   4.171  18.864  0.00  0.00    +0.000 A 
ATOM     22 BR   UNL     1       1.370   4.487  20.118  0.00  0.00    +0.000 Br
ATOM     23  C   UNL     1       3.412   5.092  18.109  0.00  0.00    +0.000 A 
ATOM     24  C   UNL     1       3.300   6.567  18.015  0.00  0.00    +0.000 C 
ENDBRANCH  16  17
ENDBRANCH   4  16
TORSDOF 3
ENDMDL
