MODEL 1
REMARK VINA RESULT:      -6.4      0.000      0.000
REMARK  Name = 
REMARK  3 active torsions:
REMARK  status: ('A' for Active; 'I' for Inactive)
REMARK    1  A    between atoms: C_4  and  C_5
REMARK    2  A    between atoms: C_10  and  C_11
REMARK    3  A    between atoms: C_11  and  N_12
REMARK                            x       y       z     vdW  Elec       q    Type
REMARK                         _______ _______ _______ _____ _____    ______ ____
ROOT
ATOM      1  C   UNL     1       2.442   6.012  19.224  0.00  0.00    +0.000 A 
ATOM      2  N   UNL     1       1.795   7.116  19.684  0.00  0.00    +0.000 NA
ATOM      3  C   UNL     1       1.979   8.292  19.051  0.00  0.00    +0.000 A 
ATOM      4  C   UNL     1       2.788   8.441  17.945  0.00  0.00    +0.000 A 
ATOM      5  C   UNL     1       3.448   7.316  17.470  0.00  0.00    +0.000 A 
ATOM      6  C   UNL     1       3.289   6.072  18.108  0.00  0.00    +0.000 A 
ENDROOT
BRANCH   1  10
ATOM      7  C   UNL     1       2.026   3.146  21.688  0.00  0.00    +0.000 A 
ATOM      8  C   UNL     1       1.310   2.543  20.685  0.00  0.00    +0.000 A 
ATOM      9  S   UNL     1       1.206   3.529  19.294  0.00  0.00    +0.000 S 
ATOM     10  C   UNL     1       2.151   4.790  20.007  0.00  0.00    +0.000 A 
ATOM     11  C   UNL     1       2.529   4.418  21.289  0.00  0.00    +0.000 A 
ENDBRANCH   1  10
BRANCH   6  12
ATOM     12  C   UNL     1       4.034   4.890  17.545  0.00  0.00    +0.000 C 
BRANCH  12  13
ATOM     13  N   UNL     1       5.465   4.898  17.817  0.00  0.00    +0.000 N 
ATOM     14  C   UNL     1       6.508   4.603  16.981  0.00  0.00    +0.000 A 
ATOM     15  C   UNL     1       7.632   4.670  17.769  0.00  0.00    +0.000 A 
ATOM     16  N   UNL     1       7.304   5.009  19.054  0.00  0.00    +0.000 NA
ATOM     17  C   UNL     1       5.998   5.142  19.055  0.00  0.00    +0.000 A 
ENDBRANCH  12  13
ENDBRANCH   6  12
TORSDOF 3
ENDMDL
MODEL 2
REMARK VINA RESULT:      -6.4      1.861      3.849
REMARK  Name = 
REMARK  3 active torsions:
REMARK  status: ('A' for Active; 'I' for Inactive)
REMARK    1  A    between atoms: C_4  and  C_5
REMARK    2  A    between atoms: C_10  and  C_11
REMARK    3  A    between atoms: C_11  and  N_12
REMARK                            x       y       z     vdW  Elec       q    Type
REMARK                         _______ _______ _______ _____ _____    ______ ____
ROOT
ATOM      1  C   UNL     1       2.676   4.520  18.805  0.00  0.00    +0.000 A 
ATOM      2  N   UNL     1       1.526   3.805  18.688  0.00  0.00    +0.000 NA
ATOM      3  C   UNL     1       1.594   2.458  18.665  0.00  0.00    +0.000 A 
ATOM      4  C   UNL     1       2.775   1.755  18.763  0.00  0.00    +0.000 A 
ATOM      5  C   UNL     1       3.952   2.481  18.885  0.00  0.00    +0.000 A 
ATOM      6  C   UNL     1       3.924   3.888  18.904  0.00  0.00    +0.000 A 
ENDROOT
BRANCH   1  10
ATOM      7  C   UNL     1       2.315   8.264  18.249  0.00  0.00    +0.000 A 
ATOM      8  C   UNL     1       1.902   8.299  19.557  0.00  0.00    +0.000 A 
ATOM      9  S   UNL     1       1.884   6.744  20.262  0.00  0.00    +0.000 S 
ATOM     10  C   UNL     1       2.461   5.984  18.819  0.00  0.00    +0.000 A 
ATOM     11  C   UNL     1       2.660   6.944  17.838  0.00  0.00    +0.000 A 
ENDBRANCH   1  10
BRANCH   6  12
ATOM     12  C   UNL     1       5.235   4.618  19.037  0.00  0.00    +0.000 C 
BRANCH  12  13
ATOM     13  N   UNL     1       6.025   4.661  17.813  0.00  0.00    +0.000 N 
ATOM     14  C   UNL     1       5.605   4.682  16.510  0.00  0.00    +0.000 A 
ATOM     15  C   UNL     1       6.756   4.621  15.761  0.00  0.00    +0.000 A 
ATOM     16  N   UNL     1       7.860   4.578  16.568  0.00  0.00    +0.000 NA
ATOM     17  C   UNL     1       7.393   4.606  17.795  0.00  0.00    +0.000 A 
ENDBRANCH  12  13
ENDBRANCH   6  12
TORSDOF 3
ENDMDL
MODEL 3
REMARK VINA RESULT:      -6.4      1.134      1.533
REMARK  Name = 
REMARK  3 active torsions:
REMARK  status: ('A' for Active; 'I' for Inactive)
REMARK    1  A    between atoms: C_4  and  C_5
REMARK    2  A    between atoms: C_10  and  C_11
REMARK    3  A    between atoms: C_11  and  N_12
REMARK                            x       y       z     vdW  Elec       q    Type
REMARK                         _______ _______ _______ _____ _____    ______ ____
ROOT
ATOM      1  C   UNL     1       2.518   5.675  18.727  0.00  0.00    +0.000 A 
ATOM      2  N   UNL     1       1.948   6.822  19.182  0.00  0.00    +0.000 NA
ATOM      3  C   UNL     1       2.337   8.000  18.650  0.00  0.00    +0.000 A 
ATOM      4  C   UNL     1       3.285   8.108  17.656  0.00  0.00    +0.000 A 
ATOM      5  C   UNL     1       3.868   6.939  17.187  0.00  0.00    +0.000 A 
ATOM      6  C   UNL     1       3.495   5.691  17.721  0.00  0.00    +0.000 A 
ENDROOT
BRANCH   1  10
ATOM      7  C   UNL     1       0.971   2.394  19.868  0.00  0.00    +0.000 A 
ATOM      8  C   UNL     1       1.441   2.741  21.109  0.00  0.00    +0.000 A 
ATOM      9  S   UNL     1       2.275   4.230  21.083  0.00  0.00    +0.000 S 
ATOM     10  C   UNL     1       2.000   4.457  19.391  0.00  0.00    +0.000 A 
ATOM     11  C   UNL     1       1.268   3.390  18.892  0.00  0.00    +0.000 A 
ENDBRANCH   1  10
BRANCH   6  12
ATOM     12  C   UNL     1       4.165   4.460  17.172  0.00  0.00    +0.000 C 
BRANCH  12  13
ATOM     13  N   UNL     1       5.619   4.474  17.269  0.00  0.00    +0.000 N 
ATOM     14  C   UNL     1       6.413   4.694  18.362  0.00  0.00    +0.000 A 
ATOM     15  C   UNL     1       7.700   4.693  17.877  0.00  0.00    +0.000 A 
ATOM     16  N   UNL     1       7.710   4.465  16.528  0.00  0.00    +0.000 NA
ATOM     17  C   UNL     1       6.450   4.335  16.188  0.00  0.00    +0.000 A 
ENDBRANCH  12  13
ENDBRANCH   6  12
TORSDOF 3
ENDMDL
MODEL 4
REMARK VINA RESULT:      -6.3      2.303      4.581
REMARK  Name = 
REMARK  3 active torsions:
REMARK  status: ('A' for Active; 'I' for Inactive)
REMARK    1  A    between atoms: C_4  and  C_5
REMARK    2  A    between atoms: C_10  and  C_11
REMARK    3  A    between atoms: C_11  and  N_12
REMARK                            x       y       z     vdW  Elec       q    Type
REMARK                         _______ _______ _______ _____ _____    ______ ____
ROOT
ATOM      1  C   UNL     1       3.443   6.138  17.881  0.00  0.00    +0.000 A 
ATOM      2  N   UNL     1       4.584   6.673  17.371  0.00  0.00    +0.000 NA
ATOM      3  C   UNL     1       5.385   5.899  16.610  0.00  0.00    +0.000 A 
ATOM      4  C   UNL     1       5.107   4.583  16.311  0.00  0.00    +0.000 A 
ATOM      5  C   UNL     1       3.943   4.033  16.828  0.00  0.00    +0.000 A 
ATOM      6  C   UNL     1       3.084   4.805  17.633  0.00  0.00    +0.000 A 
ENDROOT
BRANCH   1  10
ATOM      7  C   UNL     1       1.507   8.187  20.433  0.00  0.00    +0.000 A 
ATOM      8  C   UNL     1       1.315   9.071  19.402  0.00  0.00    +0.000 A 
ATOM      9  S   UNL     1       2.070   8.548  17.963  0.00  0.00    +0.000 S 
ATOM     10  C   UNL     1       2.657   7.094  18.693  0.00  0.00    +0.000 A 
ATOM     11  C   UNL     1       2.251   7.044  20.019  0.00  0.00    +0.000 A 
ENDBRANCH   1  10
BRANCH   6  12
ATOM     12  C   UNL     1       1.837   4.151  18.165  0.00  0.00    +0.000 C 
BRANCH  12  13
ATOM     13  N   UNL     1       1.966   3.624  19.518  0.00  0.00    +0.000 N 
ATOM     14  C   UNL     1       3.080   3.167  20.168  0.00  0.00    +0.000 A 
ATOM     15  C   UNL     1       2.623   2.698  21.377  0.00  0.00    +0.000 A 
ATOM     16  N   UNL     1       1.269   2.868  21.484  0.00  0.00    +0.000 NA
ATOM     17  C   UNL     1       0.900   3.428  20.356  0.00  0.00    +0.000 A 
ENDBRANCH  12  13
ENDBRANCH   6  12
TORSDOF 3
ENDMDL
MODEL 5
REMARK VINA RESULT:      -6.3      1.156      1.438
REMARK  Name = 
REMARK  3 active torsions:
REMARK  status: ('A' for Active; 'I' for Inactive)
REMARK    1  A    between atoms: C_4  and  C_5
REMARK    2  A    between atoms: C_10  and  C_11
REMARK    3  A    between atoms: C_11  and  N_12
REMARK                            x       y       z     vdW  Elec       q    Type
REMARK                         _______ _______ _______ _____ _____    ______ ____
ROOT
ATOM      1  C   UNL     1       2.818   5.739  18.967  0.00  0.00    +0.000 A 
ATOM      2  N   UNL     1       2.023   6.841  19.009  0.00  0.00    +0.000 NA
ATOM      3  C   UNL     1       2.372   7.925  18.285  0.00  0.00    +0.000 A 
ATOM      4  C   UNL     1       3.496   7.978  17.490  0.00  0.00    +0.000 A 
ATOM      5  C   UNL     1       4.309   6.855  17.442  0.00  0.00    +0.000 A 
ATOM      6  C   UNL     1       3.985   5.707  18.190  0.00  0.00    +0.000 A 
ENDROOT
BRANCH   1  10
ATOM      7  C   UNL     1       1.793   3.185  21.592  0.00  0.00    +0.000 A 
ATOM      8  C   UNL     1       1.252   2.494  20.537  0.00  0.00    +0.000 A 
ATOM      9  S   UNL     1       1.467   3.317  19.057  0.00  0.00    +0.000 S 
ATOM     10  C   UNL     1       2.321   4.623  19.803  0.00  0.00    +0.000 A 
ATOM     11  C   UNL     1       2.428   4.389  21.166  0.00  0.00    +0.000 A 
ENDBRANCH   1  10
BRANCH   6  12
ATOM     12  C   UNL     1       4.908   4.521  18.097  0.00  0.00    +0.000 C 
BRANCH  12  13
ATOM     13  N   UNL     1       5.781   4.530  16.930  0.00  0.00    +0.000 N 
ATOM     14  C   UNL     1       5.489   4.237  15.625  0.00  0.00    +0.000 A 
ATOM     15  C   UNL     1       6.692   4.305  14.963  0.00  0.00    +0.000 A 
ATOM     16  N   UNL     1       7.701   4.643  15.823  0.00  0.00    +0.000 NA
ATOM     17  C   UNL     1       7.128   4.774  16.997  0.00  0.00    +0.000 A 
ENDBRANCH  12  13
ENDBRANCH   6  12
TORSDOF 3
ENDMDL
MODEL 6
REMARK VINA RESULT:      -6.3      2.370      5.349
REMARK  Name = 
REMARK  3 active torsions:
REMARK  status: ('A' for Active; 'I' for Inactive)
REMARK    1  A    between atoms: C_4  and  C_5
REMARK    2  A    between atoms: C_10  and  C_11
REMARK    3  A    between atoms: C_11  and  N_12
REMARK                            x       y       z     vdW  Elec       q    Type
REMARK                         _______ _______ _______ _____ _____    ______ ____
ROOT
ATOM      1  C   UNL     1       3.996   4.781  18.152  0.00  0.00    +0.000 A 
ATOM      2  N   UNL     1       3.930   3.676  17.363  0.00  0.00    +0.000 NA
ATOM      3  C   UNL     1       2.761   3.009  17.271  0.00  0.00    +0.000 A 
ATOM      4  C   UNL     1       1.614   3.391  17.932  0.00  0.00    +0.000 A 
ATOM      5  C   UNL     1       1.677   4.520  18.737  0.00  0.00    +0.000 A 
ATOM      6  C   UNL     1       2.880   5.239  18.866  0.00  0.00    +0.000 A 
ENDROOT
BRANCH   1  10
ATOM      7  C   UNL     1       7.520   6.099  18.705  0.00  0.00    +0.000 A 
ATOM      8  C   UNL     1       7.311   6.806  17.548  0.00  0.00    +0.000 A 
ATOM      9  S   UNL     1       5.768   6.499  16.883  0.00  0.00    +0.000 S 
ATOM     10  C   UNL     1       5.333   5.418  18.161  0.00  0.00    +0.000 A 
ATOM     11  C   UNL     1       6.378   5.327  19.069  0.00  0.00    +0.000 A 
ENDBRANCH   1  10
BRANCH   6  12
ATOM     12  C   UNL     1       2.884   6.454  19.755  0.00  0.00    +0.000 C 
BRANCH  12  13
ATOM     13  N   UNL     1       2.283   7.639  19.156  0.00  0.00    +0.000 N 
ATOM     14  C   UNL     1       2.417   8.131  17.886  0.00  0.00    +0.000 A 
ATOM     15  C   UNL     1       1.721   9.316  17.884  0.00  0.00    +0.000 A 
ATOM     16  N   UNL     1       1.157   9.550  19.109  0.00  0.00    +0.000 NA
ATOM     17  C   UNL     1       1.508   8.528  19.853  0.00  0.00    +0.000 A 
ENDBRANCH  12  13
ENDBRANCH   6  12
TORSDOF 3
ENDMDL
MODEL 7
REMARK VINA RESULT:      -6.3      1.984      3.670
REMARK  Name = 
REMARK  3 active torsions:
REMARK  status: ('A' for Active; 'I' for Inactive)
REMARK    1  A    between atoms: C_4  and  C_5
REMARK    2  A    between atoms: C_10  and  C_11
REMARK    3  A    between atoms: C_11  and  N_12
REMARK                            x       y       z     vdW  Elec       q    Type
REMARK                         _______ _______ _______ _____ _____    ______ ____
ROOT
ATOM      1  C   UNL     1       2.648   4.411  19.076  0.00  0.00    +0.000 A 
ATOM      2  N   UNL     1       1.542   3.631  18.946  0.00  0.00    +0.000 NA
ATOM      3  C   UNL     1       1.697   2.322  18.660  0.00  0.00    +0.000 A 
ATOM      4  C   UNL     1       2.926   1.720  18.498  0.00  0.00    +0.000 A 
ATOM      5  C   UNL     1       4.058   2.512  18.632  0.00  0.00    +0.000 A 
ATOM      6  C   UNL     1       3.938   3.885  18.922  0.00  0.00    +0.000 A 
ENDROOT
BRANCH   1  10
ATOM      7  C   UNL     1       1.699   7.826  20.453  0.00  0.00    +0.000 A 
ATOM      8  C   UNL     1       2.025   8.290  19.203  0.00  0.00    +0.000 A 
ATOM      9  S   UNL     1       2.559   7.035  18.177  0.00  0.00    +0.000 S 
ATOM     10  C   UNL     1       2.338   5.824  19.392  0.00  0.00    +0.000 A 
ATOM     11  C   UNL     1       1.852   6.413  20.550  0.00  0.00    +0.000 A 
ENDBRANCH   1  10
BRANCH   6  12
ATOM     12  C   UNL     1       5.203   4.690  19.054  0.00  0.00    +0.000 C 
BRANCH  12  13
ATOM     13  N   UNL     1       5.989   4.779  17.830  0.00  0.00    +0.000 N 
ATOM     14  C   UNL     1       5.569   4.970  16.541  0.00  0.00    +0.000 A 
ATOM     15  C   UNL     1       6.706   4.873  15.774  0.00  0.00    +0.000 A 
ATOM     16  N   UNL     1       7.803   4.643  16.559  0.00  0.00    +0.000 NA
ATOM     17  C   UNL     1       7.346   4.594  17.788  0.00  0.00    +0.000 A 
ENDBRANCH  12  13
ENDBRANCH   6  12
TORSDOF 3
ENDMDL
MODEL 8
REMARK VINA RESULT:      -6.3      2.383      5.494
REMARK  Name = 
REMARK  3 active torsions:
REMARK  status: ('A' for Active; 'I' for Inactive)
REMARK    1  A    between atoms: C_4  and  C_5
REMARK    2  A    between atoms: C_10  and  C_11
REMARK    3  A    between atoms: C_11  and  N_12
REMARK                            x       y       z     vdW  Elec       q    Type
REMARK                         _______ _______ _______ _____ _____    ______ ____
ROOT
ATOM      1  C   UNL     1       3.989   5.039  17.978  0.00  0.00    +0.000 A 
ATOM      2  N   UNL     1       3.919   3.945  17.174  0.00  0.00    +0.000 NA
ATOM      3  C   UNL     1       2.762   3.254  17.113  0.00  0.00    +0.000 A 
ATOM      4  C   UNL     1       1.631   3.601  17.819  0.00  0.00    +0.000 A 
ATOM      5  C   UNL     1       1.698   4.719  18.639  0.00  0.00    +0.000 A 
ATOM      6  C   UNL     1       2.889   5.462  18.738  0.00  0.00    +0.000 A 
ENDROOT
BRANCH   1  10
ATOM      7  C   UNL     1       7.167   7.048  17.407  0.00  0.00    +0.000 A 
ATOM      8  C   UNL     1       7.645   6.381  18.506  0.00  0.00    +0.000 A 
ATOM      9  S   UNL     1       6.486   5.312  19.159  0.00  0.00    +0.000 S 
ATOM     10  C   UNL     1       5.311   5.705  17.951  0.00  0.00    +0.000 A 
ATOM     11  C   UNL     1       5.842   6.640  17.075  0.00  0.00    +0.000 A 
ENDBRANCH   1  10
BRANCH   6  12
ATOM     12  C   UNL     1       2.898   6.663  19.646  0.00  0.00    +0.000 C 
BRANCH  12  13
ATOM     13  N   UNL     1       2.307   7.861  19.063  0.00  0.00    +0.000 N 
ATOM     14  C   UNL     1       1.379   8.716  19.593  0.00  0.00    +0.000 A 
ATOM     15  C   UNL     1       1.101   9.613  18.589  0.00  0.00    +0.000 A 
ATOM     16  N   UNL     1       1.842   9.336  17.473  0.00  0.00    +0.000 NA
ATOM     17  C   UNL     1       2.559   8.282  17.784  0.00  0.00    +0.000 A 
ENDBRANCH  12  13
ENDBRANCH   6  12
TORSDOF 3
ENDMDL
MODEL 9
REMARK VINA RESULT:      -6.2      1.456      1.867
REMARK  Name = 
REMARK  3 active torsions:
REMARK  status: ('A' for Active; 'I' for Inactive)
REMARK    1  A    between atoms: C_4  and  C_5
REMARK    2  A    between atoms: C_10  and  C_11
REMARK    3  A    between atoms: C_11  and  N_12
REMARK                            x       y       z     vdW  Elec       q    Type
REMARK                         _______ _______ _______ _____ _____    ______ ____
ROOT
ATOM      1  C   UNL     1       2.711   5.621  18.675  0.00  0.00    +0.000 A 
ATOM      2  N   UNL     1       1.963   6.750  18.800  0.00  0.00    +0.000 NA
ATOM      3  C   UNL     1       2.412   7.894  18.244  0.00  0.00    +0.000 A 
ATOM      4  C   UNL     1       3.593   7.985  17.541  0.00  0.00    +0.000 A 
ATOM      5  C   UNL     1       4.359   6.835  17.409  0.00  0.00    +0.000 A 
ATOM      6  C   UNL     1       3.930   5.623  17.982  0.00  0.00    +0.000 A 
ENDROOT
BRANCH   1  10
ATOM      7  C   UNL     1       0.990   2.413  19.774  0.00  0.00    +0.000 A 
ATOM      8  C   UNL     1       1.344   2.797  21.043  0.00  0.00    +0.000 A 
ATOM      9  S   UNL     1       2.209   4.269  21.046  0.00  0.00    +0.000 S 
ATOM     10  C   UNL     1       2.105   4.438  19.328  0.00  0.00    +0.000 A 
ATOM     11  C   UNL     1       1.402   3.366  18.798  0.00  0.00    +0.000 A 
ENDBRANCH   1  10
BRANCH   6  12
ATOM     12  C   UNL     1       4.805   4.411  17.805  0.00  0.00    +0.000 C 
BRANCH  12  13
ATOM     13  N   UNL     1       5.720   4.491  16.674  0.00  0.00    +0.000 N 
ATOM     14  C   UNL     1       5.466   4.327  15.339  0.00  0.00    +0.000 A 
ATOM     15  C   UNL     1       6.693   4.408  14.726  0.00  0.00    +0.000 A 
ATOM     16  N   UNL     1       7.682   4.630  15.646  0.00  0.00    +0.000 NA
ATOM     17  C   UNL     1       7.071   4.678  16.806  0.00  0.00    +0.000 A 
ENDBRANCH  12  13
ENDBRANCH   6  12
TORSDOF 3
ENDMDL
