MODEL 1
REMARK VINA RESULT:      -8.3      0.000      0.000
REMARK  Name = 
REMARK  7 active torsions:
REMARK  status: ('A' for Active; 'I' for Inactive)
REMARK    1  A    between atoms: C_2  and  C_3
REMARK    2  A    between atoms: C_4  and  C_5
REMARK    3  A    between atoms: N_13  and  C_14
REMARK    4  A    between atoms: C_14  and  C_15
REMARK    5  A    between atoms: C_15  and  N_16
REMARK    6  A    between atoms: C_17  and  C_19
REMARK    7  A    between atoms: C_20  and  C_21
REMARK                            x       y       z     vdW  Elec       q    Type
REMARK                         _______ _______ _______ _____ _____    ______ ____
ROOT
ATOM      1  C   UNL     1       7.470   7.259  17.088  0.00  0.00    +0.000 C 
ENDROOT
BRANCH   1   4
ATOM      2  O   UNL     1       5.238   6.661  15.399  0.00  0.00    +0.000 OA
ATOM      3  C   UNL     1       5.209   6.350  16.582  0.00  0.00    +0.000 C 
ATOM      4  N   UNL     1       6.218   6.619  17.476  0.00  0.00    +0.000 N 
ATOM      5  H   UNL     1       6.144   6.289  18.428  0.00  0.00    +0.000 HD
BRANCH   3   6
ATOM      6  C   UNL     1       4.060   5.633  17.202  0.00  0.00    +0.000 C 
ATOM      7  C   UNL     1       4.164   5.097  18.430  0.00  0.00    +0.000 C 
BRANCH   7   8
ATOM      8  C   UNL     1       3.039   4.386  19.072  0.00  0.00    +0.000 A 
ATOM      9  C   UNL     1       2.842   3.005  18.881  0.00  0.00    +0.000 A 
ATOM     10 CL   UNL     1       3.926   2.050  17.925  0.00  0.00    +0.000 Cl
ATOM     11  C   UNL     1       1.755   2.341  19.466  0.00  0.00    +0.000 A 
ATOM     12  C   UNL     1       0.847   3.040  20.257  0.00  0.00    +0.000 A 
ATOM     13  C   UNL     1       1.033   4.404  20.473  0.00  0.00    +0.000 A 
ATOM     14  C   UNL     1       2.119   5.071  19.889  0.00  0.00    +0.000 A 
ATOM     15 CL   UNL     1       2.273   6.764  20.221  0.00  0.00    +0.000 Cl
ENDBRANCH   7   8
ENDBRANCH   3   6
ENDBRANCH   1   4
BRANCH   1  16
ATOM     16  C   UNL     1       8.103   8.125  18.187  0.00  0.00    +0.000 C 
BRANCH  16  17
ATOM     17  N   UNL     1       8.340   9.501  17.762  0.00  0.00    +0.000 N 
ATOM     18  C   UNL     1       9.027  10.398  18.546  0.00  0.00    +0.000 C 
ATOM     19  O   UNL     1       9.541  10.111  19.618  0.00  0.00    +0.000 OA
ATOM     20  H   UNL     1       7.945   9.794  16.879  0.00  0.00    +0.000 HD
BRANCH  18  21
ATOM     21  C   UNL     1       9.092  11.769  17.966  0.00  0.00    +0.000 C 
ATOM     22  C   UNL     1       9.861  12.702  18.553  0.00  0.00    +0.000 C 
BRANCH  22  23
ATOM     23  C   UNL     1      10.006  14.078  18.037  0.00  0.00    +0.000 A 
ATOM     24  C   UNL     1       9.083  15.088  18.369  0.00  0.00    +0.000 A 
ATOM     25 CL   UNL     1       7.720  14.780  19.393  0.00  0.00    +0.000 Cl
ATOM     26  C   UNL     1       9.241  16.397  17.896  0.00  0.00    +0.000 A 
ATOM     27  C   UNL     1      10.325  16.727  17.087  0.00  0.00    +0.000 A 
ATOM     28  C   UNL     1      11.254  15.745  16.751  0.00  0.00    +0.000 A 
ATOM     29  C   UNL     1      11.098  14.434  17.221  0.00  0.00    +0.000 A 
ATOM     30 CL   UNL     1      12.313  13.285  16.768  0.00  0.00    +0.000 Cl
ENDBRANCH  22  23
ENDBRANCH  18  21
ENDBRANCH  16  17
ENDBRANCH   1  16
TORSDOF 7
ENDMDL
MODEL 2
REMARK VINA RESULT:      -8.2      0.123      1.729
REMARK  Name = 
REMARK  7 active torsions:
REMARK  status: ('A' for Active; 'I' for Inactive)
REMARK    1  A    between atoms: C_2  and  C_3
REMARK    2  A    between atoms: C_4  and  C_5
REMARK    3  A    between atoms: N_13  and  C_14
REMARK    4  A    between atoms: C_14  and  C_15
REMARK    5  A    between atoms: C_15  and  N_16
REMARK    6  A    between atoms: C_17  and  C_19
REMARK    7  A    between atoms: C_20  and  C_21
REMARK                            x       y       z     vdW  Elec       q    Type
REMARK                         _______ _______ _______ _____ _____    ______ ____
ROOT
ATOM      1  C   UNL     1       7.476   7.246  17.163  0.00  0.00    +0.000 C 
ENDROOT
BRANCH   1   4
ATOM      2  O   UNL     1       5.253   6.709  15.442  0.00  0.00    +0.000 OA
ATOM      3  C   UNL     1       5.228   6.335  16.607  0.00  0.00    +0.000 C 
ATOM      4  N   UNL     1       6.233   6.570  17.515  0.00  0.00    +0.000 N 
ATOM      5  H   UNL     1       6.163   6.188  18.448  0.00  0.00    +0.000 HD
BRANCH   3   6
ATOM      6  C   UNL     1       4.089   5.569  17.186  0.00  0.00    +0.000 C 
ATOM      7  C   UNL     1       4.093   5.201  18.479  0.00  0.00    +0.000 C 
BRANCH   7   8
ATOM      8  C   UNL     1       2.974   4.447  19.081  0.00  0.00    +0.000 A 
ATOM      9  C   UNL     1       2.818   3.065  18.858  0.00  0.00    +0.000 A 
ATOM     10 CL   UNL     1       3.948   2.160  17.907  0.00  0.00    +0.000 Cl
ATOM     11  C   UNL     1       1.738   2.361  19.405  0.00  0.00    +0.000 A 
ATOM     12  C   UNL     1       0.795   3.019  20.190  0.00  0.00    +0.000 A 
ATOM     13  C   UNL     1       0.939   4.382  20.438  0.00  0.00    +0.000 A 
ATOM     14  C   UNL     1       2.019   5.090  19.891  0.00  0.00    +0.000 A 
ATOM     15 CL   UNL     1       2.120   6.779  20.261  0.00  0.00    +0.000 Cl
ENDBRANCH   7   8
ENDBRANCH   3   6
ENDBRANCH   1   4
BRANCH   1  16
ATOM     16  C   UNL     1       8.040   8.147  18.273  0.00  0.00    +0.000 C 
BRANCH  16  17
ATOM     17  N   UNL     1       8.354   9.495  17.808  0.00  0.00    +0.000 N 
ATOM     18  C   UNL     1       9.058  10.386  18.582  0.00  0.00    +0.000 C 
ATOM     19  O   UNL     1       9.526  10.115  19.679  0.00  0.00    +0.000 OA
ATOM     20  H   UNL     1       7.999   9.773  16.904  0.00  0.00    +0.000 HD
BRANCH  18  21
ATOM     21  C   UNL     1       9.205  11.731  17.958  0.00  0.00    +0.000 C 
ATOM     22  C   UNL     1       9.720  12.744  18.676  0.00  0.00    +0.000 C 
BRANCH  22  23
ATOM     23  C   UNL     1       9.925  14.102  18.135  0.00  0.00    +0.000 A 
ATOM     24  C   UNL     1      11.063  14.425  17.372  0.00  0.00    +0.000 A 
ATOM     25 CL   UNL     1      12.295  13.257  17.028  0.00  0.00    +0.000 Cl
ATOM     26  C   UNL     1      11.238  15.710  16.841  0.00  0.00    +0.000 A 
ATOM     27  C   UNL     1      10.280  16.697  17.056  0.00  0.00    +0.000 A 
ATOM     28  C   UNL     1       9.143  16.397  17.803  0.00  0.00    +0.000 A 
ATOM     29  C   UNL     1       8.965  15.114  18.337  0.00  0.00    +0.000 A 
ATOM     30 CL   UNL     1       7.512  14.829  19.235  0.00  0.00    +0.000 Cl
ENDBRANCH  22  23
ENDBRANCH  18  21
ENDBRANCH  16  17
ENDBRANCH   1  16
TORSDOF 7
ENDMDL
MODEL 3
REMARK VINA RESULT:      -8.1      1.050      2.685
REMARK  Name = 
REMARK  7 active torsions:
REMARK  status: ('A' for Active; 'I' for Inactive)
REMARK    1  A    between atoms: C_2  and  C_3
REMARK    2  A    between atoms: C_4  and  C_5
REMARK    3  A    between atoms: N_13  and  C_14
REMARK    4  A    between atoms: C_14  and  C_15
REMARK    5  A    between atoms: C_15  and  N_16
REMARK    6  A    between atoms: C_17  and  C_19
REMARK    7  A    between atoms: C_20  and  C_21
REMARK                            x       y       z     vdW  Elec       q    Type
REMARK                         _______ _______ _______ _____ _____    ______ ____
ROOT
ATOM      1  C   UNL     1       7.421   7.277  17.340  0.00  0.00    +0.000 C 
ENDROOT
BRANCH   1   4
ATOM      2  O   UNL     1       7.711   4.695  18.542  0.00  0.00    +0.000 OA
ATOM      3  C   UNL     1       6.613   5.233  18.509  0.00  0.00    +0.000 C 
ATOM      4  N   UNL     1       6.370   6.456  17.930  0.00  0.00    +0.000 N 
ATOM      5  H   UNL     1       5.444   6.860  17.983  0.00  0.00    +0.000 HD
BRANCH   3   6
ATOM      6  C   UNL     1       5.392   4.618  19.101  0.00  0.00    +0.000 C 
ATOM      7  C   UNL     1       4.206   4.699  18.473  0.00  0.00    +0.000 C 
BRANCH   7   8
ATOM      8  C   UNL     1       2.981   4.092  19.033  0.00  0.00    +0.000 A 
ATOM      9  C   UNL     1       2.116   4.827  19.867  0.00  0.00    +0.000 A 
ATOM     10 CL   UNL     1       2.407   6.492  20.246  0.00  0.00    +0.000 Cl
ATOM     11  C   UNL     1       0.972   4.238  20.421  0.00  0.00    +0.000 A 
ATOM     12  C   UNL     1       0.666   2.906  20.153  0.00  0.00    +0.000 A 
ATOM     13  C   UNL     1       1.499   2.166  19.317  0.00  0.00    +0.000 A 
ATOM     14  C   UNL     1       2.645   2.753  18.761  0.00  0.00    +0.000 A 
ATOM     15 CL   UNL     1       3.615   1.757  17.728  0.00  0.00    +0.000 Cl
ENDBRANCH   7   8
ENDBRANCH   3   6
ENDBRANCH   1   4
BRANCH   1  16
ATOM     16  C   UNL     1       8.227   8.097  18.358  0.00  0.00    +0.000 C 
BRANCH  16  17
ATOM     17  N   UNL     1       8.562   9.434  17.876  0.00  0.00    +0.000 N 
ATOM     18  C   UNL     1       9.154  10.373  18.687  0.00  0.00    +0.000 C 
ATOM     19  O   UNL     1       9.503  10.156  19.839  0.00  0.00    +0.000 OA
ATOM     20  H   UNL     1       8.305   9.668  16.928  0.00  0.00    +0.000 HD
BRANCH  18  21
ATOM     21  C   UNL     1       9.340  11.696  18.028  0.00  0.00    +0.000 C 
ATOM     22  C   UNL     1       9.609  12.779  18.777  0.00  0.00    +0.000 C 
BRANCH  22  23
ATOM     23  C   UNL     1       9.832  14.124  18.212  0.00  0.00    +0.000 A 
ATOM     24  C   UNL     1      10.875  14.374  17.300  0.00  0.00    +0.000 A 
ATOM     25 CL   UNL     1      11.964  13.127  16.792  0.00  0.00    +0.000 Cl
ATOM     26  C   UNL     1      11.065  15.648  16.748  0.00  0.00    +0.000 A 
ATOM     27  C   UNL     1      10.215  16.697  17.090  0.00  0.00    +0.000 A 
ATOM     28  C   UNL     1       9.173  16.471  17.986  0.00  0.00    +0.000 A 
ATOM     29  C   UNL     1       8.981  15.198  18.541  0.00  0.00    +0.000 A 
ATOM     30 CL   UNL     1       7.648  15.007  19.630  0.00  0.00    +0.000 Cl
ENDBRANCH  22  23
ENDBRANCH  18  21
ENDBRANCH  16  17
ENDBRANCH   1  16
TORSDOF 7
ENDMDL
MODEL 4
REMARK VINA RESULT:      -7.9      0.421     11.502
REMARK  Name = 
REMARK  7 active torsions:
REMARK  status: ('A' for Active; 'I' for Inactive)
REMARK    1  A    between atoms: C_2  and  C_3
REMARK    2  A    between atoms: C_4  and  C_5
REMARK    3  A    between atoms: N_13  and  C_14
REMARK    4  A    between atoms: C_14  and  C_15
REMARK    5  A    between atoms: C_15  and  N_16
REMARK    6  A    between atoms: C_17  and  C_19
REMARK    7  A    between atoms: C_20  and  C_21
REMARK                            x       y       z     vdW  Elec       q    Type
REMARK                         _______ _______ _______ _____ _____    ______ ____
ROOT
ATOM      1  C   UNL     1       7.988   8.124  18.087  0.00  0.00    +0.000 C 
ENDROOT
BRANCH   1   4
ATOM      2  O   UNL     1       9.492   9.995  19.646  0.00  0.00    +0.000 OA
ATOM      3  C   UNL     1       9.069  10.319  18.544  0.00  0.00    +0.000 C 
ATOM      4  N   UNL     1       8.315   9.501  17.736  0.00  0.00    +0.000 N 
ATOM      5  H   UNL     1       8.040   9.821  16.818  0.00  0.00    +0.000 HD
BRANCH   3   6
ATOM      6  C   UNL     1       9.325  11.656  17.941  0.00  0.00    +0.000 C 
ATOM      7  C   UNL     1       9.453  12.748  18.715  0.00  0.00    +0.000 C 
BRANCH   7   8
ATOM      8  C   UNL     1       9.714  14.085  18.145  0.00  0.00    +0.000 A 
ATOM      9  C   UNL     1      10.875  14.345  17.391  0.00  0.00    +0.000 A 
ATOM     10 CL   UNL     1      12.038  13.108  17.048  0.00  0.00    +0.000 Cl
ATOM     11  C   UNL     1      11.135  15.623  16.878  0.00  0.00    +0.000 A 
ATOM     12  C   UNL     1      10.240  16.666  17.103  0.00  0.00    +0.000 A 
ATOM     13  C   UNL     1       9.077  16.427  17.832  0.00  0.00    +0.000 A 
ATOM     14  C   UNL     1       8.815  15.150  18.347  0.00  0.00    +0.000 A 
ATOM     15 CL   UNL     1       7.340  14.946  19.232  0.00  0.00    +0.000 Cl
ENDBRANCH   7   8
ENDBRANCH   3   6
ENDBRANCH   1   4
BRANCH   1  16
ATOM     16  C   UNL     1       7.374   7.309  16.939  0.00  0.00    +0.000 C 
BRANCH  16  17
ATOM     17  N   UNL     1       6.162   6.596  17.331  0.00  0.00    +0.000 N 
ATOM     18  C   UNL     1       5.546   5.694  16.496  0.00  0.00    +0.000 C 
ATOM     19  O   UNL     1       5.984   5.370  15.401  0.00  0.00    +0.000 OA
ATOM     20  H   UNL     1       5.758   6.817  18.230  0.00  0.00    +0.000 HD
BRANCH  18  21
ATOM     21  C   UNL     1       4.281   5.135  17.052  0.00  0.00    +0.000 C 
ATOM     22  C   UNL     1       4.251   4.698  18.323  0.00  0.00    +0.000 C 
BRANCH  22  23
ATOM     23  C   UNL     1       3.039   4.152  18.966  0.00  0.00    +0.000 A 
ATOM     24  C   UNL     1       2.697   2.791  18.852  0.00  0.00    +0.000 A 
ATOM     25 CL   UNL     1       3.668   1.678  17.947  0.00  0.00    +0.000 Cl
ATOM     26  C   UNL     1       1.559   2.275  19.486  0.00  0.00    +0.000 A 
ATOM     27  C   UNL     1       0.742   3.104  20.249  0.00  0.00    +0.000 A 
ATOM     28  C   UNL     1       1.065   4.452  20.381  0.00  0.00    +0.000 A 
ATOM     29  C   UNL     1       2.202   4.972  19.747  0.00  0.00    +0.000 A 
ATOM     30 CL   UNL     1       2.534   6.656  19.983  0.00  0.00    +0.000 Cl
ENDBRANCH  22  23
ENDBRANCH  18  21
ENDBRANCH  16  17
ENDBRANCH   1  16
TORSDOF 7
ENDMDL
MODEL 5
REMARK VINA RESULT:      -7.3      2.775      3.523
REMARK  Name = 
REMARK  7 active torsions:
REMARK  status: ('A' for Active; 'I' for Inactive)
REMARK    1  A    between atoms: C_2  and  C_3
REMARK    2  A    between atoms: C_4  and  C_5
REMARK    3  A    between atoms: N_13  and  C_14
REMARK    4  A    between atoms: C_14  and  C_15
REMARK    5  A    between atoms: C_15  and  N_16
REMARK    6  A    between atoms: C_17  and  C_19
REMARK    7  A    between atoms: C_20  and  C_21
REMARK                            x       y       z     vdW  Elec       q    Type
REMARK                         _______ _______ _______ _____ _____    ______ ____
ROOT
ATOM      1  C   UNL     1       8.369   7.831  18.549  0.00  0.00    +0.000 C 
ENDROOT
BRANCH   1   4
ATOM      2  O   UNL     1       7.889   5.348  19.890  0.00  0.00    +0.000 OA
ATOM      3  C   UNL     1       7.122   5.728  19.015  0.00  0.00    +0.000 C 
ATOM      4  N   UNL     1       7.284   6.889  18.298  0.00  0.00    +0.000 N 
ATOM      5  H   UNL     1       6.583   7.162  17.623  0.00  0.00    +0.000 HD
BRANCH   3   6
ATOM      6  C   UNL     1       5.905   4.966  18.621  0.00  0.00    +0.000 C 
ATOM      7  C   UNL     1       4.856   4.864  19.455  0.00  0.00    +0.000 C 
BRANCH   7   8
ATOM      8  C   UNL     1       3.633   4.121  19.088  0.00  0.00    +0.000 A 
ATOM      9  C   UNL     1       3.486   2.755  19.397  0.00  0.00    +0.000 A 
ATOM     10 CL   UNL     1       4.702   1.878  20.265  0.00  0.00    +0.000 Cl
ATOM     11  C   UNL     1       2.338   2.046  19.019  0.00  0.00    +0.000 A 
ATOM     12  C   UNL     1       1.312   2.686  18.328  0.00  0.00    +0.000 A 
ATOM     13  C   UNL     1       1.429   4.041  18.027  0.00  0.00    +0.000 A 
ATOM     14  C   UNL     1       2.577   4.752  18.404  0.00  0.00    +0.000 A 
ATOM     15 CL   UNL     1       2.629   6.435  17.993  0.00  0.00    +0.000 Cl
ENDBRANCH   7   8
ENDBRANCH   3   6
ENDBRANCH   1   4
BRANCH   1  16
ATOM     16  C   UNL     1       8.332   9.086  17.664  0.00  0.00    +0.000 C 
BRANCH  16  17
ATOM     17  N   UNL     1       8.379  10.326  18.433  0.00  0.00    +0.000 N 
ATOM     18  C   UNL     1       9.449  11.187  18.362  0.00  0.00    +0.000 C 
ATOM     19  O   UNL     1      10.407  11.023  17.618  0.00  0.00    +0.000 OA
ATOM     20  H   UNL     1       7.611  10.519  19.060  0.00  0.00    +0.000 HD
BRANCH  18  21
ATOM     21  C   UNL     1       9.337  12.354  19.282  0.00  0.00    +0.000 C 
ATOM     22  C   UNL     1       9.699  12.221  20.570  0.00  0.00    +0.000 C 
BRANCH  22  23
ATOM     23  C   UNL     1       9.645  13.326  21.547  0.00  0.00    +0.000 A 
ATOM     24  C   UNL     1      10.426  14.487  21.387  0.00  0.00    +0.000 A 
ATOM     25 CL   UNL     1      11.501  14.687  20.045  0.00  0.00    +0.000 Cl
ATOM     26  C   UNL     1      10.351  15.542  22.306  0.00  0.00    +0.000 A 
ATOM     27  C   UNL     1       9.492  15.463  23.400  0.00  0.00    +0.000 A 
ATOM     28  C   UNL     1       8.706  14.327  23.573  0.00  0.00    +0.000 A 
ATOM     29  C   UNL     1       8.780  13.269  22.657  0.00  0.00    +0.000 A 
ATOM     30 CL   UNL     1       7.751  11.906  22.945  0.00  0.00    +0.000 Cl
ENDBRANCH  22  23
ENDBRANCH  18  21
ENDBRANCH  16  17
ENDBRANCH   1  16
TORSDOF 7
ENDMDL
MODEL 6
REMARK VINA RESULT:      -7.2      5.542      7.887
REMARK  Name = 
REMARK  7 active torsions:
REMARK  status: ('A' for Active; 'I' for Inactive)
REMARK    1  A    between atoms: C_2  and  C_3
REMARK    2  A    between atoms: C_4  and  C_5
REMARK    3  A    between atoms: N_13  and  C_14
REMARK    4  A    between atoms: C_14  and  C_15
REMARK    5  A    between atoms: C_15  and  N_16
REMARK    6  A    between atoms: C_17  and  C_19
REMARK    7  A    between atoms: C_20  and  C_21
REMARK                            x       y       z     vdW  Elec       q    Type
REMARK                         _______ _______ _______ _____ _____    ______ ____
ROOT
ATOM      1  C   UNL     1       1.225   2.754  20.531  0.00  0.00    +0.000 C 
ENDROOT
BRANCH   1   4
ATOM      2  O   UNL     1       2.714   5.082  21.274  0.00  0.00    +0.000 OA
ATOM      3  C   UNL     1       1.598   5.201  20.787  0.00  0.00    +0.000 C 
ATOM      4  N   UNL     1       0.797   4.144  20.426  0.00  0.00    +0.000 N 
ATOM      5  H   UNL     1      -0.095   4.320  19.984  0.00  0.00    +0.000 HD
BRANCH   3   6
ATOM      6  C   UNL     1       0.967   6.524  20.525  0.00  0.00    +0.000 C 
ATOM      7  C   UNL     1       1.703   7.649  20.518  0.00  0.00    +0.000 C 
BRANCH   7   8
ATOM      8  C   UNL     1       1.106   8.974  20.254  0.00  0.00    +0.000 A 
ATOM      9  C   UNL     1       1.177   9.567  18.978  0.00  0.00    +0.000 A 
ATOM     10 CL   UNL     1       1.924   8.765  17.637  0.00  0.00    +0.000 Cl
ATOM     11  C   UNL     1       0.637  10.838  18.740  0.00  0.00    +0.000 A 
ATOM     12  C   UNL     1       0.010  11.540  19.766  0.00  0.00    +0.000 A 
ATOM     13  C   UNL     1      -0.087  10.965  21.032  0.00  0.00    +0.000 A 
ATOM     14  C   UNL     1       0.454   9.694  21.273  0.00  0.00    +0.000 A 
ATOM     15 CL   UNL     1       0.278   9.056  22.874  0.00  0.00    +0.000 Cl
ENDBRANCH   7   8
ENDBRANCH   3   6
ENDBRANCH   1   4
BRANCH   1  16
ATOM     16  C   UNL     1       1.818   2.176  19.237  0.00  0.00    +0.000 C 
BRANCH  16  17
ATOM     17  N   UNL     1       2.925   2.971  18.713  0.00  0.00    +0.000 N 
ATOM     18  C   UNL     1       4.223   2.766  19.115  0.00  0.00    +0.000 C 
ATOM     19  O   UNL     1       4.567   1.879  19.884  0.00  0.00    +0.000 OA
ATOM     20  H   UNL     1       2.702   3.715  18.066  0.00  0.00    +0.000 HD
BRANCH  18  21
ATOM     21  C   UNL     1       5.190   3.732  18.522  0.00  0.00    +0.000 C 
ATOM     22  C   UNL     1       5.260   4.984  19.007  0.00  0.00    +0.000 C 
BRANCH  22  23
ATOM     23  C   UNL     1       6.202   6.001  18.499  0.00  0.00    +0.000 A 
ATOM     24  C   UNL     1       5.860   6.849  17.428  0.00  0.00    +0.000 A 
ATOM     25 CL   UNL     1       4.323   6.747  16.636  0.00  0.00    +0.000 Cl
ATOM     26  C   UNL     1       6.749   7.829  16.968  0.00  0.00    +0.000 A 
ATOM     27  C   UNL     1       7.995   7.986  17.569  0.00  0.00    +0.000 A 
ATOM     28  C   UNL     1       8.352   7.163  18.634  0.00  0.00    +0.000 A 
ATOM     29  C   UNL     1       7.465   6.181  19.096  0.00  0.00    +0.000 A 
ATOM     30 CL   UNL     1       7.987   5.217  20.437  0.00  0.00    +0.000 Cl
ENDBRANCH  22  23
ENDBRANCH  18  21
ENDBRANCH  16  17
ENDBRANCH   1  16
TORSDOF 7
ENDMDL
MODEL 7
REMARK VINA RESULT:      -7.1      6.816      9.809
REMARK  Name = 
REMARK  7 active torsions:
REMARK  status: ('A' for Active; 'I' for Inactive)
REMARK    1  A    between atoms: C_2  and  C_3
REMARK    2  A    between atoms: C_4  and  C_5
REMARK    3  A    between atoms: N_13  and  C_14
REMARK    4  A    between atoms: C_14  and  C_15
REMARK    5  A    between atoms: C_15  and  N_16
REMARK    6  A    between atoms: C_17  and  C_19
REMARK    7  A    between atoms: C_20  and  C_21
REMARK                            x       y       z     vdW  Elec       q    Type
REMARK                         _______ _______ _______ _____ _____    ______ ____
ROOT
ATOM      1  C   UNL     1       1.215   8.049  21.470  0.00  0.00    +0.000 C 
ENDROOT
BRANCH   1   4
ATOM      2  O   UNL     1       1.721   5.298  20.861  0.00  0.00    +0.000 OA
ATOM      3  C   UNL     1       2.266   6.178  20.209  0.00  0.00    +0.000 C 
ATOM      4  N   UNL     1       2.107   7.523  20.443  0.00  0.00    +0.000 N 
ATOM      5  H   UNL     1       2.553   8.193  19.832  0.00  0.00    +0.000 HD
BRANCH   3   6
ATOM      6  C   UNL     1       3.178   5.890  19.067  0.00  0.00    +0.000 C 
ATOM      7  C   UNL     1       4.215   5.046  19.210  0.00  0.00    +0.000 C 
BRANCH   7   8
ATOM      8  C   UNL     1       5.131   4.737  18.093  0.00  0.00    +0.000 A 
ATOM      9  C   UNL     1       4.664   4.131  16.910  0.00  0.00    +0.000 A 
ATOM     10 CL   UNL     1       2.990   3.756  16.674  0.00  0.00    +0.000 Cl
ATOM     11  C   UNL     1       5.542   3.810  15.866  0.00  0.00    +0.000 A 
ATOM     12  C   UNL     1       6.901   4.091  15.978  0.00  0.00    +0.000 A 
ATOM     13  C   UNL     1       7.382   4.706  17.133  0.00  0.00    +0.000 A 
ATOM     14  C   UNL     1       6.506   5.027  18.179  0.00  0.00    +0.000 A 
ATOM     15 CL   UNL     1       7.192   5.797  19.571  0.00  0.00    +0.000 Cl
ENDBRANCH   7   8
ENDBRANCH   3   6
ENDBRANCH   1   4
BRANCH   1  16
ATOM     16  C   UNL     1       1.194   9.582  21.563  0.00  0.00    +0.000 C 
BRANCH  16  17
ATOM     17  N   UNL     1       0.172  10.190  20.717  0.00  0.00    +0.000 N 
ATOM     18  C   UNL     1       0.265  11.491  20.283  0.00  0.00    +0.000 C 
ATOM     19  O   UNL     1       1.222  12.219  20.512  0.00  0.00    +0.000 OA
ATOM     20  H   UNL     1      -0.640   9.633  20.488  0.00  0.00    +0.000 HD
BRANCH  18  21
ATOM     21  C   UNL     1      -0.917  11.944  19.497  0.00  0.00    +0.000 C 
ATOM     22  C   UNL     1      -1.974  11.125  19.357  0.00  0.00    +0.000 C 
BRANCH  22  23
ATOM     23  C   UNL     1      -3.197  11.495  18.618  0.00  0.00    +0.000 A 
ATOM     24  C   UNL     1      -3.391  11.107  17.278  0.00  0.00    +0.000 A 
ATOM     25 CL   UNL     1      -2.208  10.182  16.414  0.00  0.00    +0.000 Cl
ATOM     26  C   UNL     1      -4.565  11.441  16.590  0.00  0.00    +0.000 A 
ATOM     27  C   UNL     1      -5.571  12.164  17.225  0.00  0.00    +0.000 A 
ATOM     28  C   UNL     1      -5.403  12.553  18.552  0.00  0.00    +0.000 A 
ATOM     29  C   UNL     1      -4.229  12.222  19.243  0.00  0.00    +0.000 A 
ATOM     30 CL   UNL     1      -4.118  12.731  20.894  0.00  0.00    +0.000 Cl
ENDBRANCH  22  23
ENDBRANCH  18  21
ENDBRANCH  16  17
ENDBRANCH   1  16
TORSDOF 7
ENDMDL
MODEL 8
REMARK VINA RESULT:      -7.1      7.980     12.209
REMARK  Name = 
REMARK  7 active torsions:
REMARK  status: ('A' for Active; 'I' for Inactive)
REMARK    1  A    between atoms: C_2  and  C_3
REMARK    2  A    between atoms: C_4  and  C_5
REMARK    3  A    between atoms: N_13  and  C_14
REMARK    4  A    between atoms: C_14  and  C_15
REMARK    5  A    between atoms: C_15  and  N_16
REMARK    6  A    between atoms: C_17  and  C_19
REMARK    7  A    between atoms: C_20  and  C_21
REMARK                            x       y       z     vdW  Elec       q    Type
REMARK                         _______ _______ _______ _____ _____    ______ ____
ROOT
ATOM      1  C   UNL     1       0.028   9.381  22.960  0.00  0.00    +0.000 C 
ENDROOT
BRANCH   1   4
ATOM      2  O   UNL     1      -0.214  12.187  22.449  0.00  0.00    +0.000 OA
ATOM      3  C   UNL     1      -1.154  11.571  22.933  0.00  0.00    +0.000 C 
ATOM      4  N   UNL     1      -1.123  10.231  23.240  0.00  0.00    +0.000 N 
ATOM      5  H   UNL     1      -1.956   9.780  23.593  0.00  0.00    +0.000 HD
BRANCH   3   6
ATOM      6  C   UNL     1      -2.461  12.210  23.252  0.00  0.00    +0.000 C 
ATOM      7  C   UNL     1      -2.784  13.410  22.738  0.00  0.00    +0.000 C 
BRANCH   7   8
ATOM      8  C   UNL     1      -4.076  14.064  23.031  0.00  0.00    +0.000 A 
ATOM      9  C   UNL     1      -5.254  13.693  22.354  0.00  0.00    +0.000 A 
ATOM     10 CL   UNL     1      -5.270  12.423  21.177  0.00  0.00    +0.000 Cl
ATOM     11  C   UNL     1      -6.471  14.338  22.612  0.00  0.00    +0.000 A 
ATOM     12  C   UNL     1      -6.539  15.362  23.553  0.00  0.00    +0.000 A 
ATOM     13  C   UNL     1      -5.389  15.733  24.247  0.00  0.00    +0.000 A 
ATOM     14  C   UNL     1      -4.170  15.090  23.991  0.00  0.00    +0.000 A 
ATOM     15 CL   UNL     1      -2.797  15.614  24.908  0.00  0.00    +0.000 Cl
ENDBRANCH   7   8
ENDBRANCH   3   6
ENDBRANCH   1   4
BRANCH   1  16
ATOM     16  C   UNL     1       0.363   9.243  21.467  0.00  0.00    +0.000 C 
BRANCH  16  17
ATOM     17  N   UNL     1       1.058   7.999  21.152  0.00  0.00    +0.000 N 
ATOM     18  C   UNL     1       1.790   7.846  19.998  0.00  0.00    +0.000 C 
ATOM     19  O   UNL     1       1.971   8.739  19.182  0.00  0.00    +0.000 OA
ATOM     20  H   UNL     1       0.952   7.226  21.795  0.00  0.00    +0.000 HD
BRANCH  18  21
ATOM     21  C   UNL     1       2.354   6.477  19.828  0.00  0.00    +0.000 C 
ATOM     22  C   UNL     1       2.054   5.767  18.727  0.00  0.00    +0.000 C 
BRANCH  22  23
ATOM     23  C   UNL     1       2.584   4.415  18.461  0.00  0.00    +0.000 A 
ATOM     24  C   UNL     1       3.682   4.212  17.603  0.00  0.00    +0.000 A 
ATOM     25 CL   UNL     1       4.471   5.529  16.802  0.00  0.00    +0.000 Cl
ATOM     26  C   UNL     1       4.196   2.928  17.376  0.00  0.00    +0.000 A 
ATOM     27  C   UNL     1       3.628   1.822  18.003  0.00  0.00    +0.000 A 
ATOM     28  C   UNL     1       2.545   2.001  18.860  0.00  0.00    +0.000 A 
ATOM     29  C   UNL     1       2.028   3.283  19.089  0.00  0.00    +0.000 A 
ATOM     30 CL   UNL     1       0.693   3.410  20.185  0.00  0.00    +0.000 Cl
ENDBRANCH  22  23
ENDBRANCH  18  21
ENDBRANCH  16  17
ENDBRANCH   1  16
TORSDOF 7
ENDMDL
MODEL 9
REMARK VINA RESULT:      -7.0      7.962     11.760
REMARK  Name = 
REMARK  7 active torsions:
REMARK  status: ('A' for Active; 'I' for Inactive)
REMARK    1  A    between atoms: C_2  and  C_3
REMARK    2  A    between atoms: C_4  and  C_5
REMARK    3  A    between atoms: N_13  and  C_14
REMARK    4  A    between atoms: C_14  and  C_15
REMARK    5  A    between atoms: C_15  and  N_16
REMARK    6  A    between atoms: C_17  and  C_19
REMARK    7  A    between atoms: C_20  and  C_21
REMARK                            x       y       z     vdW  Elec       q    Type
REMARK                         _______ _______ _______ _____ _____    ______ ____
ROOT
ATOM      1  C   UNL     1       0.614  11.471  20.614  0.00  0.00    +0.000 C 
ENDROOT
BRANCH   1   4
ATOM      2  O   UNL     1      -0.283  10.795  23.246  0.00  0.00    +0.000 OA
ATOM      3  C   UNL     1      -0.901  11.616  22.583  0.00  0.00    +0.000 C 
ATOM      4  N   UNL     1      -0.565  11.984  21.302  0.00  0.00    +0.000 N 
ATOM      5  H   UNL     1      -1.096  12.705  20.833  0.00  0.00    +0.000 HD
BRANCH   3   6
ATOM      6  C   UNL     1      -2.108  12.324  23.094  0.00  0.00    +0.000 C 
ATOM      7  C   UNL     1      -2.528  13.467  22.525  0.00  0.00    +0.000 C 
BRANCH   7   8
ATOM      8  C   UNL     1      -3.725  14.187  23.005  0.00  0.00    +0.000 A 
ATOM      9  C   UNL     1      -5.012  13.863  22.533  0.00  0.00    +0.000 A 
ATOM     10 CL   UNL     1      -5.274  12.577  21.402  0.00  0.00    +0.000 Cl
ATOM     11  C   UNL     1      -6.142  14.569  22.967  0.00  0.00    +0.000 A 
ATOM     12  C   UNL     1      -6.012  15.608  23.885  0.00  0.00    +0.000 A 
ATOM     13  C   UNL     1      -4.750  15.935  24.378  0.00  0.00    +0.000 A 
ATOM     14  C   UNL     1      -3.618  15.230  23.944  0.00  0.00    +0.000 A 
ATOM     15 CL   UNL     1      -2.094  15.701  24.619  0.00  0.00    +0.000 Cl
ENDBRANCH   7   8
ENDBRANCH   3   6
ENDBRANCH   1   4
BRANCH   1  16
ATOM     16  C   UNL     1       0.305  10.451  19.508  0.00  0.00    +0.000 C 
BRANCH  16  17
ATOM     17  N   UNL     1       1.090   9.226  19.627  0.00  0.00    +0.000 N 
ATOM     18  C   UNL     1       1.902   8.780  18.611  0.00  0.00    +0.000 C 
ATOM     19  O   UNL     1       2.081   9.388  17.565  0.00  0.00    +0.000 OA
ATOM     20  H   UNL     1       0.989   8.684  20.474  0.00  0.00    +0.000 HD
BRANCH  18  21
ATOM     21  C   UNL     1       2.555   7.472  18.901  0.00  0.00    +0.000 C 
ATOM     22  C   UNL     1       2.181   6.377  18.217  0.00  0.00    +0.000 C 
BRANCH  22  23
ATOM     23  C   UNL     1       2.788   5.047  18.419  0.00  0.00    +0.000 A 
ATOM     24  C   UNL     1       2.283   4.147  19.377  0.00  0.00    +0.000 A 
ATOM     25 CL   UNL     1       0.929   4.546  20.381  0.00  0.00    +0.000 Cl
ATOM     26  C   UNL     1       2.848   2.876  19.546  0.00  0.00    +0.000 A 
ATOM     27  C   UNL     1       3.925   2.475  18.759  0.00  0.00    +0.000 A 
ATOM     28  C   UNL     1       4.436   3.346  17.801  0.00  0.00    +0.000 A 
ATOM     29  C   UNL     1       3.875   4.619  17.631  0.00  0.00    +0.000 A 
ATOM     30 CL   UNL     1       4.564   5.626  16.402  0.00  0.00    +0.000 Cl
ENDBRANCH  22  23
ENDBRANCH  18  21
ENDBRANCH  16  17
ENDBRANCH   1  16
TORSDOF 7
ENDMDL
