MODEL 1
REMARK VINA RESULT:      -8.7      0.000      0.000
REMARK  Name = 
REMARK  6 active torsions:
REMARK  status: ('A' for Active; 'I' for Inactive)
REMARK    1  A    between atoms: C_1  and  C_2
REMARK    2  A    between atoms: C_7  and  S_8
REMARK    3  A    between atoms: S_8  and  N_11
REMARK    4  A    between atoms: C_18  and  C_19
REMARK    5  A    between atoms: N_21  and  C_22
REMARK    6  A    between atoms: C_22  and  C_23
REMARK                            x       y       z     vdW  Elec       q    Type
REMARK                         _______ _______ _______ _____ _____    ______ ____
ROOT
ATOM      1  N   UNL     1       3.039   4.987  18.668  0.00  0.00    +0.000 NA
ATOM      2  C   UNL     1       2.035   4.920  19.762  0.00  0.00    +0.000 C 
ATOM      3  C   UNL     1       1.923   6.267  20.504  0.00  0.00    +0.000 C 
ATOM      4  N   UNL     1       1.533   7.328  19.554  0.00  0.00    +0.000 N 
ATOM      5  C   UNL     1       1.208   8.547  20.187  0.00  0.00    +0.000 A 
ATOM      6  C   UNL     1       0.461   9.494  19.488  0.00  0.00    +0.000 A 
ATOM      7  C   UNL     1      -0.034  10.628  20.138  0.00  0.00    +0.000 A 
ATOM      8  C   UNL     1       0.247  10.799  21.481  0.00  0.00    +0.000 A 
ATOM      9  N   UNL     1       1.013   9.916  22.153  0.00  0.00    +0.000 NA
ATOM     10  N   UNL     1       1.486   8.783  21.493  0.00  0.00    +0.000 NA
ATOM     11  C   UNL     1       2.451   7.470  18.401  0.00  0.00    +0.000 C 
ATOM     12  C   UNL     1       2.788   6.117  17.727  0.00  0.00    +0.000 C 
ENDROOT
BRANCH   8  13
ATOM     13  C   UNL     1      -0.379  11.919  22.245  0.00  0.00    +0.000 C 
ATOM     14  O   UNL     1       0.127  13.037  22.219  0.00  0.00    +0.000 OA
ATOM     15  N   UNL     1      -1.541  11.631  22.933  0.00  0.00    +0.000 N 
ATOM     16  H   UNL     1      -1.876  10.675  22.937  0.00  0.00    +0.000 HD
BRANCH  15  17
ATOM     17  C   UNL     1      -2.240  12.629  23.713  0.00  0.00    +0.000 C 
BRANCH  17  18
ATOM     18  C   UNL     1      -3.688  12.759  23.303  0.00  0.00    +0.000 A 
ATOM     19  C   UNL     1      -4.044  12.799  21.945  0.00  0.00    +0.000 A 
ATOM     20  C   UNL     1      -5.386  12.828  21.567  0.00  0.00    +0.000 A 
ATOM     21  C   UNL     1      -6.376  12.831  22.545  0.00  0.00    +0.000 A 
ATOM     22  F   UNL     1      -7.662  12.844  22.177  0.00  0.00    +0.000 F 
ATOM     23  C   UNL     1      -6.050  12.811  23.895  0.00  0.00    +0.000 A 
ATOM     24  C   UNL     1      -4.707  12.775  24.275  0.00  0.00    +0.000 A 
ENDBRANCH  17  18
ENDBRANCH  15  17
ENDBRANCH   8  13
BRANCH   1  25
ATOM     25  S   UNL     1       4.632   4.583  19.049  0.00  0.00    +0.000 S 
ATOM     26  O   UNL     1       4.629   3.215  19.526  0.00  0.00    +0.000 OA
ATOM     27  O   UNL     1       5.212   5.645  19.848  0.00  0.00    +0.000 OA
BRANCH  25  34
ATOM     28  C   UNL     1       7.671   5.453  18.499  0.00  0.00    +0.000 C 
ATOM     29  C   UNL     1       6.871   4.869  17.374  0.00  0.00    +0.000 A 
ATOM     30  C   UNL     1       7.510   4.655  16.141  0.00  0.00    +0.000 A 
ATOM     31  C   UNL     1       6.788   4.277  15.009  0.00  0.00    +0.000 A 
ATOM     32  C   UNL     1       5.408   4.126  15.086  0.00  0.00    +0.000 A 
ATOM     33  C   UNL     1       4.756   4.274  16.312  0.00  0.00    +0.000 A 
ATOM     34  C   UNL     1       5.486   4.616  17.465  0.00  0.00    +0.000 A 
ENDBRANCH  25  34
ENDBRANCH   1  25
TORSDOF 5
ENDMDL
MODEL 2
REMARK VINA RESULT:      -8.6      4.392     12.168
REMARK  Name = 
REMARK  6 active torsions:
REMARK  status: ('A' for Active; 'I' for Inactive)
REMARK    1  A    between atoms: C_1  and  C_2
REMARK    2  A    between atoms: C_7  and  S_8
REMARK    3  A    between atoms: S_8  and  N_11
REMARK    4  A    between atoms: C_18  and  C_19
REMARK    5  A    between atoms: N_21  and  C_22
REMARK    6  A    between atoms: C_22  and  C_23
REMARK                            x       y       z     vdW  Elec       q    Type
REMARK                         _______ _______ _______ _____ _____    ______ ____
ROOT
ATOM      1  N   UNL     1      -2.325  13.166  22.158  0.00  0.00    +0.000 NA
ATOM      2  C   UNL     1      -1.250  12.641  23.041  0.00  0.00    +0.000 C 
ATOM      3  C   UNL     1      -0.900  11.180  22.692  0.00  0.00    +0.000 C 
ATOM      4  N   UNL     1      -0.455  11.098  21.286  0.00  0.00    +0.000 N 
ATOM      5  C   UNL     1       0.079   9.835  20.948  0.00  0.00    +0.000 A 
ATOM      6  C   UNL     1       0.884   9.723  19.815  0.00  0.00    +0.000 A 
ATOM      7  C   UNL     1       1.576   8.538  19.550  0.00  0.00    +0.000 A 
ATOM      8  C   UNL     1       1.434   7.477  20.425  0.00  0.00    +0.000 A 
ATOM      9  N   UNL     1       0.617   7.557  21.495  0.00  0.00    +0.000 NA
ATOM     10  N   UNL     1      -0.054   8.751  21.752  0.00  0.00    +0.000 NA
ATOM     11  C   UNL     1      -1.440  11.620  20.312  0.00  0.00    +0.000 C 
ATOM     12  C   UNL     1      -2.007  13.004  20.709  0.00  0.00    +0.000 C 
ENDROOT
BRANCH   8  13
ATOM     13  C   UNL     1       2.264   6.247  20.257  0.00  0.00    +0.000 C 
ATOM     14  O   UNL     1       1.830   5.159  20.626  0.00  0.00    +0.000 OA
ATOM     15  N   UNL     1       3.496   6.404  19.654  0.00  0.00    +0.000 N 
ATOM     16  H   UNL     1       3.799   7.340  19.411  0.00  0.00    +0.000 HD
BRANCH  15  17
ATOM     17  C   UNL     1       4.394   5.290  19.437  0.00  0.00    +0.000 C 
BRANCH  17  18
ATOM     18  C   UNL     1       4.823   5.179  17.993  0.00  0.00    +0.000 A 
ATOM     19  C   UNL     1       5.001   3.920  17.397  0.00  0.00    +0.000 A 
ATOM     20  C   UNL     1       5.309   3.818  16.040  0.00  0.00    +0.000 A 
ATOM     21  C   UNL     1       5.453   4.974  15.279  0.00  0.00    +0.000 A 
ATOM     22  F   UNL     1       5.735   4.871  13.976  0.00  0.00    +0.000 F 
ATOM     23  C   UNL     1       5.301   6.232  15.850  0.00  0.00    +0.000 A 
ATOM     24  C   UNL     1       4.985   6.335  17.206  0.00  0.00    +0.000 A 
ENDBRANCH  17  18
ENDBRANCH  15  17
ENDBRANCH   8  13
BRANCH   1  25
ATOM     25  S   UNL     1      -3.920  12.962  22.670  0.00  0.00    +0.000 S 
ATOM     26  O   UNL     1      -3.887  12.162  23.877  0.00  0.00    +0.000 OA
ATOM     27  O   UNL     1      -4.733  12.563  21.538  0.00  0.00    +0.000 OA
BRANCH  25  34
ATOM     28  C   UNL     1      -6.871  13.887  23.524  0.00  0.00    +0.000 C 
ATOM     29  C   UNL     1      -5.745  14.873  23.626  0.00  0.00    +0.000 A 
ATOM     30  C   UNL     1      -6.017  16.141  24.166  0.00  0.00    +0.000 A 
ATOM     31  C   UNL     1      -5.063  17.159  24.132  0.00  0.00    +0.000 A 
ATOM     32  C   UNL     1      -3.826  16.931  23.540  0.00  0.00    +0.000 A 
ATOM     33  C   UNL     1      -3.509  15.662  23.050  0.00  0.00    +0.000 A 
ATOM     34  C   UNL     1      -4.454  14.621  23.117  0.00  0.00    +0.000 A 
ENDBRANCH  25  34
ENDBRANCH   1  25
TORSDOF 5
ENDMDL
MODEL 3
REMARK VINA RESULT:      -8.5      6.567      9.632
REMARK  Name = 
REMARK  6 active torsions:
REMARK  status: ('A' for Active; 'I' for Inactive)
REMARK    1  A    between atoms: C_1  and  C_2
REMARK    2  A    between atoms: C_7  and  S_8
REMARK    3  A    between atoms: S_8  and  N_11
REMARK    4  A    between atoms: C_18  and  C_19
REMARK    5  A    between atoms: N_21  and  C_22
REMARK    6  A    between atoms: C_22  and  C_23
REMARK                            x       y       z     vdW  Elec       q    Type
REMARK                         _______ _______ _______ _____ _____    ______ ____
ROOT
ATOM      1  N   UNL     1       4.317   3.049  17.646  0.00  0.00    +0.000 NA
ATOM      2  C   UNL     1       5.041   3.604  16.472  0.00  0.00    +0.000 C 
ATOM      3  C   UNL     1       5.398   5.089  16.683  0.00  0.00    +0.000 C 
ATOM      4  N   UNL     1       6.244   5.231  17.885  0.00  0.00    +0.000 N 
ATOM      5  C   UNL     1       6.785   6.528  18.031  0.00  0.00    +0.000 A 
ATOM      6  C   UNL     1       7.888   6.710  18.864  0.00  0.00    +0.000 A 
ATOM      7  C   UNL     1       8.560   7.935  18.892  0.00  0.00    +0.000 A 
ATOM      8  C   UNL     1       8.099   8.964  18.092  0.00  0.00    +0.000 A 
ATOM      9  N   UNL     1       7.002   8.814  17.324  0.00  0.00    +0.000 NA
ATOM     10  N   UNL     1       6.352   7.581  17.296  0.00  0.00    +0.000 NA
ATOM     11  C   UNL     1       5.634   4.686  19.118  0.00  0.00    +0.000 C 
ATOM     12  C   UNL     1       5.051   3.265  18.927  0.00  0.00    +0.000 C 
ENDROOT
BRANCH   8  13
ATOM     13  C   UNL     1       8.870  10.238  17.986  0.00  0.00    +0.000 C 
ATOM     14  O   UNL     1       8.465  11.142  17.261  0.00  0.00    +0.000 OA
ATOM     15  N   UNL     1      10.014  10.341  18.754  0.00  0.00    +0.000 N 
ATOM     16  H   UNL     1      10.303   9.537  19.299  0.00  0.00    +0.000 HD
BRANCH  15  17
ATOM     17  C   UNL     1      10.849  11.522  18.737  0.00  0.00    +0.000 C 
BRANCH  17  18
ATOM     18  C   UNL     1      10.557  12.441  19.900  0.00  0.00    +0.000 A 
ATOM     19  C   UNL     1      11.006  13.771  19.889  0.00  0.00    +0.000 A 
ATOM     20  C   UNL     1      10.659  14.643  20.921  0.00  0.00    +0.000 A 
ATOM     21  C   UNL     1       9.873  14.184  21.973  0.00  0.00    +0.000 A 
ATOM     22  F   UNL     1       9.531  15.027  22.954  0.00  0.00    +0.000 F 
ATOM     23  C   UNL     1       9.431  12.867  22.017  0.00  0.00    +0.000 A 
ATOM     24  C   UNL     1       9.772  11.996  20.981  0.00  0.00    +0.000 A 
ENDBRANCH  17  18
ENDBRANCH  15  17
ENDBRANCH   8  13
BRANCH   1  25
ATOM     25  S   UNL     1       2.633   3.158  17.644  0.00  0.00    +0.000 S 
ATOM     26  O   UNL     1       2.127   2.038  18.411  0.00  0.00    +0.000 OA
ATOM     27  O   UNL     1       2.175   3.395  16.290  0.00  0.00    +0.000 OA
BRANCH  25  34
ATOM     28  C   UNL     1       1.325   3.389  20.565  0.00  0.00    +0.000 C 
ATOM     29  C   UNL     1       1.854   4.629  19.909  0.00  0.00    +0.000 A 
ATOM     30  C   UNL     1       1.824   5.832  20.634  0.00  0.00    +0.000 A 
ATOM     31  C   UNL     1       2.139   7.048  20.028  0.00  0.00    +0.000 A 
ATOM     32  C   UNL     1       2.471   7.085  18.678  0.00  0.00    +0.000 A 
ATOM     33  C   UNL     1       2.566   5.898  17.949  0.00  0.00    +0.000 A 
ATOM     34  C   UNL     1       2.288   4.664  18.567  0.00  0.00    +0.000 A 
ENDBRANCH  25  34
ENDBRANCH   1  25
TORSDOF 5
ENDMDL
MODEL 4
REMARK VINA RESULT:      -8.5      4.452     12.000
REMARK  Name = 
REMARK  6 active torsions:
REMARK  status: ('A' for Active; 'I' for Inactive)
REMARK    1  A    between atoms: C_1  and  C_2
REMARK    2  A    between atoms: C_7  and  S_8
REMARK    3  A    between atoms: S_8  and  N_11
REMARK    4  A    between atoms: C_18  and  C_19
REMARK    5  A    between atoms: N_21  and  C_22
REMARK    6  A    between atoms: C_22  and  C_23
REMARK                            x       y       z     vdW  Elec       q    Type
REMARK                         _______ _______ _______ _____ _____    ______ ____
ROOT
ATOM      1  N   UNL     1      -0.677  13.231  20.756  0.00  0.00    +0.000 NA
ATOM      2  C   UNL     1       0.674  12.834  21.232  0.00  0.00    +0.000 C 
ATOM      3  C   UNL     1       0.907  11.319  21.062  0.00  0.00    +0.000 C 
ATOM      4  N   UNL     1       0.767  10.951  19.638  0.00  0.00    +0.000 N 
ATOM      5  C   UNL     1       1.167   9.624  19.367  0.00  0.00    +0.000 A 
ATOM      6  C   UNL     1       1.465   9.262  18.055  0.00  0.00    +0.000 A 
ATOM      7  C   UNL     1       2.037   8.018  17.773  0.00  0.00    +0.000 A 
ATOM      8  C   UNL     1       2.284   7.150  18.821  0.00  0.00    +0.000 A 
ATOM      9  N   UNL     1       1.950   7.469  20.087  0.00  0.00    +0.000 NA
ATOM     10  N   UNL     1       1.395   8.720  20.351  0.00  0.00    +0.000 NA
ATOM     11  C   UNL     1      -0.537  11.324  19.046  0.00  0.00    +0.000 C 
ATOM     12  C   UNL     1      -0.948  12.783  19.359  0.00  0.00    +0.000 C 
ENDROOT
BRANCH   8  13
ATOM     13  C   UNL     1       3.021   5.873  18.582  0.00  0.00    +0.000 C 
ATOM     14  O   UNL     1       2.407   4.863  18.249  0.00  0.00    +0.000 OA
ATOM     15  N   UNL     1       4.394   5.910  18.726  0.00  0.00    +0.000 N 
ATOM     16  H   UNL     1       4.824   6.772  19.040  0.00  0.00    +0.000 HD
BRANCH  15  17
ATOM     17  C   UNL     1       5.220   4.739  18.526  0.00  0.00    +0.000 C 
BRANCH  17  18
ATOM     18  C   UNL     1       5.757   4.656  17.116  0.00  0.00    +0.000 A 
ATOM     19  C   UNL     1       4.954   4.162  16.076  0.00  0.00    +0.000 A 
ATOM     20  C   UNL     1       5.418   4.170  14.761  0.00  0.00    +0.000 A 
ATOM     21  C   UNL     1       6.690   4.661  14.484  0.00  0.00    +0.000 A 
ATOM     22  F   UNL     1       7.126   4.679  13.219  0.00  0.00    +0.000 F 
ATOM     23  C   UNL     1       7.511   5.138  15.498  0.00  0.00    +0.000 A 
ATOM     24  C   UNL     1       7.045   5.138  16.814  0.00  0.00    +0.000 A 
ENDBRANCH  17  18
ENDBRANCH  15  17
ENDBRANCH   8  13
BRANCH   1  25
ATOM     25  S   UNL     1      -1.936  13.201  21.879  0.00  0.00    +0.000 S 
ATOM     26  O   UNL     1      -1.383  12.740  23.136  0.00  0.00    +0.000 OA
ATOM     27  O   UNL     1      -3.083  12.541  21.288  0.00  0.00    +0.000 OA
BRANCH  25  34
ATOM     28  C   UNL     1      -4.177  14.409  23.832  0.00  0.00    +0.000 C 
ATOM     29  C   UNL     1      -3.286  15.353  23.081  0.00  0.00    +0.000 A 
ATOM     30  C   UNL     1      -3.420  16.731  23.323  0.00  0.00    +0.000 A 
ATOM     31  C   UNL     1      -2.748  17.669  22.540  0.00  0.00    +0.000 A 
ATOM     32  C   UNL     1      -1.944  17.246  21.486  0.00  0.00    +0.000 A 
ATOM     33  C   UNL     1      -1.748  15.882  21.262  0.00  0.00    +0.000 A 
ATOM     34  C   UNL     1      -2.392  14.931  22.075  0.00  0.00    +0.000 A 
ENDBRANCH  25  34
ENDBRANCH   1  25
TORSDOF 5
ENDMDL
MODEL 5
REMARK VINA RESULT:      -8.4      0.398      1.205
REMARK  Name = 
REMARK  6 active torsions:
REMARK  status: ('A' for Active; 'I' for Inactive)
REMARK    1  A    between atoms: C_1  and  C_2
REMARK    2  A    between atoms: C_7  and  S_8
REMARK    3  A    between atoms: S_8  and  N_11
REMARK    4  A    between atoms: C_18  and  C_19
REMARK    5  A    between atoms: N_21  and  C_22
REMARK    6  A    between atoms: C_22  and  C_23
REMARK                            x       y       z     vdW  Elec       q    Type
REMARK                         _______ _______ _______ _____ _____    ______ ____
ROOT
ATOM      1  N   UNL     1       3.129   5.009  18.800  0.00  0.00    +0.000 NA
ATOM      2  C   UNL     1       2.144   4.966  19.912  0.00  0.00    +0.000 C 
ATOM      3  C   UNL     1       2.022   6.337  20.608  0.00  0.00    +0.000 C 
ATOM      4  N   UNL     1       1.600   7.357  19.627  0.00  0.00    +0.000 N 
ATOM      5  C   UNL     1       1.265   8.593  20.222  0.00  0.00    +0.000 A 
ATOM      6  C   UNL     1       0.492   9.502  19.502  0.00  0.00    +0.000 A 
ATOM      7  C   UNL     1      -0.011  10.651  20.120  0.00  0.00    +0.000 A 
ATOM      8  C   UNL     1       0.288  10.874  21.451  0.00  0.00    +0.000 A 
ATOM      9  N   UNL     1       1.079  10.028  22.141  0.00  0.00    +0.000 NA
ATOM     10  N   UNL     1       1.559   8.879  21.514  0.00  0.00    +0.000 NA
ATOM     11  C   UNL     1       2.497   7.471  18.455  0.00  0.00    +0.000 C 
ATOM     12  C   UNL     1       2.845   6.101  17.824  0.00  0.00    +0.000 C 
ENDROOT
BRANCH   8  13
ATOM     13  C   UNL     1      -0.343  12.011  22.184  0.00  0.00    +0.000 C 
ATOM     14  O   UNL     1       0.181  13.121  22.165  0.00  0.00    +0.000 OA
ATOM     15  N   UNL     1      -1.531  11.748  22.838  0.00  0.00    +0.000 N 
ATOM     16  H   UNL     1      -1.882  10.797  22.840  0.00  0.00    +0.000 HD
BRANCH  15  17
ATOM     17  C   UNL     1      -2.239  12.764  23.587  0.00  0.00    +0.000 C 
BRANCH  17  18
ATOM     18  C   UNL     1      -3.711  12.797  23.248  0.00  0.00    +0.000 A 
ATOM     19  C   UNL     1      -4.134  12.820  21.910  0.00  0.00    +0.000 A 
ATOM     20  C   UNL     1      -5.492  12.760  21.598  0.00  0.00    +0.000 A 
ATOM     21  C   UNL     1      -6.431  12.690  22.623  0.00  0.00    +0.000 A 
ATOM     22  F   UNL     1      -7.732  12.618  22.318  0.00  0.00    +0.000 F 
ATOM     23  C   UNL     1      -6.038  12.685  23.955  0.00  0.00    +0.000 A 
ATOM     24  C   UNL     1      -4.679  12.738  24.269  0.00  0.00    +0.000 A 
ENDBRANCH  17  18
ENDBRANCH  15  17
ENDBRANCH   8  13
BRANCH   1  25
ATOM     25  S   UNL     1       4.734   4.644  19.169  0.00  0.00    +0.000 S 
ATOM     26  O   UNL     1       4.752   3.322  19.760  0.00  0.00    +0.000 OA
ATOM     27  O   UNL     1       5.330   5.772  19.858  0.00  0.00    +0.000 OA
BRANCH  25  34
ATOM     28  C   UNL     1       3.926   2.762  16.699  0.00  0.00    +0.000 C 
ATOM     29  C   UNL     1       4.999   3.791  16.504  0.00  0.00    +0.000 A 
ATOM     30  C   UNL     1       5.554   3.941  15.222  0.00  0.00    +0.000 A 
ATOM     31  C   UNL     1       6.667   4.754  15.008  0.00  0.00    +0.000 A 
ATOM     32  C   UNL     1       7.258   5.418  16.078  0.00  0.00    +0.000 A 
ATOM     33  C   UNL     1       6.690   5.333  17.352  0.00  0.00    +0.000 A 
ATOM     34  C   UNL     1       5.543   4.546  17.564  0.00  0.00    +0.000 A 
ENDBRANCH  25  34
ENDBRANCH   1  25
TORSDOF 5
ENDMDL
MODEL 6
REMARK VINA RESULT:      -8.4      4.409     11.939
REMARK  Name = 
REMARK  6 active torsions:
REMARK  status: ('A' for Active; 'I' for Inactive)
REMARK    1  A    between atoms: C_1  and  C_2
REMARK    2  A    between atoms: C_7  and  S_8
REMARK    3  A    between atoms: S_8  and  N_11
REMARK    4  A    between atoms: C_18  and  C_19
REMARK    5  A    between atoms: N_21  and  C_22
REMARK    6  A    between atoms: C_22  and  C_23
REMARK                            x       y       z     vdW  Elec       q    Type
REMARK                         _______ _______ _______ _____ _____    ______ ____
ROOT
ATOM      1  N   UNL     1      -1.149  12.949  20.488  0.00  0.00    +0.000 NA
ATOM      2  C   UNL     1       0.134  12.630  21.167  0.00  0.00    +0.000 C 
ATOM      3  C   UNL     1       0.498  11.140  21.008  0.00  0.00    +0.000 C 
ATOM      4  N   UNL     1       0.615  10.807  19.575  0.00  0.00    +0.000 N 
ATOM      5  C   UNL     1       1.147   9.519  19.346  0.00  0.00    +0.000 A 
ATOM      6  C   UNL     1       1.676   9.219  18.092  0.00  0.00    +0.000 A 
ATOM      7  C   UNL     1       2.373   8.025  17.884  0.00  0.00    +0.000 A 
ATOM      8  C   UNL     1       2.512   7.144  18.940  0.00  0.00    +0.000 A 
ATOM      9  N   UNL     1       1.958   7.401  20.142  0.00  0.00    +0.000 NA
ATOM     10  N   UNL     1       1.279   8.603  20.337  0.00  0.00    +0.000 NA
ATOM     11  C   UNL     1      -0.602  11.109  18.786  0.00  0.00    +0.000 C 
ATOM     12  C   UNL     1      -1.161  12.526  19.057  0.00  0.00    +0.000 C 
ENDROOT
BRANCH   8  13
ATOM     13  C   UNL     1       3.367   5.928  18.799  0.00  0.00    +0.000 C 
ATOM     14  O   UNL     1       4.137   5.612  19.701  0.00  0.00    +0.000 OA
ATOM     15  N   UNL     1       3.218   5.193  17.640  0.00  0.00    +0.000 N 
ATOM     16  H   UNL     1       2.590   5.540  16.925  0.00  0.00    +0.000 HD
BRANCH  15  17
ATOM     17  C   UNL     1       3.991   3.997  17.382  0.00  0.00    +0.000 C 
BRANCH  17  18
ATOM     18  C   UNL     1       5.108   4.244  16.395  0.00  0.00    +0.000 A 
ATOM     19  C   UNL     1       4.896   4.064  15.019  0.00  0.00    +0.000 A 
ATOM     20  C   UNL     1       5.900   4.378  14.103  0.00  0.00    +0.000 A 
ATOM     21  C   UNL     1       7.121   4.862  14.561  0.00  0.00    +0.000 A 
ATOM     22  F   UNL     1       8.076   5.175  13.677  0.00  0.00    +0.000 F 
ATOM     23  C   UNL     1       7.362   5.031  15.918  0.00  0.00    +0.000 A 
ATOM     24  C   UNL     1       6.356   4.724  16.836  0.00  0.00    +0.000 A 
ENDBRANCH  17  18
ENDBRANCH  15  17
ENDBRANCH   8  13
BRANCH   1  25
ATOM     25  S   UNL     1      -2.566  12.800  21.392  0.00  0.00    +0.000 S 
ATOM     26  O   UNL     1      -2.235  12.065  22.595  0.00  0.00    +0.000 OA
ATOM     27  O   UNL     1      -3.638  12.355  20.524  0.00  0.00    +0.000 OA
BRANCH  25  34
ATOM     28  C   UNL     1      -1.368  14.458  23.864  0.00  0.00    +0.000 C 
ATOM     29  C   UNL     1      -2.255  15.163  22.882  0.00  0.00    +0.000 A 
ATOM     30  C   UNL     1      -2.464  16.543  23.043  0.00  0.00    +0.000 A 
ATOM     31  C   UNL     1      -3.407  17.225  22.273  0.00  0.00    +0.000 A 
ATOM     32  C   UNL     1      -4.173  16.533  21.341  0.00  0.00    +0.000 A 
ATOM     33  C   UNL     1      -3.943  15.173  21.120  0.00  0.00    +0.000 A 
ATOM     34  C   UNL     1      -2.966  14.490  21.866  0.00  0.00    +0.000 A 
ENDBRANCH  25  34
ENDBRANCH   1  25
TORSDOF 5
ENDMDL
MODEL 7
REMARK VINA RESULT:      -8.4      4.679     11.510
REMARK  Name = 
REMARK  6 active torsions:
REMARK  status: ('A' for Active; 'I' for Inactive)
REMARK    1  A    between atoms: C_1  and  C_2
REMARK    2  A    between atoms: C_7  and  S_8
REMARK    3  A    between atoms: S_8  and  N_11
REMARK    4  A    between atoms: C_18  and  C_19
REMARK    5  A    between atoms: N_21  and  C_22
REMARK    6  A    between atoms: C_22  and  C_23
REMARK                            x       y       z     vdW  Elec       q    Type
REMARK                         _______ _______ _______ _____ _____    ______ ____
ROOT
ATOM      1  N   UNL     1      -4.053  14.202  22.747  0.00  0.00    +0.000 NA
ATOM      2  C   UNL     1      -2.853  13.636  23.417  0.00  0.00    +0.000 C 
ATOM      3  C   UNL     1      -2.293  12.429  22.638  0.00  0.00    +0.000 C 
ATOM      4  N   UNL     1      -1.931  12.845  21.268  0.00  0.00    +0.000 N 
ATOM      5  C   UNL     1      -1.220  11.853  20.557  0.00  0.00    +0.000 A 
ATOM      6  C   UNL     1      -0.482  12.224  19.434  0.00  0.00    +0.000 A 
ATOM      7  C   UNL     1       0.376  11.311  18.815  0.00  0.00    +0.000 A 
ATOM      8  C   UNL     1       0.465  10.031  19.330  0.00  0.00    +0.000 A 
ATOM      9  N   UNL     1      -0.284   9.647  20.383  0.00  0.00    +0.000 NA
ATOM     10  N   UNL     1      -1.123  10.574  20.997  0.00  0.00    +0.000 NA
ATOM     11  C   UNL     1      -3.047  13.452  20.509  0.00  0.00    +0.000 C 
ATOM     12  C   UNL     1      -3.806  14.535  21.313  0.00  0.00    +0.000 C 
ENDROOT
BRANCH   8  13
ATOM     13  C   UNL     1       1.472   9.070  18.788  0.00  0.00    +0.000 C 
ATOM     14  O   UNL     1       1.928   9.230  17.659  0.00  0.00    +0.000 OA
ATOM     15  N   UNL     1       1.865   8.042  19.623  0.00  0.00    +0.000 N 
ATOM     16  H   UNL     1       1.414   7.955  20.526  0.00  0.00    +0.000 HD
BRANCH  15  17
ATOM     17  C   UNL     1       2.830   7.045  19.214  0.00  0.00    +0.000 C 
BRANCH  17  18
ATOM     18  C   UNL     1       2.213   5.671  19.095  0.00  0.00    +0.000 A 
ATOM     19  C   UNL     1       2.243   4.979  17.874  0.00  0.00    +0.000 A 
ATOM     20  C   UNL     1       1.753   3.676  17.788  0.00  0.00    +0.000 A 
ATOM     21  C   UNL     1       1.221   3.066  18.920  0.00  0.00    +0.000 A 
ATOM     22  F   UNL     1       0.765   1.811  18.837  0.00  0.00    +0.000 F 
ATOM     23  C   UNL     1       1.163   3.737  20.136  0.00  0.00    +0.000 A 
ATOM     24  C   UNL     1       1.659   5.039  20.224  0.00  0.00    +0.000 A 
ENDBRANCH  17  18
ENDBRANCH  15  17
ENDBRANCH   8  13
BRANCH   1  25
ATOM     25  S   UNL     1      -5.558  13.581  23.191  0.00  0.00    +0.000 S 
ATOM     26  O   UNL     1      -6.248  14.614  23.936  0.00  0.00    +0.000 OA
ATOM     27  O   UNL     1      -5.376  12.257  23.754  0.00  0.00    +0.000 OA
BRANCH  25  34
ATOM     28  C   UNL     1      -7.316  15.750  21.611  0.00  0.00    +0.000 C 
ATOM     29  C   UNL     1      -7.032  14.432  20.955  0.00  0.00    +0.000 A 
ATOM     30  C   UNL     1      -7.484  14.230  19.640  0.00  0.00    +0.000 A 
ATOM     31  C   UNL     1      -7.405  12.976  19.034  0.00  0.00    +0.000 A 
ATOM     32  C   UNL     1      -6.889  11.895  19.741  0.00  0.00    +0.000 A 
ATOM     33  C   UNL     1      -6.378  12.082  21.027  0.00  0.00    +0.000 A 
ATOM     34  C   UNL     1      -6.420  13.354  21.628  0.00  0.00    +0.000 A 
ENDBRANCH  25  34
ENDBRANCH   1  25
TORSDOF 5
ENDMDL
MODEL 8
REMARK VINA RESULT:      -8.4      4.294     11.962
REMARK  Name = 
REMARK  6 active torsions:
REMARK  status: ('A' for Active; 'I' for Inactive)
REMARK    1  A    between atoms: C_1  and  C_2
REMARK    2  A    between atoms: C_7  and  S_8
REMARK    3  A    between atoms: S_8  and  N_11
REMARK    4  A    between atoms: C_18  and  C_19
REMARK    5  A    between atoms: N_21  and  C_22
REMARK    6  A    between atoms: C_22  and  C_23
REMARK                            x       y       z     vdW  Elec       q    Type
REMARK                         _______ _______ _______ _____ _____    ______ ____
ROOT
ATOM      1  N   UNL     1      -0.328  10.697  20.130  0.00  0.00    +0.000 NA
ATOM      2  C   UNL     1      -0.321  10.153  18.747  0.00  0.00    +0.000 C 
ATOM      3  C   UNL     1       1.028   9.486  18.413  0.00  0.00    +0.000 C 
ATOM      4  N   UNL     1       1.290   8.389  19.366  0.00  0.00    +0.000 N 
ATOM      5  C   UNL     1       2.401   7.595  19.005  0.00  0.00    +0.000 A 
ATOM      6  C   UNL     1       2.533   6.324  19.562  0.00  0.00    +0.000 A 
ATOM      7  C   UNL     1       3.512   5.442  19.095  0.00  0.00    +0.000 A 
ATOM      8  C   UNL     1       4.355   5.863  18.083  0.00  0.00    +0.000 A 
ATOM      9  N   UNL     1       4.270   7.109  17.575  0.00  0.00    +0.000 NA
ATOM     10  N   UNL     1       3.278   7.970  18.042  0.00  0.00    +0.000 NA
ATOM     11  C   UNL     1       1.281   8.809  20.785  0.00  0.00    +0.000 C 
ATOM     12  C   UNL     1       0.052   9.676  21.150  0.00  0.00    +0.000 C 
ENDROOT
BRANCH   8  13
ATOM     13  C   UNL     1       5.318   4.908  17.459  0.00  0.00    +0.000 C 
ATOM     14  O   UNL     1       6.431   4.748  17.953  0.00  0.00    +0.000 OA
ATOM     15  N   UNL     1       4.879   4.218  16.346  0.00  0.00    +0.000 N 
ATOM     16  H   UNL     1       3.961   4.432  15.976  0.00  0.00    +0.000 HD
BRANCH  15  17
ATOM     17  C   UNL     1       5.719   3.267  15.650  0.00  0.00    +0.000 C 
BRANCH  17  18
ATOM     18  C   UNL     1       6.303   3.846  14.383  0.00  0.00    +0.000 A 
ATOM     19  C   UNL     1       5.859   3.406  13.126  0.00  0.00    +0.000 A 
ATOM     20  C   UNL     1       6.334   4.005  11.959  0.00  0.00    +0.000 A 
ATOM     21  C   UNL     1       7.264   5.036  12.045  0.00  0.00    +0.000 A 
ATOM     22  F   UNL     1       7.706   5.617  10.924  0.00  0.00    +0.000 F 
ATOM     23  C   UNL     1       7.733   5.477  13.277  0.00  0.00    +0.000 A 
ATOM     24  C   UNL     1       7.253   4.883  14.445  0.00  0.00    +0.000 A 
ENDBRANCH  17  18
ENDBRANCH  15  17
ENDBRANCH   8  13
BRANCH   1  25
ATOM     25  S   UNL     1       0.187  12.290  20.342  0.00  0.00    +0.000 S 
ATOM     26  O   UNL     1       0.035  12.965  19.070  0.00  0.00    +0.000 OA
ATOM     27  O   UNL     1       1.462  12.289  21.032  0.00  0.00    +0.000 OA
BRANCH  25  34
ATOM     28  C   UNL     1      -2.989  12.510  19.942  0.00  0.00    +0.000 C 
ATOM     29  C   UNL     1      -2.399  12.888  21.267  0.00  0.00    +0.000 A 
ATOM     30  C   UNL     1      -3.271  13.252  22.307  0.00  0.00    +0.000 A 
ATOM     31  C   UNL     1      -2.787  13.776  23.505  0.00  0.00    +0.000 A 
ATOM     32  C   UNL     1      -1.420  13.965  23.678  0.00  0.00    +0.000 A 
ATOM     33  C   UNL     1      -0.528  13.557  22.684  0.00  0.00    +0.000 A 
ATOM     34  C   UNL     1      -1.010  12.991  21.490  0.00  0.00    +0.000 A 
ENDBRANCH  25  34
ENDBRANCH   1  25
TORSDOF 5
ENDMDL
MODEL 9
REMARK VINA RESULT:      -8.3      4.780     11.849
REMARK  Name = 
REMARK  6 active torsions:
REMARK  status: ('A' for Active; 'I' for Inactive)
REMARK    1  A    between atoms: C_1  and  C_2
REMARK    2  A    between atoms: C_7  and  S_8
REMARK    3  A    between atoms: S_8  and  N_11
REMARK    4  A    between atoms: C_18  and  C_19
REMARK    5  A    between atoms: N_21  and  C_22
REMARK    6  A    between atoms: C_22  and  C_23
REMARK                            x       y       z     vdW  Elec       q    Type
REMARK                         _______ _______ _______ _____ _____    ______ ____
ROOT
ATOM      1  N   UNL     1      -4.600  14.322  21.312  0.00  0.00    +0.000 NA
ATOM      2  C   UNL     1      -3.190  14.748  21.116  0.00  0.00    +0.000 C 
ATOM      3  C   UNL     1      -2.248  13.532  20.995  0.00  0.00    +0.000 C 
ATOM      4  N   UNL     1      -2.663  12.693  19.853  0.00  0.00    +0.000 N 
ATOM      5  C   UNL     1      -1.734  11.675  19.547  0.00  0.00    +0.000 A 
ATOM      6  C   UNL     1      -1.781  11.072  18.291  0.00  0.00    +0.000 A 
ATOM      7  C   UNL     1      -0.770  10.196  17.887  0.00  0.00    +0.000 A 
ATOM      8  C   UNL     1       0.266   9.928  18.762  0.00  0.00    +0.000 A 
ATOM      9  N   UNL     1       0.293  10.465  19.999  0.00  0.00    +0.000 NA
ATOM     10  N   UNL     1      -0.715  11.348  20.380  0.00  0.00    +0.000 NA
ATOM     11  C   UNL     1      -4.067  12.230  19.926  0.00  0.00    +0.000 C 
ATOM     12  C   UNL     1      -5.062  13.367  20.262  0.00  0.00    +0.000 C 
ENDROOT
BRANCH   8  13
ATOM     13  C   UNL     1       1.435   9.112  18.318  0.00  0.00    +0.000 C 
ATOM     14  O   UNL     1       2.141   9.503  17.392  0.00  0.00    +0.000 OA
ATOM     15  N   UNL     1       1.679   7.944  19.013  0.00  0.00    +0.000 N 
ATOM     16  H   UNL     1       1.030   7.669  19.740  0.00  0.00    +0.000 HD
BRANCH  15  17
ATOM     17  C   UNL     1       2.778   7.064  18.677  0.00  0.00    +0.000 C 
BRANCH  17  18
ATOM     18  C   UNL     1       2.407   5.608  18.828  0.00  0.00    +0.000 A 
ATOM     19  C   UNL     1       2.595   4.710  17.765  0.00  0.00    +0.000 A 
ATOM     20  C   UNL     1       2.337   3.350  17.935  0.00  0.00    +0.000 A 
ATOM     21  C   UNL     1       1.878   2.886  19.164  0.00  0.00    +0.000 A 
ATOM     22  F   UNL     1       1.645   1.578  19.327  0.00  0.00    +0.000 F 
ATOM     23  C   UNL     1       1.667   3.757  20.226  0.00  0.00    +0.000 A 
ATOM     24  C   UNL     1       1.932   5.117  20.059  0.00  0.00    +0.000 A 
ENDBRANCH  17  18
ENDBRANCH  15  17
ENDBRANCH   8  13
BRANCH   1  25
ATOM     25  S   UNL     1      -5.136  14.111  22.897  0.00  0.00    +0.000 S 
ATOM     26  O   UNL     1      -4.891  12.729  23.255  0.00  0.00    +0.000 OA
ATOM     27  O   UNL     1      -6.460  14.687  23.031  0.00  0.00    +0.000 OA
BRANCH  25  34
ATOM     28  C   UNL     1      -5.092  17.316  23.039  0.00  0.00    +0.000 C 
ATOM     29  C   UNL     1      -4.215  16.538  23.974  0.00  0.00    +0.000 A 
ATOM     30  C   UNL     1      -3.465  17.245  24.929  0.00  0.00    +0.000 A 
ATOM     31  C   UNL     1      -2.505  16.604  25.712  0.00  0.00    +0.000 A 
ATOM     32  C   UNL     1      -2.264  15.245  25.540  0.00  0.00    +0.000 A 
ATOM     33  C   UNL     1      -3.037  14.507  24.640  0.00  0.00    +0.000 A 
ATOM     34  C   UNL     1      -4.034  15.143  23.876  0.00  0.00    +0.000 A 
ENDBRANCH  25  34
ENDBRANCH   1  25
TORSDOF 5
ENDMDL
