MODEL 1
REMARK VINA RESULT:      -7.8      0.000      0.000
REMARK  Name = 
REMARK  7 active torsions:
REMARK  status: ('A' for Active; 'I' for Inactive)
REMARK    1  A    between atoms: C_1  and  O_2
REMARK    2  A    between atoms: O_2  and  C_3
REMARK    3  A    between atoms: C_6  and  C_7
REMARK    4  A    between atoms: C_7  and  C_9
REMARK    5  A    between atoms: C_14  and  C_16
REMARK    6  A    between atoms: C_19  and  S_20
REMARK    7  A    between atoms: S_20  and  C_21
REMARK                            x       y       z     vdW  Elec       q    Type
REMARK                         _______ _______ _______ _____ _____    ______ ____
ROOT
ATOM      1  C   UNL     1       3.036   2.774  18.869  0.00  0.00    +0.000 C 
ATOM      2  C   UNL     1       1.589   2.314  19.084  0.00  0.00    +0.000 C 
ATOM      3  C   UNL     1       0.611   3.428  19.470  0.00  0.00    +0.000 C 
ATOM      4  C   UNL     1       1.171   4.474  20.437  0.00  0.00    +0.000 C 
ATOM      5  N   UNL     1       2.550   4.837  20.124  0.00  0.00    +0.000 N 
ATOM      6  C   UNL     1       3.065   6.107  19.835  0.00  0.00    +0.000 C 
ATOM      7  O   UNL     1       4.269   6.236  19.593  0.00  0.00    +0.000 OA
ATOM      8  C   UNL     1       3.456   3.701  20.010  0.00  0.00    +0.000 C 
ENDROOT
BRANCH   6   9
ATOM      9  C   UNL     1       2.203   7.299  19.760  0.00  0.00    +0.000 A 
ATOM     10  C   UNL     1       2.089   8.004  18.569  0.00  0.00    +0.000 A 
ATOM     11  S   UNL     1       1.064   9.354  18.751  0.00  0.00    +0.000 S 
ATOM     12  C   UNL     1       0.850   8.943  20.399  0.00  0.00    +0.000 A 
ATOM     13  N   UNL     1       1.488   7.870  20.815  0.00  0.00    +0.000 NA
BRANCH  12  14
ATOM     14  S   UNL     1      -0.156   9.918  21.448  0.00  0.00    +0.000 S 
ATOM     15  C   UNL     1       0.391   9.353  23.068  0.00  0.00    +0.000 C 
ENDBRANCH  12  14
ENDBRANCH   6   9
BRANCH   1  16
ATOM     16  C   UNL     1       3.298   3.406  17.488  0.00  0.00    +0.000 C 
ATOM     17  O   UNL     1       2.567   3.181  16.517  0.00  0.00    +0.000 OA
BRANCH  16  21
ATOM     18  C   UNL     1       6.754   5.967  16.875  0.00  0.00    +0.000 A 
ATOM     19  C   UNL     1       5.479   6.364  16.453  0.00  0.00    +0.000 A 
ATOM     20  C   UNL     1       4.361   5.538  16.661  0.00  0.00    +0.000 A 
ATOM     21  C   UNL     1       4.496   4.297  17.300  0.00  0.00    +0.000 A 
ATOM     22  C   UNL     1       5.767   3.909  17.724  0.00  0.00    +0.000 A 
ATOM     23  C   UNL     1       6.873   4.734  17.513  0.00  0.00    +0.000 A 
ATOM     24  F   UNL     1       8.059   4.279  17.950  0.00  0.00    +0.000 F 
BRANCH  18  26
ATOM     25  C   UNL     1       7.878   7.971  17.486  0.00  0.00    +0.000 C 
ATOM     26  O   UNL     1       7.763   6.852  16.608  0.00  0.00    +0.000 OA
ENDBRANCH  18  26
ENDBRANCH  16  21
ENDBRANCH   1  16
TORSDOF 5
ENDMDL
MODEL 2
REMARK VINA RESULT:      -7.8      1.362      1.588
REMARK  Name = 
REMARK  7 active torsions:
REMARK  status: ('A' for Active; 'I' for Inactive)
REMARK    1  A    between atoms: C_1  and  O_2
REMARK    2  A    between atoms: O_2  and  C_3
REMARK    3  A    between atoms: C_6  and  C_7
REMARK    4  A    between atoms: C_7  and  C_9
REMARK    5  A    between atoms: C_14  and  C_16
REMARK    6  A    between atoms: C_19  and  S_20
REMARK    7  A    between atoms: S_20  and  C_21
REMARK                            x       y       z     vdW  Elec       q    Type
REMARK                         _______ _______ _______ _____ _____    ______ ____
ROOT
ATOM      1  C   UNL     1       3.332   2.935  18.847  0.00  0.00    +0.000 C 
ATOM      2  C   UNL     1       1.992   2.458  19.423  0.00  0.00    +0.000 C 
ATOM      3  C   UNL     1       1.037   3.579  19.843  0.00  0.00    +0.000 C 
ATOM      4  C   UNL     1       1.708   4.781  20.515  0.00  0.00    +0.000 C 
ATOM      5  N   UNL     1       2.967   5.144  19.873  0.00  0.00    +0.000 N 
ATOM      6  C   UNL     1       3.325   6.374  19.307  0.00  0.00    +0.000 C 
ATOM      7  O   UNL     1       4.444   6.511  18.803  0.00  0.00    +0.000 OA
ATOM      8  C   UNL     1       3.908   4.040  19.733  0.00  0.00    +0.000 C 
ENDROOT
BRANCH   6   9
ATOM      9  C   UNL     1       2.385   7.508  19.246  0.00  0.00    +0.000 A 
ATOM     10  C   UNL     1       2.153   8.157  18.041  0.00  0.00    +0.000 A 
ATOM     11  S   UNL     1       1.057   9.447  18.241  0.00  0.00    +0.000 S 
ATOM     12  C   UNL     1       0.973   9.089  19.913  0.00  0.00    +0.000 A 
ATOM     13  N   UNL     1       1.704   8.074  20.324  0.00  0.00    +0.000 NA
BRANCH  12  14
ATOM     14  S   UNL     1      -0.025  10.040  20.991  0.00  0.00    +0.000 S 
ATOM     15  C   UNL     1      -0.902  11.084  19.814  0.00  0.00    +0.000 C 
ENDBRANCH  12  14
ENDBRANCH   6   9
BRANCH   1  16
ATOM     16  C   UNL     1       3.267   3.359  17.367  0.00  0.00    +0.000 C 
ATOM     17  O   UNL     1       2.232   3.245  16.700  0.00  0.00    +0.000 OA
BRANCH  16  21
ATOM     18  C   UNL     1       6.838   4.853  15.393  0.00  0.00    +0.000 A 
ATOM     19  C   UNL     1       5.600   4.851  14.738  0.00  0.00    +0.000 A 
ATOM     20  C   UNL     1       4.444   4.377  15.383  0.00  0.00    +0.000 A 
ATOM     21  C   UNL     1       4.503   3.896  16.698  0.00  0.00    +0.000 A 
ATOM     22  C   UNL     1       5.738   3.906  17.349  0.00  0.00    +0.000 A 
ATOM     23  C   UNL     1       6.882   4.378  16.703  0.00  0.00    +0.000 A 
ATOM     24  F   UNL     1       8.028   4.347  17.403  0.00  0.00    +0.000 F 
BRANCH  18  26
ATOM     25  C   UNL     1       7.803   5.174  13.245  0.00  0.00    +0.000 C 
ATOM     26  O   UNL     1       7.890   5.331  14.660  0.00  0.00    +0.000 OA
ENDBRANCH  18  26
ENDBRANCH  16  21
ENDBRANCH   1  16
TORSDOF 5
ENDMDL
MODEL 3
REMARK VINA RESULT:      -7.5      0.975      1.347
REMARK  Name = 
REMARK  7 active torsions:
REMARK  status: ('A' for Active; 'I' for Inactive)
REMARK    1  A    between atoms: C_1  and  O_2
REMARK    2  A    between atoms: O_2  and  C_3
REMARK    3  A    between atoms: C_6  and  C_7
REMARK    4  A    between atoms: C_7  and  C_9
REMARK    5  A    between atoms: C_14  and  C_16
REMARK    6  A    between atoms: C_19  and  S_20
REMARK    7  A    between atoms: S_20  and  C_21
REMARK                            x       y       z     vdW  Elec       q    Type
REMARK                         _______ _______ _______ _____ _____    ______ ____
ROOT
ATOM      1  C   UNL     1       2.998   2.748  19.082  0.00  0.00    +0.000 C 
ATOM      2  C   UNL     1       1.565   2.313  19.418  0.00  0.00    +0.000 C 
ATOM      3  C   UNL     1       0.614   3.458  19.780  0.00  0.00    +0.000 C 
ATOM      4  C   UNL     1       1.234   4.570  20.631  0.00  0.00    +0.000 C 
ATOM      5  N   UNL     1       2.591   4.900  20.209  0.00  0.00    +0.000 N 
ATOM      6  C   UNL     1       3.089   6.143  19.797  0.00  0.00    +0.000 C 
ATOM      7  O   UNL     1       4.276   6.247  19.474  0.00  0.00    +0.000 OA
ATOM      8  C   UNL     1       3.488   3.754  20.124  0.00  0.00    +0.000 C 
ENDROOT
BRANCH   6   9
ATOM      9  C   UNL     1       2.225   7.332  19.687  0.00  0.00    +0.000 A 
ATOM     10  C   UNL     1       2.104   7.995  18.474  0.00  0.00    +0.000 A 
ATOM     11  S   UNL     1       1.078   9.350  18.616  0.00  0.00    +0.000 S 
ATOM     12  C   UNL     1       0.875   8.995  20.278  0.00  0.00    +0.000 A 
ATOM     13  N   UNL     1       1.517   7.937  20.726  0.00  0.00    +0.000 NA
BRANCH  12  14
ATOM     14  S   UNL     1      -0.126  10.004  21.300  0.00  0.00    +0.000 S 
ATOM     15  C   UNL     1       0.338   9.403  22.933  0.00  0.00    +0.000 C 
ENDBRANCH  12  14
ENDBRANCH   6   9
BRANCH   1  16
ATOM     16  C   UNL     1       3.176   3.276  17.645  0.00  0.00    +0.000 C 
ATOM     17  O   UNL     1       2.394   2.973  16.736  0.00  0.00    +0.000 OA
BRANCH  16  21
ATOM     18  C   UNL     1       6.567   5.851  16.781  0.00  0.00    +0.000 A 
ATOM     19  C   UNL     1       6.695   4.758  17.645  0.00  0.00    +0.000 A 
ATOM     20  C   UNL     1       5.598   3.920  17.916  0.00  0.00    +0.000 A 
ATOM     21  C   UNL     1       4.351   4.159  17.323  0.00  0.00    +0.000 A 
ATOM     22  C   UNL     1       4.230   5.247  16.457  0.00  0.00    +0.000 A 
ATOM     23  C   UNL     1       5.322   6.075  16.194  0.00  0.00    +0.000 A 
ATOM     24  F   UNL     1       5.114   7.100  15.352  0.00  0.00    +0.000 F 
BRANCH  18  26
ATOM     25  C   UNL     1       7.863   7.723  17.465  0.00  0.00    +0.000 C 
ATOM     26  O   UNL     1       7.700   6.597  16.604  0.00  0.00    +0.000 OA
ENDBRANCH  18  26
ENDBRANCH  16  21
ENDBRANCH   1  16
TORSDOF 5
ENDMDL
MODEL 4
REMARK VINA RESULT:      -7.4      0.884      1.309
REMARK  Name = 
REMARK  7 active torsions:
REMARK  status: ('A' for Active; 'I' for Inactive)
REMARK    1  A    between atoms: C_1  and  O_2
REMARK    2  A    between atoms: O_2  and  C_3
REMARK    3  A    between atoms: C_6  and  C_7
REMARK    4  A    between atoms: C_7  and  C_9
REMARK    5  A    between atoms: C_14  and  C_16
REMARK    6  A    between atoms: C_19  and  S_20
REMARK    7  A    between atoms: S_20  and  C_21
REMARK                            x       y       z     vdW  Elec       q    Type
REMARK                         _______ _______ _______ _____ _____    ______ ____
ROOT
ATOM      1  C   UNL     1       3.025   2.669  18.601  0.00  0.00    +0.000 C 
ATOM      2  C   UNL     1       1.587   2.179  18.816  0.00  0.00    +0.000 C 
ATOM      3  C   UNL     1       0.626   3.233  19.374  0.00  0.00    +0.000 C 
ATOM      4  C   UNL     1       1.225   4.156  20.438  0.00  0.00    +0.000 C 
ATOM      5  N   UNL     1       2.590   4.561  20.117  0.00  0.00    +0.000 N 
ATOM      6  C   UNL     1       3.093   5.858  19.965  0.00  0.00    +0.000 C 
ATOM      7  O   UNL     1       4.287   6.022  19.693  0.00  0.00    +0.000 OA
ATOM      8  C   UNL     1       3.491   3.452  19.828  0.00  0.00    +0.000 C 
ENDROOT
BRANCH   6   9
ATOM      9  C   UNL     1       2.229   7.047  20.071  0.00  0.00    +0.000 A 
ATOM     10  C   UNL     1       1.467   7.256  21.213  0.00  0.00    +0.000 A 
ATOM     11  S   UNL     1       0.533   8.677  21.075  0.00  0.00    +0.000 S 
ATOM     12  C   UNL     1       1.171   8.918  19.505  0.00  0.00    +0.000 A 
ATOM     13  N   UNL     1       2.030   8.014  19.084  0.00  0.00    +0.000 NA
BRANCH  12  14
ATOM     14  S   UNL     1       0.682  10.290  18.534  0.00  0.00    +0.000 S 
ATOM     15  C   UNL     1       0.509  11.560  19.798  0.00  0.00    +0.000 C 
ENDBRANCH  12  14
ENDBRANCH   6   9
BRANCH   1  16
ATOM     16  C   UNL     1       3.231   3.466  17.298  0.00  0.00    +0.000 C 
ATOM     17  O   UNL     1       2.442   3.383  16.349  0.00  0.00    +0.000 OA
BRANCH  16  21
ATOM     18  C   UNL     1       6.724   6.006  16.817  0.00  0.00    +0.000 A 
ATOM     19  C   UNL     1       5.439   6.488  16.539  0.00  0.00    +0.000 A 
ATOM     20  C   UNL     1       4.309   5.667  16.705  0.00  0.00    +0.000 A 
ATOM     21  C   UNL     1       4.443   4.346  17.155  0.00  0.00    +0.000 A 
ATOM     22  C   UNL     1       5.726   3.873  17.437  0.00  0.00    +0.000 A 
ATOM     23  C   UNL     1       6.843   4.692  17.269  0.00  0.00    +0.000 A 
ATOM     24  F   UNL     1       8.038   4.153  17.559  0.00  0.00    +0.000 F 
BRANCH  18  26
ATOM     25  C   UNL     1       7.798   8.017  17.487  0.00  0.00    +0.000 C 
ATOM     26  O   UNL     1       7.743   6.894  16.608  0.00  0.00    +0.000 OA
ENDBRANCH  18  26
ENDBRANCH  16  21
ENDBRANCH   1  16
TORSDOF 5
ENDMDL
MODEL 5
REMARK VINA RESULT:      -7.4      1.545      1.888
REMARK  Name = 
REMARK  7 active torsions:
REMARK  status: ('A' for Active; 'I' for Inactive)
REMARK    1  A    between atoms: C_1  and  O_2
REMARK    2  A    between atoms: O_2  and  C_3
REMARK    3  A    between atoms: C_6  and  C_7
REMARK    4  A    between atoms: C_7  and  C_9
REMARK    5  A    between atoms: C_14  and  C_16
REMARK    6  A    between atoms: C_19  and  S_20
REMARK    7  A    between atoms: S_20  and  C_21
REMARK                            x       y       z     vdW  Elec       q    Type
REMARK                         _______ _______ _______ _____ _____    ______ ____
ROOT
ATOM      1  C   UNL     1       3.056   2.785  18.781  0.00  0.00    +0.000 C 
ATOM      2  C   UNL     1       1.754   2.224  19.368  0.00  0.00    +0.000 C 
ATOM      3  C   UNL     1       0.850   3.263  20.037  0.00  0.00    +0.000 C 
ATOM      4  C   UNL     1       1.585   4.336  20.845  0.00  0.00    +0.000 C 
ATOM      5  N   UNL     1       2.800   4.796  20.180  0.00  0.00    +0.000 N 
ATOM      6  C   UNL     1       3.136   6.101  19.799  0.00  0.00    +0.000 C 
ATOM      7  O   UNL     1       4.217   6.316  19.243  0.00  0.00    +0.000 OA
ATOM      8  C   UNL     1       3.712   3.726  19.791  0.00  0.00    +0.000 C 
ENDROOT
BRANCH   6   9
ATOM      9  C   UNL     1       2.212   7.232  19.996  0.00  0.00    +0.000 A 
ATOM     10  C   UNL     1       2.018   8.158  18.980  0.00  0.00    +0.000 A 
ATOM     11  S   UNL     1       0.933   9.381  19.464  0.00  0.00    +0.000 S 
ATOM     12  C   UNL     1       0.802   8.629  20.996  0.00  0.00    +0.000 A 
ATOM     13  N   UNL     1       1.510   7.532  21.164  0.00  0.00    +0.000 NA
BRANCH  12  14
ATOM     14  S   UNL     1      -0.212   9.308  22.251  0.00  0.00    +0.000 S 
ATOM     15  C   UNL     1      -0.529  10.950  21.584  0.00  0.00    +0.000 C 
ENDBRANCH  12  14
ENDBRANCH   6   9
BRANCH   1  16
ATOM     16  C   UNL     1       2.890   3.448  17.400  0.00  0.00    +0.000 C 
ATOM     17  O   UNL     1       1.791   3.522  16.838  0.00  0.00    +0.000 OA
BRANCH  16  21
ATOM     18  C   UNL     1       6.427   5.009  15.416  0.00  0.00    +0.000 A 
ATOM     19  C   UNL     1       6.288   3.639  15.668  0.00  0.00    +0.000 A 
ATOM     20  C   UNL     1       5.138   3.135  16.301  0.00  0.00    +0.000 A 
ATOM     21  C   UNL     1       4.101   3.993  16.693  0.00  0.00    +0.000 A 
ATOM     22  C   UNL     1       4.242   5.358  16.434  0.00  0.00    +0.000 A 
ATOM     23  C   UNL     1       5.386   5.851  15.806  0.00  0.00    +0.000 A 
ATOM     24  F   UNL     1       5.438   7.178  15.600  0.00  0.00    +0.000 F 
BRANCH  18  26
ATOM     25  C   UNL     1       7.672   5.154  13.396  0.00  0.00    +0.000 C 
ATOM     26  O   UNL     1       7.593   5.379  14.803  0.00  0.00    +0.000 OA
ENDBRANCH  18  26
ENDBRANCH  16  21
ENDBRANCH   1  16
TORSDOF 5
ENDMDL
MODEL 6
REMARK VINA RESULT:      -7.2      1.845      2.450
REMARK  Name = 
REMARK  7 active torsions:
REMARK  status: ('A' for Active; 'I' for Inactive)
REMARK    1  A    between atoms: C_1  and  O_2
REMARK    2  A    between atoms: O_2  and  C_3
REMARK    3  A    between atoms: C_6  and  C_7
REMARK    4  A    between atoms: C_7  and  C_9
REMARK    5  A    between atoms: C_14  and  C_16
REMARK    6  A    between atoms: C_19  and  S_20
REMARK    7  A    between atoms: S_20  and  C_21
REMARK                            x       y       z     vdW  Elec       q    Type
REMARK                         _______ _______ _______ _____ _____    ______ ____
ROOT
ATOM      1  C   UNL     1       3.172   2.010  18.915  0.00  0.00    +0.000 C 
ATOM      2  C   UNL     1       2.892   2.239  17.424  0.00  0.00    +0.000 C 
ATOM      3  C   UNL     1       2.328   3.622  17.081  0.00  0.00    +0.000 C 
ATOM      4  C   UNL     1       1.312   4.173  18.085  0.00  0.00    +0.000 C 
ATOM      5  N   UNL     1       1.693   3.901  19.467  0.00  0.00    +0.000 N 
ATOM      6  C   UNL     1       1.898   4.819  20.504  0.00  0.00    +0.000 C 
ATOM      7  O   UNL     1       2.218   4.413  21.625  0.00  0.00    +0.000 OA
ATOM      8  C   UNL     1       1.983   2.499  19.743  0.00  0.00    +0.000 C 
ENDROOT
BRANCH   6   9
ATOM      9  C   UNL     1       1.794   6.273  20.289  0.00  0.00    +0.000 A 
ATOM     10  C   UNL     1       1.241   7.085  21.271  0.00  0.00    +0.000 A 
ATOM     11  S   UNL     1       1.204   8.715  20.769  0.00  0.00    +0.000 S 
ATOM     12  C   UNL     1       1.897   8.248  19.275  0.00  0.00    +0.000 A 
ATOM     13  N   UNL     1       2.153   6.965  19.132  0.00  0.00    +0.000 NA
BRANCH  12  14
ATOM     14  S   UNL     1       2.225   9.429  18.025  0.00  0.00    +0.000 S 
ATOM     15  C   UNL     1       1.293  10.843  18.637  0.00  0.00    +0.000 C 
ENDBRANCH  12  14
ENDBRANCH   6   9
BRANCH   1  16
ATOM     16  C   UNL     1       4.502   2.613  19.407  0.00  0.00    +0.000 C 
ATOM     17  O   UNL     1       5.067   2.204  20.428  0.00  0.00    +0.000 OA
BRANCH  16  21
ATOM     18  C   UNL     1       6.224   5.939  17.204  0.00  0.00    +0.000 A 
ATOM     19  C   UNL     1       5.702   6.120  18.491  0.00  0.00    +0.000 A 
ATOM     20  C   UNL     1       5.155   5.040  19.206  0.00  0.00    +0.000 A 
ATOM     21  C   UNL     1       5.120   3.755  18.647  0.00  0.00    +0.000 A 
ATOM     22  C   UNL     1       5.647   3.578  17.367  0.00  0.00    +0.000 A 
ATOM     23  C   UNL     1       6.188   4.655  16.662  0.00  0.00    +0.000 A 
ATOM     24  F   UNL     1       6.669   4.395  15.435  0.00  0.00    +0.000 F 
BRANCH  18  26
ATOM     25  C   UNL     1       7.580   7.881  17.402  0.00  0.00    +0.000 C 
ATOM     26  O   UNL     1       6.720   7.065  16.607  0.00  0.00    +0.000 OA
ENDBRANCH  18  26
ENDBRANCH  16  21
ENDBRANCH   1  16
TORSDOF 5
ENDMDL
MODEL 7
REMARK VINA RESULT:      -7.1      1.466      1.900
REMARK  Name = 
REMARK  7 active torsions:
REMARK  status: ('A' for Active; 'I' for Inactive)
REMARK    1  A    between atoms: C_1  and  O_2
REMARK    2  A    between atoms: O_2  and  C_3
REMARK    3  A    between atoms: C_6  and  C_7
REMARK    4  A    between atoms: C_7  and  C_9
REMARK    5  A    between atoms: C_14  and  C_16
REMARK    6  A    between atoms: C_19  and  S_20
REMARK    7  A    between atoms: S_20  and  C_21
REMARK                            x       y       z     vdW  Elec       q    Type
REMARK                         _______ _______ _______ _____ _____    ______ ____
ROOT
ATOM      1  C   UNL     1       3.336   2.720  18.796  0.00  0.00    +0.000 C 
ATOM      2  C   UNL     1       2.013   2.152  19.327  0.00  0.00    +0.000 C 
ATOM      3  C   UNL     1       1.059   3.194  19.920  0.00  0.00    +0.000 C 
ATOM      4  C   UNL     1       1.734   4.298  20.738  0.00  0.00    +0.000 C 
ATOM      5  N   UNL     1       2.976   4.761  20.127  0.00  0.00    +0.000 N 
ATOM      6  C   UNL     1       3.312   6.061  19.731  0.00  0.00    +0.000 C 
ATOM      7  O   UNL     1       4.418   6.279  19.228  0.00  0.00    +0.000 OA
ATOM      8  C   UNL     1       3.923   3.697  19.815  0.00  0.00    +0.000 C 
ENDROOT
BRANCH   6   9
ATOM      9  C   UNL     1       2.362   7.182  19.849  0.00  0.00    +0.000 A 
ATOM     10  C   UNL     1       1.686   7.400  21.042  0.00  0.00    +0.000 A 
ATOM     11  S   UNL     1       0.627   8.730  20.911  0.00  0.00    +0.000 S 
ATOM     12  C   UNL     1       1.105   8.924  19.279  0.00  0.00    +0.000 A 
ATOM     13  N   UNL     1       1.999   8.067  18.832  0.00  0.00    +0.000 NA
BRANCH  12  14
ATOM     14  S   UNL     1       0.420  10.189  18.282  0.00  0.00    +0.000 S 
ATOM     15  C   UNL     1       0.913  11.656  19.204  0.00  0.00    +0.000 C 
ENDBRANCH  12  14
ENDBRANCH   6   9
BRANCH   1  16
ATOM     16  C   UNL     1       3.235   3.345  17.391  0.00  0.00    +0.000 C 
ATOM     17  O   UNL     1       2.166   3.388  16.770  0.00  0.00    +0.000 OA
BRANCH  16  21
ATOM     18  C   UNL     1       6.812   4.868  15.452  0.00  0.00    +0.000 A 
ATOM     19  C   UNL     1       5.566   4.930  14.816  0.00  0.00    +0.000 A 
ATOM     20  C   UNL     1       4.408   4.446  15.450  0.00  0.00    +0.000 A 
ATOM     21  C   UNL     1       4.474   3.891  16.735  0.00  0.00    +0.000 A 
ATOM     22  C   UNL     1       5.717   3.838  17.367  0.00  0.00    +0.000 A 
ATOM     23  C   UNL     1       6.863   4.319  16.732  0.00  0.00    +0.000 A 
ATOM     24  F   UNL     1       8.017   4.224  17.412  0.00  0.00    +0.000 F 
BRANCH  18  26
ATOM     25  C   UNL     1       7.807   5.185  13.316  0.00  0.00    +0.000 C 
ATOM     26  O   UNL     1       7.865   5.362  14.731  0.00  0.00    +0.000 OA
ENDBRANCH  18  26
ENDBRANCH  16  21
ENDBRANCH   1  16
TORSDOF 5
ENDMDL
MODEL 8
REMARK VINA RESULT:      -7.0      1.678      2.010
REMARK  Name = 
REMARK  7 active torsions:
REMARK  status: ('A' for Active; 'I' for Inactive)
REMARK    1  A    between atoms: C_1  and  O_2
REMARK    2  A    between atoms: O_2  and  C_3
REMARK    3  A    between atoms: C_6  and  C_7
REMARK    4  A    between atoms: C_7  and  C_9
REMARK    5  A    between atoms: C_14  and  C_16
REMARK    6  A    between atoms: C_19  and  S_20
REMARK    7  A    between atoms: S_20  and  C_21
REMARK                            x       y       z     vdW  Elec       q    Type
REMARK                         _______ _______ _______ _____ _____    ______ ____
ROOT
ATOM      1  C   UNL     1       3.112   1.987  19.015  0.00  0.00    +0.000 C 
ATOM      2  C   UNL     1       2.831   2.143  17.515  0.00  0.00    +0.000 C 
ATOM      3  C   UNL     1       2.287   3.514  17.102  0.00  0.00    +0.000 C 
ATOM      4  C   UNL     1       1.281   4.132  18.078  0.00  0.00    +0.000 C 
ATOM      5  N   UNL     1       1.662   3.925  19.472  0.00  0.00    +0.000 N 
ATOM      6  C   UNL     1       1.884   4.893  20.460  0.00  0.00    +0.000 C 
ATOM      7  O   UNL     1       2.201   4.540  21.600  0.00  0.00    +0.000 OA
ATOM      8  C   UNL     1       1.933   2.536  19.819  0.00  0.00    +0.000 C 
ENDROOT
BRANCH   6   9
ATOM      9  C   UNL     1       1.800   6.336  20.170  0.00  0.00    +0.000 A 
ATOM     10  C   UNL     1       2.355   6.846  19.005  0.00  0.00    +0.000 A 
ATOM     11  S   UNL     1       2.156   8.538  18.920  0.00  0.00    +0.000 S 
ATOM     12  C   UNL     1       1.370   8.499  20.440  0.00  0.00    +0.000 A 
ATOM     13  N   UNL     1       1.247   7.314  20.998  0.00  0.00    +0.000 NA
BRANCH  12  14
ATOM     14  S   UNL     1       0.783   9.969  21.190  0.00  0.00    +0.000 S 
ATOM     15  C   UNL     1       0.341   9.364  22.828  0.00  0.00    +0.000 C 
ENDBRANCH  12  14
ENDBRANCH   6   9
BRANCH   1  16
ATOM     16  C   UNL     1       4.452   2.595  19.472  0.00  0.00    +0.000 C 
ATOM     17  O   UNL     1       5.028   2.211  20.497  0.00  0.00    +0.000 OA
BRANCH  16  21
ATOM     18  C   UNL     1       6.169   5.853  17.167  0.00  0.00    +0.000 A 
ATOM     19  C   UNL     1       5.907   5.998  18.535  0.00  0.00    +0.000 A 
ATOM     20  C   UNL     1       5.361   4.939  19.281  0.00  0.00    +0.000 A 
ATOM     21  C   UNL     1       5.068   3.711  18.673  0.00  0.00    +0.000 A 
ATOM     22  C   UNL     1       5.337   3.569  17.310  0.00  0.00    +0.000 A 
ATOM     23  C   UNL     1       5.878   4.625  16.575  0.00  0.00    +0.000 A 
ATOM     24  F   UNL     1       6.101   4.401  15.270  0.00  0.00    +0.000 F 
BRANCH  18  26
ATOM     25  C   UNL     1       7.482   7.826  17.358  0.00  0.00    +0.000 C 
ATOM     26  O   UNL     1       6.692   6.956  16.548  0.00  0.00    +0.000 OA
ENDBRANCH  18  26
ENDBRANCH  16  21
ENDBRANCH   1  16
TORSDOF 5
ENDMDL
MODEL 9
REMARK VINA RESULT:      -7.0      1.308      1.894
REMARK  Name = 
REMARK  7 active torsions:
REMARK  status: ('A' for Active; 'I' for Inactive)
REMARK    1  A    between atoms: C_1  and  O_2
REMARK    2  A    between atoms: O_2  and  C_3
REMARK    3  A    between atoms: C_6  and  C_7
REMARK    4  A    between atoms: C_7  and  C_9
REMARK    5  A    between atoms: C_14  and  C_16
REMARK    6  A    between atoms: C_19  and  S_20
REMARK    7  A    between atoms: S_20  and  C_21
REMARK                            x       y       z     vdW  Elec       q    Type
REMARK                         _______ _______ _______ _____ _____    ______ ____
ROOT
ATOM      1  C   UNL     1       3.036   2.598  18.916  0.00  0.00    +0.000 C 
ATOM      2  C   UNL     1       1.625   2.108  19.264  0.00  0.00    +0.000 C 
ATOM      3  C   UNL     1       0.676   3.193  19.783  0.00  0.00    +0.000 C 
ATOM      4  C   UNL     1       1.319   4.219  20.721  0.00  0.00    +0.000 C 
ATOM      5  N   UNL     1       2.653   4.614  20.280  0.00  0.00    +0.000 N 
ATOM      6  C   UNL     1       3.119   5.900  19.981  0.00  0.00    +0.000 C 
ATOM      7  O   UNL     1       4.290   6.057  19.621  0.00  0.00    +0.000 OA
ATOM      8  C   UNL     1       3.559   3.497  20.037  0.00  0.00    +0.000 C 
ENDROOT
BRANCH   6   9
ATOM      9  C   UNL     1       2.237   7.080  20.032  0.00  0.00    +0.000 A 
ATOM     10  C   UNL     1       1.481   7.336  21.168  0.00  0.00    +0.000 A 
ATOM     11  S   UNL     1       0.525   8.734  20.965  0.00  0.00    +0.000 S 
ATOM     12  C   UNL     1       1.147   8.904  19.380  0.00  0.00    +0.000 A 
ATOM     13  N   UNL     1       2.017   7.992  18.999  0.00  0.00    +0.000 NA
BRANCH  12  14
ATOM     14  S   UNL     1       0.631  10.217  18.343  0.00  0.00    +0.000 S 
ATOM     15  C   UNL     1       0.257  11.488  19.563  0.00  0.00    +0.000 C 
ENDBRANCH  12  14
ENDBRANCH   6   9
BRANCH   1  16
ATOM     16  C   UNL     1       3.146   3.276  17.537  0.00  0.00    +0.000 C 
ATOM     17  O   UNL     1       2.308   3.088  16.647  0.00  0.00    +0.000 OA
BRANCH  16  21
ATOM     18  C   UNL     1       6.543   5.871  16.759  0.00  0.00    +0.000 A 
ATOM     19  C   UNL     1       6.688   4.701  17.515  0.00  0.00    +0.000 A 
ATOM     20  C   UNL     1       5.589   3.858  17.757  0.00  0.00    +0.000 A 
ATOM     21  C   UNL     1       4.322   4.168  17.244  0.00  0.00    +0.000 A 
ATOM     22  C   UNL     1       4.185   5.331  16.485  0.00  0.00    +0.000 A 
ATOM     23  C   UNL     1       5.279   6.164  16.249  0.00  0.00    +0.000 A 
ATOM     24  F   UNL     1       5.055   7.264  15.512  0.00  0.00    +0.000 F 
BRANCH  18  26
ATOM     25  C   UNL     1       7.827   7.747  17.453  0.00  0.00    +0.000 C 
ATOM     26  O   UNL     1       7.682   6.613  16.600  0.00  0.00    +0.000 OA
ENDBRANCH  18  26
ENDBRANCH  16  21
ENDBRANCH   1  16
TORSDOF 5
ENDMDL
