MODEL 1
REMARK VINA RESULT:      -6.9      0.000      0.000
REMARK  Name = 
REMARK  6 active torsions:
REMARK  status: ('A' for Active; 'I' for Inactive)
REMARK    1  A    between atoms: C_1  and  C_2
REMARK    2  A    between atoms: C_2  and  C_3
REMARK    3  A    between atoms: C_3  and  C_4
REMARK    4  A    between atoms: C_4  and  N_5
REMARK    5  A    between atoms: N_5  and  C_6
REMARK    6  A    between atoms: C_11  and  O_12
REMARK                            x       y       z     vdW  Elec       q    Type
REMARK                         _______ _______ _______ _____ _____    ______ ____
ROOT
ATOM      1  C   UNL     1       4.846   6.254  16.757  0.00  0.00    +0.000 C 
ATOM      2  C   UNL     1       3.974   6.976  17.792  0.00  0.00    +0.000 C 
ATOM      3  C   UNL     1       2.577   6.351  17.864  0.00  0.00    +0.000 C 
ATOM      4  C   UNL     1       2.584   4.844  17.939  0.00  0.00    +0.000 A 
ATOM      5  C   UNL     1       1.418   4.162  18.323  0.00  0.00    +0.000 A 
ATOM      6  C   UNL     1       1.403   2.768  18.359  0.00  0.00    +0.000 A 
ATOM      7  C   UNL     1       2.528   2.034  18.013  0.00  0.00    +0.000 A 
ATOM      8  C   UNL     1       3.686   2.700  17.623  0.00  0.00    +0.000 A 
ATOM      9  C   UNL     1       3.719   4.103  17.571  0.00  0.00    +0.000 A 
ATOM     10  C   UNL     1       5.005   4.777  17.171  0.00  0.00    +0.000 C 
ENDROOT
BRANCH   1  11
ATOM     11  N   UNL     1       6.150   6.944  16.636  0.00  0.00    +0.000 NA
ATOM     12  H   UNL     1       6.415   6.996  15.653  0.00  0.00    +0.000 HD
BRANCH  11  13
ATOM     13  C   UNL     1       7.204   6.264  17.391  0.00  0.00    +0.000 C 
BRANCH  13  14
ATOM     14  C   UNL     1       8.050   7.244  18.204  0.00  0.00    +0.000 C 
BRANCH  14  16
ATOM     15  C   UNL     1       8.713   9.682  18.391  0.00  0.00    +0.000 C 
ATOM     16  C   UNL     1       7.866   8.662  17.653  0.00  0.00    +0.000 C 
ENDBRANCH  14  16
ENDBRANCH  13  14
ENDBRANCH  11  13
ENDBRANCH   1  11
BRANCH   6  17
ATOM     17  O   UNL     1       0.289   2.075  18.732  0.00  0.00    +0.000 OA
ATOM     18  H   UNL     1       0.552   1.395  19.375  0.00  0.00    +0.000 HD
ENDBRANCH   6  17
TORSDOF 5
ENDMDL
MODEL 2
REMARK VINA RESULT:      -6.7      3.389      5.896
REMARK  Name = 
REMARK  6 active torsions:
REMARK  status: ('A' for Active; 'I' for Inactive)
REMARK    1  A    between atoms: C_1  and  C_2
REMARK    2  A    between atoms: C_2  and  C_3
REMARK    3  A    between atoms: C_3  and  C_4
REMARK    4  A    between atoms: C_4  and  N_5
REMARK    5  A    between atoms: N_5  and  C_6
REMARK    6  A    between atoms: C_11  and  O_12
REMARK                            x       y       z     vdW  Elec       q    Type
REMARK                         _______ _______ _______ _____ _____    ______ ____
ROOT
ATOM      1  C   UNL     1       3.194   5.923  19.773  0.00  0.00    +0.000 C 
ATOM      2  C   UNL     1       2.481   6.245  18.452  0.00  0.00    +0.000 C 
ATOM      3  C   UNL     1       3.464   6.811  17.423  0.00  0.00    +0.000 C 
ATOM      4  C   UNL     1       4.750   6.029  17.309  0.00  0.00    +0.000 A 
ATOM      5  C   UNL     1       5.593   6.236  16.205  0.00  0.00    +0.000 A 
ATOM      6  C   UNL     1       6.801   5.546  16.110  0.00  0.00    +0.000 A 
ATOM      7  C   UNL     1       7.193   4.654  17.097  0.00  0.00    +0.000 A 
ATOM      8  C   UNL     1       6.367   4.448  18.199  0.00  0.00    +0.000 A 
ATOM      9  C   UNL     1       5.151   5.141  18.318  0.00  0.00    +0.000 A 
ATOM     10  C   UNL     1       4.281   4.860  19.516  0.00  0.00    +0.000 C 
ENDROOT
BRANCH   1  11
ATOM     11  N   UNL     1       2.203   5.478  20.778  0.00  0.00    +0.000 NA
ATOM     12  H   UNL     1       2.301   6.041  21.622  0.00  0.00    +0.000 HD
BRANCH  11  13
ATOM     13  C   UNL     1       2.360   4.062  21.115  0.00  0.00    +0.000 C 
BRANCH  13  14
ATOM     14  C   UNL     1       1.079   3.267  20.865  0.00  0.00    +0.000 C 
BRANCH  14  16
ATOM     15  C   UNL     1       2.006   2.084  18.824  0.00  0.00    +0.000 C 
ATOM     16  C   UNL     1       0.924   3.002  19.363  0.00  0.00    +0.000 C 
ENDBRANCH  14  16
ENDBRANCH  13  14
ENDBRANCH  11  13
ENDBRANCH   1  11
BRANCH   6  17
ATOM     17  O   UNL     1       7.641   5.720  15.049  0.00  0.00    +0.000 OA
ATOM     18  H   UNL     1       7.339   6.493  14.542  0.00  0.00    +0.000 HD
ENDBRANCH   6  17
TORSDOF 5
ENDMDL
MODEL 3
REMARK VINA RESULT:      -6.7      2.315      3.509
REMARK  Name = 
REMARK  6 active torsions:
REMARK  status: ('A' for Active; 'I' for Inactive)
REMARK    1  A    between atoms: C_1  and  C_2
REMARK    2  A    between atoms: C_2  and  C_3
REMARK    3  A    between atoms: C_3  and  C_4
REMARK    4  A    between atoms: C_4  and  N_5
REMARK    5  A    between atoms: N_5  and  C_6
REMARK    6  A    between atoms: C_11  and  O_12
REMARK                            x       y       z     vdW  Elec       q    Type
REMARK                         _______ _______ _______ _____ _____    ______ ____
ROOT
ATOM      1  C   UNL     1       5.003   5.510  16.243  0.00  0.00    +0.000 C 
ATOM      2  C   UNL     1       4.785   6.438  17.446  0.00  0.00    +0.000 C 
ATOM      3  C   UNL     1       3.365   6.289  18.002  0.00  0.00    +0.000 C 
ATOM      4  C   UNL     1       2.924   4.858  18.181  0.00  0.00    +0.000 A 
ATOM      5  C   UNL     1       1.794   4.572  18.964  0.00  0.00    +0.000 A 
ATOM      6  C   UNL     1       1.355   3.255  19.104  0.00  0.00    +0.000 A 
ATOM      7  C   UNL     1       2.018   2.212  18.474  0.00  0.00    +0.000 A 
ATOM      8  C   UNL     1       3.135   2.487  17.690  0.00  0.00    +0.000 A 
ATOM      9  C   UNL     1       3.586   3.806  17.528  0.00  0.00    +0.000 A 
ATOM     10  C   UNL     1       4.817   4.047  16.692  0.00  0.00    +0.000 C 
ENDROOT
BRANCH   1  11
ATOM     11  N   UNL     1       6.344   5.751  15.665  0.00  0.00    +0.000 NA
ATOM     12  H   UNL     1       6.283   6.489  14.965  0.00  0.00    +0.000 HD
BRANCH  11  13
ATOM     13  C   UNL     1       6.904   4.544  15.054  0.00  0.00    +0.000 C 
BRANCH  13  14
ATOM     14  C   UNL     1       6.810   4.577  13.528  0.00  0.00    +0.000 C 
BRANCH  14  16
ATOM     15  C   UNL     1       6.078   2.745  11.938  0.00  0.00    +0.000 C 
ATOM     16  C   UNL     1       5.662   3.673  13.064  0.00  0.00    +0.000 C 
ENDBRANCH  14  16
ENDBRANCH  13  14
ENDBRANCH  11  13
ENDBRANCH   1  11
BRANCH   6  17
ATOM     17  O   UNL     1       0.264   2.943  19.860  0.00  0.00    +0.000 OA
ATOM     18  H   UNL     1      -0.483   2.770  19.264  0.00  0.00    +0.000 HD
ENDBRANCH   6  17
TORSDOF 5
ENDMDL
MODEL 4
REMARK VINA RESULT:      -6.6      3.273      5.911
REMARK  Name = 
REMARK  6 active torsions:
REMARK  status: ('A' for Active; 'I' for Inactive)
REMARK    1  A    between atoms: C_1  and  C_2
REMARK    2  A    between atoms: C_2  and  C_3
REMARK    3  A    between atoms: C_3  and  C_4
REMARK    4  A    between atoms: C_4  and  N_5
REMARK    5  A    between atoms: N_5  and  C_6
REMARK    6  A    between atoms: C_11  and  O_12
REMARK                            x       y       z     vdW  Elec       q    Type
REMARK                         _______ _______ _______ _____ _____    ______ ____
ROOT
ATOM      1  C   UNL     1       2.353   3.861  17.955  0.00  0.00    +0.000 C 
ATOM      2  C   UNL     1       2.032   5.362  17.952  0.00  0.00    +0.000 C 
ATOM      3  C   UNL     1       3.283   6.190  18.260  0.00  0.00    +0.000 C 
ATOM      4  C   UNL     1       4.503   5.772  17.476  0.00  0.00    +0.000 A 
ATOM      5  C   UNL     1       5.617   6.625  17.416  0.00  0.00    +0.000 A 
ATOM      6  C   UNL     1       6.763   6.230  16.727  0.00  0.00    +0.000 A 
ATOM      7  C   UNL     1       6.826   4.997  16.096  0.00  0.00    +0.000 A 
ATOM      8  C   UNL     1       5.730   4.142  16.155  0.00  0.00    +0.000 A 
ATOM      9  C   UNL     1       4.570   4.516  16.854  0.00  0.00    +0.000 A 
ATOM     10  C   UNL     1       3.401   3.566  16.864  0.00  0.00    +0.000 C 
ENDROOT
BRANCH   1  11
ATOM     11  N   UNL     1       1.108   3.086  17.759  0.00  0.00    +0.000 NA
ATOM     12  H   UNL     1       0.350   3.720  17.507  0.00  0.00    +0.000 HD
BRANCH  11  13
ATOM     13  C   UNL     1       0.735   2.332  18.957  0.00  0.00    +0.000 C 
BRANCH  13  14
ATOM     14  C   UNL     1       1.880   2.255  19.967  0.00  0.00    +0.000 C 
BRANCH  14  16
ATOM     15  C   UNL     1       2.288   4.215  21.520  0.00  0.00    +0.000 C 
ATOM     16  C   UNL     1       1.470   2.963  21.263  0.00  0.00    +0.000 C 
ENDBRANCH  14  16
ENDBRANCH  13  14
ENDBRANCH  11  13
ENDBRANCH   1  11
BRANCH   6  17
ATOM     17  O   UNL     1       7.860   7.037  16.646  0.00  0.00    +0.000 OA
ATOM     18  H   UNL     1       8.112   7.119  15.711  0.00  0.00    +0.000 HD
ENDBRANCH   6  17
TORSDOF 5
ENDMDL
MODEL 5
REMARK VINA RESULT:      -6.6      1.174      1.480
REMARK  Name = 
REMARK  6 active torsions:
REMARK  status: ('A' for Active; 'I' for Inactive)
REMARK    1  A    between atoms: C_1  and  C_2
REMARK    2  A    between atoms: C_2  and  C_3
REMARK    3  A    between atoms: C_3  and  C_4
REMARK    4  A    between atoms: C_4  and  N_5
REMARK    5  A    between atoms: N_5  and  C_6
REMARK    6  A    between atoms: C_11  and  O_12
REMARK                            x       y       z     vdW  Elec       q    Type
REMARK                         _______ _______ _______ _____ _____    ______ ____
ROOT
ATOM      1  C   UNL     1       4.665   5.797  16.402  0.00  0.00    +0.000 C 
ATOM      2  C   UNL     1       4.216   6.836  17.439  0.00  0.00    +0.000 C 
ATOM      3  C   UNL     1       2.848   6.469  18.024  0.00  0.00    +0.000 C 
ATOM      4  C   UNL     1       2.726   5.023  18.438  0.00  0.00    +0.000 A 
ATOM      5  C   UNL     1       1.665   4.625  19.267  0.00  0.00    +0.000 A 
ATOM      6  C   UNL     1       1.522   3.284  19.624  0.00  0.00    +0.000 A 
ATOM      7  C   UNL     1       2.415   2.326  19.167  0.00  0.00    +0.000 A 
ATOM      8  C   UNL     1       3.466   2.710  18.340  0.00  0.00    +0.000 A 
ATOM      9  C   UNL     1       3.621   4.053  17.960  0.00  0.00    +0.000 A 
ATOM     10  C   UNL     1       4.792   4.421  17.086  0.00  0.00    +0.000 C 
ENDROOT
BRANCH   1  11
ATOM     11  N   UNL     1       5.936   6.232  15.782  0.00  0.00    +0.000 NA
ATOM     12  H   UNL     1       6.068   5.739  14.899  0.00  0.00    +0.000 HD
BRANCH  11  13
ATOM     13  C   UNL     1       7.087   5.987  16.654  0.00  0.00    +0.000 C 
BRANCH  13  14
ATOM     14  C   UNL     1       7.608   7.274  17.292  0.00  0.00    +0.000 C 
BRANCH  14  16
ATOM     15  C   UNL     1       7.592   5.662  19.246  0.00  0.00    +0.000 C 
ATOM     16  C   UNL     1       8.123   6.976  18.704  0.00  0.00    +0.000 C 
ENDBRANCH  14  16
ENDBRANCH  13  14
ENDBRANCH  11  13
ENDBRANCH   1  11
BRANCH   6  17
ATOM     17  O   UNL     1       0.506   2.865  20.430  0.00  0.00    +0.000 OA
ATOM     18  H   UNL     1       0.304   1.939  20.213  0.00  0.00    +0.000 HD
ENDBRANCH   6  17
TORSDOF 5
ENDMDL
MODEL 6
REMARK VINA RESULT:      -6.5      3.051      4.886
REMARK  Name = 
REMARK  6 active torsions:
REMARK  status: ('A' for Active; 'I' for Inactive)
REMARK    1  A    between atoms: C_1  and  C_2
REMARK    2  A    between atoms: C_2  and  C_3
REMARK    3  A    between atoms: C_3  and  C_4
REMARK    4  A    between atoms: C_4  and  N_5
REMARK    5  A    between atoms: N_5  and  C_6
REMARK    6  A    between atoms: C_11  and  O_12
REMARK                            x       y       z     vdW  Elec       q    Type
REMARK                         _______ _______ _______ _____ _____    ______ ____
ROOT
ATOM      1  C   UNL     1       6.412   5.575  16.286  0.00  0.00    +0.000 C 
ATOM      2  C   UNL     1       6.060   4.236  16.946  0.00  0.00    +0.000 C 
ATOM      3  C   UNL     1       5.485   4.452  18.350  0.00  0.00    +0.000 C 
ATOM      4  C   UNL     1       4.425   5.524  18.420  0.00  0.00    +0.000 A 
ATOM      5  C   UNL     1       3.599   5.611  19.551  0.00  0.00    +0.000 A 
ATOM      6  C   UNL     1       2.643   6.622  19.642  0.00  0.00    +0.000 A 
ATOM      7  C   UNL     1       2.494   7.557  18.628  0.00  0.00    +0.000 A 
ATOM      8  C   UNL     1       3.315   7.483  17.506  0.00  0.00    +0.000 A 
ATOM      9  C   UNL     1       4.290   6.479  17.400  0.00  0.00    +0.000 A 
ATOM     10  C   UNL     1       5.133   6.426  16.152  0.00  0.00    +0.000 C 
ENDROOT
BRANCH   1  11
ATOM     11  N   UNL     1       7.059   5.330  14.978  0.00  0.00    +0.000 NA
ATOM     12  H   UNL     1       6.925   6.143  14.376  0.00  0.00    +0.000 HD
BRANCH  11  13
ATOM     13  C   UNL     1       6.526   4.139  14.314  0.00  0.00    +0.000 C 
BRANCH  13  14
ATOM     14  C   UNL     1       6.528   4.281  12.792  0.00  0.00    +0.000 C 
BRANCH  14  16
ATOM     15  C   UNL     1       4.553   3.262  11.574  0.00  0.00    +0.000 C 
ATOM     16  C   UNL     1       5.933   3.019  12.158  0.00  0.00    +0.000 C 
ENDBRANCH  14  16
ENDBRANCH  13  14
ENDBRANCH  11  13
ENDBRANCH   1  11
BRANCH   6  17
ATOM     17  O   UNL     1       1.820   6.732  20.725  0.00  0.00    +0.000 OA
ATOM     18  H   UNL     1       0.900   6.668  20.419  0.00  0.00    +0.000 HD
ENDBRANCH   6  17
TORSDOF 5
ENDMDL
MODEL 7
REMARK VINA RESULT:      -6.4      2.732      4.016
REMARK  Name = 
REMARK  6 active torsions:
REMARK  status: ('A' for Active; 'I' for Inactive)
REMARK    1  A    between atoms: C_1  and  C_2
REMARK    2  A    between atoms: C_2  and  C_3
REMARK    3  A    between atoms: C_3  and  C_4
REMARK    4  A    between atoms: C_4  and  N_5
REMARK    5  A    between atoms: N_5  and  C_6
REMARK    6  A    between atoms: C_11  and  O_12
REMARK                            x       y       z     vdW  Elec       q    Type
REMARK                         _______ _______ _______ _____ _____    ______ ____
ROOT
ATOM      1  C   UNL     1       5.568   4.889  16.684  0.00  0.00    +0.000 C 
ATOM      2  C   UNL     1       6.172   4.687  18.081  0.00  0.00    +0.000 C 
ATOM      3  C   UNL     1       5.131   4.959  19.171  0.00  0.00    +0.000 C 
ATOM      4  C   UNL     1       3.797   4.299  18.924  0.00  0.00    +0.000 A 
ATOM      5  C   UNL     1       2.868   4.197  19.972  0.00  0.00    +0.000 A 
ATOM      6  C   UNL     1       1.617   3.623  19.743  0.00  0.00    +0.000 A 
ATOM      7  C   UNL     1       1.269   3.151  18.487  0.00  0.00    +0.000 A 
ATOM      8  C   UNL     1       2.180   3.254  17.440  0.00  0.00    +0.000 A 
ATOM      9  C   UNL     1       3.441   3.838  17.647  0.00  0.00    +0.000 A 
ATOM     10  C   UNL     1       4.402   3.900  16.489  0.00  0.00    +0.000 C 
ENDROOT
BRANCH   1  11
ATOM     11  N   UNL     1       6.621   4.721  15.658  0.00  0.00    +0.000 NA
ATOM     12  H   UNL     1       6.970   5.638  15.378  0.00  0.00    +0.000 HD
BRANCH  11  13
ATOM     13  C   UNL     1       6.131   4.005  14.479  0.00  0.00    +0.000 C 
BRANCH  13  14
ATOM     14  C   UNL     1       6.942   4.338  13.226  0.00  0.00    +0.000 C 
BRANCH  14  16
ATOM     15  C   UNL     1       5.002   3.284  11.983  0.00  0.00    +0.000 C 
ATOM     16  C   UNL     1       6.510   3.423  12.076  0.00  0.00    +0.000 C 
ENDBRANCH  14  16
ENDBRANCH  13  14
ENDBRANCH  11  13
ENDBRANCH   1  11
BRANCH   6  17
ATOM     17  O   UNL     1       0.693   3.505  20.740  0.00  0.00    +0.000 OA
ATOM     18  H   UNL     1       0.531   2.559  20.896  0.00  0.00    +0.000 HD
ENDBRANCH   6  17
TORSDOF 5
ENDMDL
MODEL 8
REMARK VINA RESULT:      -6.4      1.174      2.496
REMARK  Name = 
REMARK  6 active torsions:
REMARK  status: ('A' for Active; 'I' for Inactive)
REMARK    1  A    between atoms: C_1  and  C_2
REMARK    2  A    between atoms: C_2  and  C_3
REMARK    3  A    between atoms: C_3  and  C_4
REMARK    4  A    between atoms: C_4  and  N_5
REMARK    5  A    between atoms: N_5  and  C_6
REMARK    6  A    between atoms: C_11  and  O_12
REMARK                            x       y       z     vdW  Elec       q    Type
REMARK                         _______ _______ _______ _____ _____    ______ ____
ROOT
ATOM      1  C   UNL     1       6.522   6.506  17.264  0.00  0.00    +0.000 C 
ATOM      2  C   UNL     1       6.771   5.447  16.181  0.00  0.00    +0.000 C 
ATOM      3  C   UNL     1       6.110   4.117  16.554  0.00  0.00    +0.000 C 
ATOM      4  C   UNL     1       4.685   4.253  17.031  0.00  0.00    +0.000 A 
ATOM      5  C   UNL     1       3.864   3.116  17.101  0.00  0.00    +0.000 A 
ATOM      6  C   UNL     1       2.558   3.225  17.578  0.00  0.00    +0.000 A 
ATOM      7  C   UNL     1       2.050   4.448  17.993  0.00  0.00    +0.000 A 
ATOM      8  C   UNL     1       2.859   5.579  17.934  0.00  0.00    +0.000 A 
ATOM      9  C   UNL     1       4.180   5.488  17.467  0.00  0.00    +0.000 A 
ATOM     10  C   UNL     1       5.004   6.747  17.396  0.00  0.00    +0.000 C 
ENDROOT
BRANCH   1  11
ATOM     11  N   UNL     1       7.257   7.745  16.928  0.00  0.00    +0.000 NA
ATOM     12  H   UNL     1       7.797   7.597  16.075  0.00  0.00    +0.000 HD
BRANCH  11  13
ATOM     13  C   UNL     1       8.154   8.163  18.007  0.00  0.00    +0.000 C 
BRANCH  13  14
ATOM     14  C   UNL     1       8.337   9.680  18.046  0.00  0.00    +0.000 C 
BRANCH  14  16
ATOM     15  C   UNL     1      10.187  11.173  18.922  0.00  0.00    +0.000 C 
ATOM     16  C   UNL     1       9.207  10.062  19.249  0.00  0.00    +0.000 C 
ENDBRANCH  14  16
ENDBRANCH  13  14
ENDBRANCH  11  13
ENDBRANCH   1  11
BRANCH   6  17
ATOM     17  O   UNL     1       1.733   2.142  17.655  0.00  0.00    +0.000 OA
ATOM     18  H   UNL     1       0.937   2.397  18.151  0.00  0.00    +0.000 HD
ENDBRANCH   6  17
TORSDOF 5
ENDMDL
MODEL 9
REMARK VINA RESULT:      -6.4      3.585      6.147
REMARK  Name = 
REMARK  6 active torsions:
REMARK  status: ('A' for Active; 'I' for Inactive)
REMARK    1  A    between atoms: C_1  and  C_2
REMARK    2  A    between atoms: C_2  and  C_3
REMARK    3  A    between atoms: C_3  and  C_4
REMARK    4  A    between atoms: C_4  and  N_5
REMARK    5  A    between atoms: N_5  and  C_6
REMARK    6  A    between atoms: C_11  and  O_12
REMARK                            x       y       z     vdW  Elec       q    Type
REMARK                         _______ _______ _______ _____ _____    ______ ____
ROOT
ATOM      1  C   UNL     1       4.697   3.733  19.164  0.00  0.00    +0.000 C 
ATOM      2  C   UNL     1       5.273   5.133  19.417  0.00  0.00    +0.000 C 
ATOM      3  C   UNL     1       6.503   5.385  18.540  0.00  0.00    +0.000 C 
ATOM      4  C   UNL     1       6.315   4.999  17.094  0.00  0.00    +0.000 A 
ATOM      5  C   UNL     1       7.223   5.459  16.127  0.00  0.00    +0.000 A 
ATOM      6  C   UNL     1       7.080   5.075  14.794  0.00  0.00    +0.000 A 
ATOM      7  C   UNL     1       6.048   4.234  14.401  0.00  0.00    +0.000 A 
ATOM      8  C   UNL     1       5.147   3.767  15.353  0.00  0.00    +0.000 A 
ATOM      9  C   UNL     1       5.281   4.134  16.702  0.00  0.00    +0.000 A 
ATOM     10  C   UNL     1       4.262   3.624  17.688  0.00  0.00    +0.000 C 
ENDROOT
BRANCH   1  11
ATOM     11  N   UNL     1       3.577   3.479  20.097  0.00  0.00    +0.000 NA
ATOM     12  H   UNL     1       2.980   2.744  19.717  0.00  0.00    +0.000 HD
BRANCH  11  13
ATOM     13  C   UNL     1       2.777   4.682  20.336  0.00  0.00    +0.000 C 
BRANCH  13  14
ATOM     14  C   UNL     1       1.282   4.425  20.143  0.00  0.00    +0.000 C 
BRANCH  14  16
ATOM     15  C   UNL     1       0.617   2.377  18.807  0.00  0.00    +0.000 C 
ATOM     16  C   UNL     1       1.013   2.917  20.169  0.00  0.00    +0.000 C 
ENDBRANCH  14  16
ENDBRANCH  13  14
ENDBRANCH  11  13
ENDBRANCH   1  11
BRANCH   6  17
ATOM     17  O   UNL     1       7.942   5.507  13.830  0.00  0.00    +0.000 OA
ATOM     18  H   UNL     1       8.837   5.207  14.061  0.00  0.00    +0.000 HD
ENDBRANCH   6  17
TORSDOF 5
ENDMDL
