MODEL 1
REMARK VINA RESULT:      -7.4      0.000      0.000
REMARK  Name = 
REMARK  8 active torsions:
REMARK  status: ('A' for Active; 'I' for Inactive)
REMARK    1  A    between atoms: C_1  and  C_2
REMARK    2  A    between atoms: C_2  and  C_3
REMARK    3  A    between atoms: C_2  and  N_4
REMARK    4  A    between atoms: C_2  and  C_13
REMARK    5  A    between atoms: N_4  and  C_5
REMARK    6  A    between atoms: C_5  and  C_6
REMARK    7  A    between atoms: N_8  and  C_9
REMARK    8  A    between atoms: C_9  and  C_10
REMARK                            x       y       z     vdW  Elec       q    Type
REMARK                         _______ _______ _______ _____ _____    ______ ____
ROOT
ATOM      1  C   UNL     1       6.909   4.757  16.987  0.00  0.00    +0.000 C 
ATOM      2  C   UNL     1       5.443   4.888  16.503  0.00  0.00    +0.000 C 
ATOM      3  C   UNL     1       5.120   6.405  16.528  0.00  0.00    +0.000 C 
ENDROOT
BRANCH   2   4
ATOM      4  C   UNL     1       4.425   4.164  17.403  0.00  0.00    +0.000 A 
ATOM      5  C   UNL     1       3.923   2.885  17.097  0.00  0.00    +0.000 A 
ATOM      6  C   UNL     1       3.027   2.231  17.948  0.00  0.00    +0.000 A 
ATOM      7  C   UNL     1       2.616   2.841  19.125  0.00  0.00    +0.000 A 
ATOM      8  C   UNL     1       3.105   4.103  19.461  0.00  0.00    +0.000 A 
ATOM      9  C   UNL     1       3.978   4.769  18.596  0.00  0.00    +0.000 A 
ATOM     10  O   UNL     1       2.774   4.749  20.625  0.00  0.00    +0.000 OA
ATOM     11  C   UNL     1       2.220   3.835  21.577  0.00  0.00    +0.000 C 
ATOM     12  C   UNL     1       1.162   2.960  20.925  0.00  0.00    +0.000 C 
ATOM     13  O   UNL     1       1.743   2.133  19.911  0.00  0.00    +0.000 OA
ENDBRANCH   2   4
BRANCH   2  14
ATOM     14  N   UNL     1       5.327   4.462  15.084  0.00  0.00    +0.000 NA
ATOM     15  H   UNL     1       4.685   5.099  14.609  0.00  0.00    +0.000 HD
BRANCH  14  16
ATOM     16  C   UNL     1       6.611   4.494  14.344  0.00  0.00    +0.000 C 
BRANCH  16  17
ATOM     17  C   UNL     1       6.418   4.024  12.898  0.00  0.00    +0.000 C 
ATOM     18  O   UNL     1       7.291   4.159  12.042  0.00  0.00    +0.000 OA
ATOM     19  N   UNL     1       5.215   3.405  12.657  0.00  0.00    +0.000 N 
ATOM     20  H   UNL     1       4.538   3.416  13.415  0.00  0.00    +0.000 HD
BRANCH  19  21
ATOM     21  C   UNL     1       4.857   2.941  11.343  0.00  0.00    +0.000 C 
BRANCH  21  22
ATOM     22  C   UNL     1       3.468   3.374  11.007  0.00  0.00    +0.000 C 
ATOM     23  C   UNL     1       3.195   4.227   9.791  0.00  0.00    +0.000 C 
ATOM     24  C   UNL     1       2.753   2.790   9.812  0.00  0.00    +0.000 C 
ENDBRANCH  21  22
ENDBRANCH  19  21
ENDBRANCH  16  17
ENDBRANCH  14  16
ENDBRANCH   2  14
TORSDOF 6
ENDMDL
MODEL 2
REMARK VINA RESULT:      -7.4      1.106      1.742
REMARK  Name = 
REMARK  8 active torsions:
REMARK  status: ('A' for Active; 'I' for Inactive)
REMARK    1  A    between atoms: C_1  and  C_2
REMARK    2  A    between atoms: C_2  and  C_3
REMARK    3  A    between atoms: C_2  and  N_4
REMARK    4  A    between atoms: C_2  and  C_13
REMARK    5  A    between atoms: N_4  and  C_5
REMARK    6  A    between atoms: C_5  and  C_6
REMARK    7  A    between atoms: N_8  and  C_9
REMARK    8  A    between atoms: C_9  and  C_10
REMARK                            x       y       z     vdW  Elec       q    Type
REMARK                         _______ _______ _______ _____ _____    ______ ____
ROOT
ATOM      1  C   UNL     1       7.236   6.051  16.934  0.00  0.00    +0.000 C 
ATOM      2  C   UNL     1       5.986   5.335  16.362  0.00  0.00    +0.000 C 
ATOM      3  C   UNL     1       5.223   6.403  15.536  0.00  0.00    +0.000 C 
ENDROOT
BRANCH   2   4
ATOM      4  C   UNL     1       5.034   4.791  17.442  0.00  0.00    +0.000 A 
ATOM      5  C   UNL     1       5.151   5.146  18.800  0.00  0.00    +0.000 A 
ATOM      6  C   UNL     1       4.253   4.667  19.758  0.00  0.00    +0.000 A 
ATOM      7  C   UNL     1       3.216   3.825  19.380  0.00  0.00    +0.000 A 
ATOM      8  C   UNL     1       3.068   3.465  18.041  0.00  0.00    +0.000 A 
ATOM      9  C   UNL     1       3.983   3.920  17.088  0.00  0.00    +0.000 A 
ATOM     10  O   UNL     1       2.046   2.670  17.588  0.00  0.00    +0.000 OA
ATOM     11  C   UNL     1       0.986   2.603  18.549  0.00  0.00    +0.000 C 
ATOM     12  C   UNL     1       1.541   2.326  19.937  0.00  0.00    +0.000 C 
ATOM     13  O   UNL     1       2.372   3.406  20.375  0.00  0.00    +0.000 OA
ENDBRANCH   2   4
BRANCH   2  14
ATOM     14  N   UNL     1       6.392   4.278  15.400  0.00  0.00    +0.000 NA
ATOM     15  H   UNL     1       5.560   3.965  14.897  0.00  0.00    +0.000 HD
BRANCH  14  16
ATOM     16  C   UNL     1       7.375   4.736  14.389  0.00  0.00    +0.000 C 
BRANCH  16  17
ATOM     17  C   UNL     1       6.950   4.304  12.981  0.00  0.00    +0.000 C 
ATOM     18  O   UNL     1       7.487   4.749  11.968  0.00  0.00    +0.000 OA
ATOM     19  N   UNL     1       5.957   3.353  12.953  0.00  0.00    +0.000 N 
ATOM     20  H   UNL     1       5.533   3.113  13.845  0.00  0.00    +0.000 HD
BRANCH  19  21
ATOM     21  C   UNL     1       5.414   2.868  11.712  0.00  0.00    +0.000 C 
BRANCH  21  22
ATOM     22  C   UNL     1       4.050   3.435  11.494  0.00  0.00    +0.000 C 
ATOM     23  C   UNL     1       3.631   3.945  10.136  0.00  0.00    +0.000 C 
ATOM     24  C   UNL     1       3.029   2.679  10.678  0.00  0.00    +0.000 C 
ENDBRANCH  21  22
ENDBRANCH  19  21
ENDBRANCH  16  17
ENDBRANCH  14  16
ENDBRANCH   2  14
TORSDOF 6
ENDMDL
MODEL 3
REMARK VINA RESULT:      -7.3      4.307      6.194
REMARK  Name = 
REMARK  8 active torsions:
REMARK  status: ('A' for Active; 'I' for Inactive)
REMARK    1  A    between atoms: C_1  and  C_2
REMARK    2  A    between atoms: C_2  and  C_3
REMARK    3  A    between atoms: C_2  and  N_4
REMARK    4  A    between atoms: C_2  and  C_13
REMARK    5  A    between atoms: N_4  and  C_5
REMARK    6  A    between atoms: C_5  and  C_6
REMARK    7  A    between atoms: N_8  and  C_9
REMARK    8  A    between atoms: C_9  and  C_10
REMARK                            x       y       z     vdW  Elec       q    Type
REMARK                         _______ _______ _______ _____ _____    ______ ____
ROOT
ATOM      1  C   UNL     1       2.273   5.062  18.136  0.00  0.00    +0.000 C 
ATOM      2  C   UNL     1       2.557   5.899  19.409  0.00  0.00    +0.000 C 
ATOM      3  C   UNL     1       1.730   5.241  20.545  0.00  0.00    +0.000 C 
ENDROOT
BRANCH   2   4
ATOM      4  C   UNL     1       2.126   7.372  19.292  0.00  0.00    +0.000 A 
ATOM      5  C   UNL     1       2.289   8.114  18.106  0.00  0.00    +0.000 A 
ATOM      6  C   UNL     1       1.857   9.440  18.012  0.00  0.00    +0.000 A 
ATOM      7  C   UNL     1       1.251  10.054  19.099  0.00  0.00    +0.000 A 
ATOM      8  C   UNL     1       1.066   9.341  20.284  0.00  0.00    +0.000 A 
ATOM      9  C   UNL     1       1.523   8.024  20.388  0.00  0.00    +0.000 A 
ATOM     10  O   UNL     1       0.440   9.868  21.385  0.00  0.00    +0.000 OA
ATOM     11  C   UNL     1      -0.314  11.033  21.035  0.00  0.00    +0.000 C 
ATOM     12  C   UNL     1       0.518  11.969  20.175  0.00  0.00    +0.000 C 
ATOM     13  O   UNL     1       0.847  11.352  18.926  0.00  0.00    +0.000 OA
ENDBRANCH   2   4
BRANCH   2  14
ATOM     14  N   UNL     1       3.983   5.770  19.806  0.00  0.00    +0.000 NA
ATOM     15  H   UNL     1       4.042   5.855  20.822  0.00  0.00    +0.000 HD
BRANCH  14  16
ATOM     16  C   UNL     1       4.592   4.471  19.432  0.00  0.00    +0.000 C 
BRANCH  16  17
ATOM     17  C   UNL     1       5.952   4.681  18.757  0.00  0.00    +0.000 C 
ATOM     18  O   UNL     1       6.921   5.138  19.361  0.00  0.00    +0.000 OA
ATOM     19  N   UNL     1       6.003   4.276  17.445  0.00  0.00    +0.000 N 
ATOM     20  H   UNL     1       5.125   3.983  17.025  0.00  0.00    +0.000 HD
BRANCH  19  21
ATOM     21  C   UNL     1       7.194   4.439  16.653  0.00  0.00    +0.000 C 
BRANCH  21  22
ATOM     22  C   UNL     1       6.843   4.998  15.313  0.00  0.00    +0.000 C 
ATOM     23  C   UNL     1       6.371   4.096  14.197  0.00  0.00    +0.000 C 
ATOM     24  C   UNL     1       5.405   5.041  14.856  0.00  0.00    +0.000 C 
ENDBRANCH  21  22
ENDBRANCH  19  21
ENDBRANCH  16  17
ENDBRANCH  14  16
ENDBRANCH   2  14
TORSDOF 6
ENDMDL
MODEL 4
REMARK VINA RESULT:      -7.3      3.716      4.970
REMARK  Name = 
REMARK  8 active torsions:
REMARK  status: ('A' for Active; 'I' for Inactive)
REMARK    1  A    between atoms: C_1  and  C_2
REMARK    2  A    between atoms: C_2  and  C_3
REMARK    3  A    between atoms: C_2  and  N_4
REMARK    4  A    between atoms: C_2  and  C_13
REMARK    5  A    between atoms: N_4  and  C_5
REMARK    6  A    between atoms: C_5  and  C_6
REMARK    7  A    between atoms: N_8  and  C_9
REMARK    8  A    between atoms: C_9  and  C_10
REMARK                            x       y       z     vdW  Elec       q    Type
REMARK                         _______ _______ _______ _____ _____    ______ ____
ROOT
ATOM      1  C   UNL     1       2.375   4.780  17.753  0.00  0.00    +0.000 C 
ATOM      2  C   UNL     1       3.312   5.923  18.215  0.00  0.00    +0.000 C 
ATOM      3  C   UNL     1       4.078   5.375  19.448  0.00  0.00    +0.000 C 
ENDROOT
BRANCH   2   4
ATOM      4  C   UNL     1       2.568   7.202  18.639  0.00  0.00    +0.000 A 
ATOM      5  C   UNL     1       2.322   8.263  17.747  0.00  0.00    +0.000 A 
ATOM      6  C   UNL     1       1.612   9.400  18.145  0.00  0.00    +0.000 A 
ATOM      7  C   UNL     1       1.130   9.500  19.443  0.00  0.00    +0.000 A 
ATOM      8  C   UNL     1       1.349   8.460  20.346  0.00  0.00    +0.000 A 
ATOM      9  C   UNL     1       2.083   7.337  19.957  0.00  0.00    +0.000 A 
ATOM     10  O   UNL     1       0.870   8.471  21.632  0.00  0.00    +0.000 OA
ATOM     11  C   UNL     1      -0.168   9.447  21.782  0.00  0.00    +0.000 C 
ATOM     12  C   UNL     1       0.252  10.772  21.168  0.00  0.00    +0.000 C 
ATOM     13  O   UNL     1       0.436  10.641  19.755  0.00  0.00    +0.000 OA
ENDBRANCH   2   4
BRANCH   2  14
ATOM     14  N   UNL     1       4.340   6.200  17.178  0.00  0.00    +0.000 NA
ATOM     15  H   UNL     1       4.256   7.178  16.897  0.00  0.00    +0.000 HD
BRANCH  14  16
ATOM     16  C   UNL     1       5.731   5.991  17.645  0.00  0.00    +0.000 C 
BRANCH  16  17
ATOM     17  C   UNL     1       6.486   5.047  16.703  0.00  0.00    +0.000 C 
ATOM     18  O   UNL     1       7.668   4.753  16.877  0.00  0.00    +0.000 OA
ATOM     19  N   UNL     1       5.723   4.530  15.684  0.00  0.00    +0.000 N 
ATOM     20  H   UNL     1       4.780   4.899  15.590  0.00  0.00    +0.000 HD
BRANCH  19  21
ATOM     21  C   UNL     1       6.287   3.659  14.687  0.00  0.00    +0.000 C 
BRANCH  21  22
ATOM     22  C   UNL     1       5.940   4.152  13.321  0.00  0.00    +0.000 C 
ATOM     23  C   UNL     1       6.792   3.792  12.128  0.00  0.00    +0.000 C 
ATOM     24  C   UNL     1       5.419   3.197  12.274  0.00  0.00    +0.000 C 
ENDBRANCH  21  22
ENDBRANCH  19  21
ENDBRANCH  16  17
ENDBRANCH  14  16
ENDBRANCH   2  14
TORSDOF 6
ENDMDL
MODEL 5
REMARK VINA RESULT:      -7.3      3.685      6.390
REMARK  Name = 
REMARK  8 active torsions:
REMARK  status: ('A' for Active; 'I' for Inactive)
REMARK    1  A    between atoms: C_1  and  C_2
REMARK    2  A    between atoms: C_2  and  C_3
REMARK    3  A    between atoms: C_2  and  N_4
REMARK    4  A    between atoms: C_2  and  C_13
REMARK    5  A    between atoms: N_4  and  C_5
REMARK    6  A    between atoms: C_5  and  C_6
REMARK    7  A    between atoms: N_8  and  C_9
REMARK    8  A    between atoms: C_9  and  C_10
REMARK                            x       y       z     vdW  Elec       q    Type
REMARK                         _______ _______ _______ _____ _____    ______ ____
ROOT
ATOM      1  C   UNL     1       6.684   5.927  17.790  0.00  0.00    +0.000 C 
ATOM      2  C   UNL     1       5.257   5.563  17.310  0.00  0.00    +0.000 C 
ATOM      3  C   UNL     1       5.221   5.890  15.794  0.00  0.00    +0.000 C 
ENDROOT
BRANCH   2   4
ATOM      4  C   UNL     1       4.144   6.371  18.003  0.00  0.00    +0.000 A 
ATOM      5  C   UNL     1       3.652   6.036  19.278  0.00  0.00    +0.000 A 
ATOM      6  C   UNL     1       2.666   6.804  19.904  0.00  0.00    +0.000 A 
ATOM      7  C   UNL     1       2.152   7.927  19.269  0.00  0.00    +0.000 A 
ATOM      8  C   UNL     1       2.629   8.290  18.009  0.00  0.00    +0.000 A 
ATOM      9  C   UNL     1       3.593   7.505  17.372  0.00  0.00    +0.000 A 
ATOM     10  O   UNL     1       2.198   9.407  17.338  0.00  0.00    +0.000 OA
ATOM     11  C   UNL     1       1.538  10.314  18.229  0.00  0.00    +0.000 C 
ATOM     12  C   UNL     1       0.533   9.574  19.097  0.00  0.00    +0.000 C 
ATOM     13  O   UNL     1       1.195   8.635  19.949  0.00  0.00    +0.000 OA
ENDBRANCH   2   4
BRANCH   2  14
ATOM     14  N   UNL     1       5.031   4.099  17.424  0.00  0.00    +0.000 NA
ATOM     15  H   UNL     1       4.987   3.858  18.416  0.00  0.00    +0.000 HD
BRANCH  14  16
ATOM     16  C   UNL     1       3.767   3.640  16.800  0.00  0.00    +0.000 C 
BRANCH  16  17
ATOM     17  C   UNL     1       2.952   2.791  17.782  0.00  0.00    +0.000 C 
ATOM     18  O   UNL     1       3.286   1.650  18.098  0.00  0.00    +0.000 OA
ATOM     19  N   UNL     1       1.851   3.426  18.304  0.00  0.00    +0.000 N 
ATOM     20  H   UNL     1       1.626   4.338  17.917  0.00  0.00    +0.000 HD
BRANCH  19  21
ATOM     21  C   UNL     1       0.954   2.756  19.209  0.00  0.00    +0.000 C 
BRANCH  21  22
ATOM     22  C   UNL     1       1.088   3.332  20.581  0.00  0.00    +0.000 C 
ATOM     23  C   UNL     1       1.276   2.437  21.782  0.00  0.00    +0.000 C 
ATOM     24  C   UNL     1       2.414   3.293  21.300  0.00  0.00    +0.000 C 
ENDBRANCH  21  22
ENDBRANCH  19  21
ENDBRANCH  16  17
ENDBRANCH  14  16
ENDBRANCH   2  14
TORSDOF 6
ENDMDL
MODEL 6
REMARK VINA RESULT:      -7.3      1.719      2.386
REMARK  Name = 
REMARK  8 active torsions:
REMARK  status: ('A' for Active; 'I' for Inactive)
REMARK    1  A    between atoms: C_1  and  C_2
REMARK    2  A    between atoms: C_2  and  C_3
REMARK    3  A    between atoms: C_2  and  N_4
REMARK    4  A    between atoms: C_2  and  C_13
REMARK    5  A    between atoms: N_4  and  C_5
REMARK    6  A    between atoms: C_5  and  C_6
REMARK    7  A    between atoms: N_8  and  C_9
REMARK    8  A    between atoms: C_9  and  C_10
REMARK                            x       y       z     vdW  Elec       q    Type
REMARK                         _______ _______ _______ _____ _____    ______ ____
ROOT
ATOM      1  C   UNL     1       8.014   5.660  19.199  0.00  0.00    +0.000 C 
ATOM      2  C   UNL     1       7.093   5.878  17.972  0.00  0.00    +0.000 C 
ATOM      3  C   UNL     1       7.291   7.356  17.547  0.00  0.00    +0.000 C 
ENDROOT
BRANCH   2   4
ATOM      4  C   UNL     1       5.599   5.659  18.273  0.00  0.00    +0.000 A 
ATOM      5  C   UNL     1       4.593   6.489  17.741  0.00  0.00    +0.000 A 
ATOM      6  C   UNL     1       3.240   6.249  17.998  0.00  0.00    +0.000 A 
ATOM      7  C   UNL     1       2.862   5.174  18.791  0.00  0.00    +0.000 A 
ATOM      8  C   UNL     1       3.836   4.328  19.322  0.00  0.00    +0.000 A 
ATOM      9  C   UNL     1       5.189   4.584  19.089  0.00  0.00    +0.000 A 
ATOM     10  O   UNL     1       3.536   3.224  20.080  0.00  0.00    +0.000 OA
ATOM     11  C   UNL     1       2.164   2.850  19.917  0.00  0.00    +0.000 C 
ATOM     12  C   UNL     1       1.260   4.065  20.043  0.00  0.00    +0.000 C 
ATOM     13  O   UNL     1       1.517   4.999  18.990  0.00  0.00    +0.000 OA
ENDBRANCH   2   4
BRANCH   2  14
ATOM     14  N   UNL     1       7.553   5.051  16.827  0.00  0.00    +0.000 NA
ATOM     15  H   UNL     1       8.335   4.474  17.141  0.00  0.00    +0.000 HD
BRANCH  14  16
ATOM     16  C   UNL     1       6.514   4.138  16.294  0.00  0.00    +0.000 C 
BRANCH  16  17
ATOM     17  C   UNL     1       6.145   4.514  14.854  0.00  0.00    +0.000 C 
ATOM     18  O   UNL     1       5.609   5.585  14.572  0.00  0.00    +0.000 OA
ATOM     19  N   UNL     1       6.501   3.578  13.913  0.00  0.00    +0.000 N 
ATOM     20  H   UNL     1       6.869   2.698  14.264  0.00  0.00    +0.000 HD
BRANCH  19  21
ATOM     21  C   UNL     1       6.191   3.755  12.519  0.00  0.00    +0.000 C 
BRANCH  21  22
ATOM     22  C   UNL     1       4.787   3.324  12.248  0.00  0.00    +0.000 C 
ATOM     23  C   UNL     1       4.055   3.799  11.017  0.00  0.00    +0.000 C 
ATOM     24  C   UNL     1       4.487   2.363  11.123  0.00  0.00    +0.000 C 
ENDBRANCH  21  22
ENDBRANCH  19  21
ENDBRANCH  16  17
ENDBRANCH  14  16
ENDBRANCH   2  14
TORSDOF 6
ENDMDL
MODEL 7
REMARK VINA RESULT:      -7.2      3.285      4.827
REMARK  Name = 
REMARK  8 active torsions:
REMARK  status: ('A' for Active; 'I' for Inactive)
REMARK    1  A    between atoms: C_1  and  C_2
REMARK    2  A    between atoms: C_2  and  C_3
REMARK    3  A    between atoms: C_2  and  N_4
REMARK    4  A    between atoms: C_2  and  C_13
REMARK    5  A    between atoms: N_4  and  C_5
REMARK    6  A    between atoms: C_5  and  C_6
REMARK    7  A    between atoms: N_8  and  C_9
REMARK    8  A    between atoms: C_9  and  C_10
REMARK                            x       y       z     vdW  Elec       q    Type
REMARK                         _______ _______ _______ _____ _____    ______ ____
ROOT
ATOM      1  C   UNL     1       1.992   3.568  18.043  0.00  0.00    +0.000 C 
ATOM      2  C   UNL     1       3.085   4.601  18.415  0.00  0.00    +0.000 C 
ATOM      3  C   UNL     1       3.881   3.974  19.589  0.00  0.00    +0.000 C 
ENDROOT
BRANCH   2   4
ATOM      4  C   UNL     1       2.525   5.956  18.883  0.00  0.00    +0.000 A 
ATOM      5  C   UNL     1       2.053   6.167  20.193  0.00  0.00    +0.000 A 
ATOM      6  C   UNL     1       1.582   7.416  20.605  0.00  0.00    +0.000 A 
ATOM      7  C   UNL     1       1.574   8.484  19.719  0.00  0.00    +0.000 A 
ATOM      8  C   UNL     1       2.045   8.309  18.418  0.00  0.00    +0.000 A 
ATOM      9  C   UNL     1       2.489   7.053  17.996  0.00  0.00    +0.000 A 
ATOM     10  O   UNL     1       2.105   9.327  17.499  0.00  0.00    +0.000 OA
ATOM     11  C   UNL     1       2.009  10.602  18.143  0.00  0.00    +0.000 C 
ATOM     12  C   UNL     1       0.863  10.612  19.141  0.00  0.00    +0.000 C 
ATOM     13  O   UNL     1       1.106   9.680  20.200  0.00  0.00    +0.000 OA
ENDBRANCH   2   4
BRANCH   2  14
ATOM     14  N   UNL     1       4.050   4.758  17.297  0.00  0.00    +0.000 NA
ATOM     15  H   UNL     1       3.823   5.619  16.796  0.00  0.00    +0.000 HD
BRANCH  14  16
ATOM     16  C   UNL     1       5.462   4.860  17.735  0.00  0.00    +0.000 C 
BRANCH  16  17
ATOM     17  C   UNL     1       6.415   4.709  16.545  0.00  0.00    +0.000 C 
ATOM     18  O   UNL     1       7.617   4.492  16.690  0.00  0.00    +0.000 OA
ATOM     19  N   UNL     1       5.807   4.794  15.315  0.00  0.00    +0.000 N 
ATOM     20  H   UNL     1       4.824   5.052  15.311  0.00  0.00    +0.000 HD
BRANCH  19  21
ATOM     21  C   UNL     1       6.564   4.715  14.094  0.00  0.00    +0.000 C 
BRANCH  21  22
ATOM     22  C   UNL     1       6.177   3.491  13.330  0.00  0.00    +0.000 C 
ATOM     23  C   UNL     1       5.301   3.588  12.105  0.00  0.00    +0.000 C 
ATOM     24  C   UNL     1       6.754   3.232  11.960  0.00  0.00    +0.000 C 
ENDBRANCH  21  22
ENDBRANCH  19  21
ENDBRANCH  16  17
ENDBRANCH  14  16
ENDBRANCH   2  14
TORSDOF 6
ENDMDL
MODEL 8
REMARK VINA RESULT:      -7.2      4.363      7.027
REMARK  Name = 
REMARK  8 active torsions:
REMARK  status: ('A' for Active; 'I' for Inactive)
REMARK    1  A    between atoms: C_1  and  C_2
REMARK    2  A    between atoms: C_2  and  C_3
REMARK    3  A    between atoms: C_2  and  N_4
REMARK    4  A    between atoms: C_2  and  C_13
REMARK    5  A    between atoms: N_4  and  C_5
REMARK    6  A    between atoms: C_5  and  C_6
REMARK    7  A    between atoms: N_8  and  C_9
REMARK    8  A    between atoms: C_9  and  C_10
REMARK                            x       y       z     vdW  Elec       q    Type
REMARK                         _______ _______ _______ _____ _____    ______ ____
ROOT
ATOM      1  C   UNL     1       6.625   5.016  15.337  0.00  0.00    +0.000 C 
ATOM      2  C   UNL     1       6.799   5.540  16.784  0.00  0.00    +0.000 C 
ATOM      3  C   UNL     1       7.735   4.528  17.495  0.00  0.00    +0.000 C 
ENDROOT
BRANCH   2   4
ATOM      4  C   UNL     1       5.482   5.618  17.578  0.00  0.00    +0.000 A 
ATOM      5  C   UNL     1       4.547   6.654  17.389  0.00  0.00    +0.000 A 
ATOM      6  C   UNL     1       3.341   6.685  18.095  0.00  0.00    +0.000 A 
ATOM      7  C   UNL     1       3.042   5.679  19.004  0.00  0.00    +0.000 A 
ATOM      8  C   UNL     1       3.943   4.634  19.204  0.00  0.00    +0.000 A 
ATOM      9  C   UNL     1       5.161   4.618  18.520  0.00  0.00    +0.000 A 
ATOM     10  O   UNL     1       3.698   3.585  20.055  0.00  0.00    +0.000 OA
ATOM     11  C   UNL     1       2.305   3.504  20.377  0.00  0.00    +0.000 C 
ATOM     12  C   UNL     1       1.765   4.872  20.760  0.00  0.00    +0.000 C 
ATOM     13  O   UNL     1       1.836   5.773  19.651  0.00  0.00    +0.000 OA
ENDBRANCH   2   4
BRANCH   2  14
ATOM     14  N   UNL     1       7.519   6.840  16.780  0.00  0.00    +0.000 NA
ATOM     15  H   UNL     1       6.870   7.565  16.470  0.00  0.00    +0.000 HD
BRANCH  14  16
ATOM     16  C   UNL     1       8.030   7.243  18.112  0.00  0.00    +0.000 C 
BRANCH  16  17
ATOM     17  C   UNL     1       8.177   8.766  18.201  0.00  0.00    +0.000 C 
ATOM     18  O   UNL     1       7.523   9.531  17.493  0.00  0.00    +0.000 OA
ATOM     19  N   UNL     1       9.061   9.197  19.161  0.00  0.00    +0.000 N 
ATOM     20  H   UNL     1       9.602   8.479  19.636  0.00  0.00    +0.000 HD
BRANCH  19  21
ATOM     21  C   UNL     1       9.346  10.595  19.348  0.00  0.00    +0.000 C 
BRANCH  21  22
ATOM     22  C   UNL     1      10.628  10.951  18.669  0.00  0.00    +0.000 C 
ATOM     23  C   UNL     1      10.914  12.374  18.252  0.00  0.00    +0.000 C 
ATOM     24  C   UNL     1      11.677  11.761  19.393  0.00  0.00    +0.000 C 
ENDBRANCH  21  22
ENDBRANCH  19  21
ENDBRANCH  16  17
ENDBRANCH  14  16
ENDBRANCH   2  14
TORSDOF 6
ENDMDL
MODEL 9
REMARK VINA RESULT:      -7.1      2.100      2.628
REMARK  Name = 
REMARK  8 active torsions:
REMARK  status: ('A' for Active; 'I' for Inactive)
REMARK    1  A    between atoms: C_1  and  C_2
REMARK    2  A    between atoms: C_2  and  C_3
REMARK    3  A    between atoms: C_2  and  N_4
REMARK    4  A    between atoms: C_2  and  C_13
REMARK    5  A    between atoms: N_4  and  C_5
REMARK    6  A    between atoms: C_5  and  C_6
REMARK    7  A    between atoms: N_8  and  C_9
REMARK    8  A    between atoms: C_9  and  C_10
REMARK                            x       y       z     vdW  Elec       q    Type
REMARK                         _______ _______ _______ _____ _____    ______ ____
ROOT
ATOM      1  C   UNL     1       7.882   5.713  19.274  0.00  0.00    +0.000 C 
ATOM      2  C   UNL     1       6.964   5.562  18.036  0.00  0.00    +0.000 C 
ATOM      3  C   UNL     1       7.069   6.903  17.262  0.00  0.00    +0.000 C 
ENDROOT
BRANCH   2   4
ATOM      4  C   UNL     1       5.484   5.323  18.386  0.00  0.00    +0.000 A 
ATOM      5  C   UNL     1       4.455   6.170  17.932  0.00  0.00    +0.000 A 
ATOM      6  C   UNL     1       3.114   5.912  18.233  0.00  0.00    +0.000 A 
ATOM      7  C   UNL     1       2.772   4.801  18.991  0.00  0.00    +0.000 A 
ATOM      8  C   UNL     1       3.769   3.938  19.445  0.00  0.00    +0.000 A 
ATOM      9  C   UNL     1       5.112   4.211  19.169  0.00  0.00    +0.000 A 
ATOM     10  O   UNL     1       3.504   2.799  20.165  0.00  0.00    +0.000 OA
ATOM     11  C   UNL     1       2.128   2.426  20.040  0.00  0.00    +0.000 C 
ATOM     12  C   UNL     1       1.226   3.630  20.256  0.00  0.00    +0.000 C 
ATOM     13  O   UNL     1       1.437   4.611  19.236  0.00  0.00    +0.000 OA
ENDBRANCH   2   4
BRANCH   2  14
ATOM     14  N   UNL     1       7.493   4.514  17.125  0.00  0.00    +0.000 NA
ATOM     15  H   UNL     1       6.958   3.657  17.277  0.00  0.00    +0.000 HD
BRANCH  14  16
ATOM     16  C   UNL     1       7.378   4.859  15.688  0.00  0.00    +0.000 C 
BRANCH  16  17
ATOM     17  C   UNL     1       6.257   4.054  15.021  0.00  0.00    +0.000 C 
ATOM     18  O   UNL     1       5.357   3.522  15.669  0.00  0.00    +0.000 OA
ATOM     19  N   UNL     1       6.322   4.017  13.649  0.00  0.00    +0.000 N 
ATOM     20  H   UNL     1       7.149   4.426  13.222  0.00  0.00    +0.000 HD
BRANCH  19  21
ATOM     21  C   UNL     1       5.370   3.270  12.870  0.00  0.00    +0.000 C 
BRANCH  21  22
ATOM     22  C   UNL     1       5.971   2.887  11.558  0.00  0.00    +0.000 C 
ATOM     23  C   UNL     1       7.288   2.152  11.494  0.00  0.00    +0.000 C 
ATOM     24  C   UNL     1       6.015   1.439  11.131  0.00  0.00    +0.000 C 
ENDBRANCH  21  22
ENDBRANCH  19  21
ENDBRANCH  16  17
ENDBRANCH  14  16
ENDBRANCH   2  14
TORSDOF 6
ENDMDL
