MODEL 1
REMARK VINA RESULT:      -8.5      0.000      0.000
REMARK  Name = 
REMARK  7 active torsions:
REMARK  status: ('A' for Active; 'I' for Inactive)
REMARK    1  A    between atoms: C_2  and  O_3
REMARK    2  A    between atoms: C_2  and  C_4
REMARK    3  A    between atoms: C_4  and  C_5
REMARK    4  A    between atoms: C_10  and  C_11
REMARK    5  A    between atoms: C_14  and  N_15
REMARK    6  A    between atoms: C_16  and  C_18
REMARK    7  A    between atoms: C_19  and  C_20
REMARK                            x       y       z     vdW  Elec       q    Type
REMARK                         _______ _______ _______ _____ _____    ______ ____
ROOT
ATOM      1  C   UNL     1       1.610   8.550  18.933  0.00  0.00    +0.000 A 
ATOM      2  C   UNL     1       1.121   9.610  18.165  0.00  0.00    +0.000 A 
ATOM      3  C   UNL     1       0.224  10.535  18.708  0.00  0.00    +0.000 A 
ATOM      4  C   UNL     1      -0.213  10.428  20.030  0.00  0.00    +0.000 A 
ATOM      5  C   UNL     1       0.276   9.360  20.791  0.00  0.00    +0.000 A 
ATOM      6  F   UNL     1      -0.120   9.219  22.068  0.00  0.00    +0.000 F 
ATOM      7  C   UNL     1       1.174   8.432  20.260  0.00  0.00    +0.000 A 
ENDROOT
BRANCH   1  13
ATOM      8  C   UNL     1       5.603   4.789  16.689  0.00  0.00    +0.000 A 
ATOM      9  C   UNL     1       4.705   3.846  17.228  0.00  0.00    +0.000 A 
ATOM     10  C   UNL     1       3.532   4.237  17.896  0.00  0.00    +0.000 A 
ATOM     11  C   UNL     1       3.319   5.607  17.986  0.00  0.00    +0.000 A 
ATOM     12  O   UNL     1       2.280   6.254  18.589  0.00  0.00    +0.000 OA
ATOM     13  C   UNL     1       2.558   7.587  18.389  0.00  0.00    +0.000 A 
ATOM     14  N   UNL     1       3.668   7.819  17.713  0.00  0.00    +0.000 NA
ATOM     15  C   UNL     1       4.160   6.568  17.455  0.00  0.00    +0.000 A 
ATOM     16  C   UNL     1       5.318   6.165  16.783  0.00  0.00    +0.000 A 
BRANCH   8  17
ATOM     17  C   UNL     1       6.876   4.344  16.007  0.00  0.00    +0.000 C 
BRANCH  17  19
ATOM     18  O   UNL     1       7.581   5.407  13.978  0.00  0.00    +0.000 OA
ATOM     19  C   UNL     1       6.945   4.500  14.505  0.00  0.00    +0.000 C 
BRANCH  19  20
ATOM     20  O   UNL     1       6.291   3.588  13.757  0.00  0.00    +0.000 OA
ATOM     21  H   UNL     1       5.679   3.951  13.090  0.00  0.00    +0.000 HD
ENDBRANCH  19  20
ENDBRANCH  17  19
ENDBRANCH   8  17
ENDBRANCH   1  13
BRANCH   4  22
ATOM     22  N   UNL     1      -1.121  11.334  20.635  0.00  0.00    +0.000 N 
ATOM     23  C   UNL     1      -0.772  12.370  21.473  0.00  0.00    +0.000 C 
ATOM     24  O   UNL     1       0.365  12.645  21.841  0.00  0.00    +0.000 OA
ATOM     25  H   UNL     1      -2.100  11.186  20.414  0.00  0.00    +0.000 HD
BRANCH  23  26
ATOM     26  C   UNL     1      -1.919  13.182  21.954  0.00  0.00    +0.000 C 
ATOM     27  C   UNL     1      -3.143  12.655  21.762  0.00  0.00    +0.000 C 
BRANCH  27  28
ATOM     28  C   UNL     1      -4.396  13.306  22.133  0.00  0.00    +0.000 A 
ATOM     29  C   UNL     1      -5.074  14.028  21.141  0.00  0.00    +0.000 A 
ATOM     30  C   UNL     1      -6.317  14.603  21.410  0.00  0.00    +0.000 A 
ATOM     31  C   UNL     1      -6.893  14.460  22.670  0.00  0.00    +0.000 A 
ATOM     32  C   UNL     1      -6.225  13.745  23.666  0.00  0.00    +0.000 A 
ATOM     33  C   UNL     1      -4.979  13.171  23.402  0.00  0.00    +0.000 A 
ATOM     34 CL   UNL     1      -4.209  12.283  24.670  0.00  0.00    +0.000 Cl
ENDBRANCH  27  28
ENDBRANCH  23  26
ENDBRANCH   4  22
TORSDOF 7
ENDMDL
MODEL 2
REMARK VINA RESULT:      -8.4      1.694      1.852
REMARK  Name = 
REMARK  7 active torsions:
REMARK  status: ('A' for Active; 'I' for Inactive)
REMARK    1  A    between atoms: C_2  and  O_3
REMARK    2  A    between atoms: C_2  and  C_4
REMARK    3  A    between atoms: C_4  and  C_5
REMARK    4  A    between atoms: C_10  and  C_11
REMARK    5  A    between atoms: C_14  and  N_15
REMARK    6  A    between atoms: C_16  and  C_18
REMARK    7  A    between atoms: C_19  and  C_20
REMARK                            x       y       z     vdW  Elec       q    Type
REMARK                         _______ _______ _______ _____ _____    ______ ____
ROOT
ATOM      1  C   UNL     1       1.382   8.502  20.150  0.00  0.00    +0.000 A 
ATOM      2  C   UNL     1       0.703   9.500  19.445  0.00  0.00    +0.000 A 
ATOM      3  C   UNL     1      -0.089  10.438  20.113  0.00  0.00    +0.000 A 
ATOM      4  C   UNL     1      -0.230  10.406  21.502  0.00  0.00    +0.000 A 
ATOM      5  C   UNL     1       0.448   9.402  22.201  0.00  0.00    +0.000 A 
ATOM      6  F   UNL     1       0.340   9.335  23.539  0.00  0.00    +0.000 F 
ATOM      7  C   UNL     1       1.244   8.461  21.544  0.00  0.00    +0.000 A 
ENDROOT
BRANCH   1  13
ATOM      8  C   UNL     1       4.867   4.683  17.252  0.00  0.00    +0.000 A 
ATOM      9  C   UNL     1       4.633   3.917  18.412  0.00  0.00    +0.000 A 
ATOM     10  C   UNL     1       3.827   4.389  19.461  0.00  0.00    +0.000 A 
ATOM     11  C   UNL     1       3.278   5.652  19.278  0.00  0.00    +0.000 A 
ATOM     12  O   UNL     1       2.479   6.350  20.136  0.00  0.00    +0.000 OA
ATOM     13  C   UNL     1       2.226   7.527  19.471  0.00  0.00    +0.000 A 
ATOM     14  N   UNL     1       2.789   7.616  18.281  0.00  0.00    +0.000 NA
ATOM     15  C   UNL     1       3.462   6.431  18.150  0.00  0.00    +0.000 A 
ATOM     16  C   UNL     1       4.258   5.945  17.108  0.00  0.00    +0.000 A 
BRANCH   8  17
ATOM     17  C   UNL     1       5.768   4.169  16.152  0.00  0.00    +0.000 C 
BRANCH  17  19
ATOM     18  O   UNL     1       8.018   4.247  16.972  0.00  0.00    +0.000 OA
ATOM     19  C   UNL     1       7.200   4.651  16.152  0.00  0.00    +0.000 C 
BRANCH  19  20
ATOM     20  O   UNL     1       7.555   5.537  15.199  0.00  0.00    +0.000 OA
ATOM     21  H   UNL     1       7.299   6.463  15.369  0.00  0.00    +0.000 HD
ENDBRANCH  19  20
ENDBRANCH  17  19
ENDBRANCH   8  17
ENDBRANCH   1  13
BRANCH   4  22
ATOM     22  N   UNL     1      -1.019  11.330  22.234  0.00  0.00    +0.000 N 
ATOM     23  C   UNL     1      -0.692  12.648  22.467  0.00  0.00    +0.000 C 
ATOM     24  O   UNL     1       0.336  13.209  22.100  0.00  0.00    +0.000 OA
ATOM     25  H   UNL     1      -1.889  10.965  22.605  0.00  0.00    +0.000 HD
BRANCH  23  26
ATOM     26  C   UNL     1      -1.705  13.402  23.247  0.00  0.00    +0.000 C 
ATOM     27  C   UNL     1      -2.564  14.156  22.536  0.00  0.00    +0.000 C 
BRANCH  27  28
ATOM     28  C   UNL     1      -3.611  14.994  23.115  0.00  0.00    +0.000 A 
ATOM     29  C   UNL     1      -3.326  16.353  23.306  0.00  0.00    +0.000 A 
ATOM     30  C   UNL     1      -4.311  17.222  23.778  0.00  0.00    +0.000 A 
ATOM     31  C   UNL     1      -5.589  16.742  24.057  0.00  0.00    +0.000 A 
ATOM     32  C   UNL     1      -5.882  15.390  23.872  0.00  0.00    +0.000 A 
ATOM     33  C   UNL     1      -4.898  14.516  23.405  0.00  0.00    +0.000 A 
ATOM     34 CL   UNL     1      -5.326  12.856  23.179  0.00  0.00    +0.000 Cl
ENDBRANCH  27  28
ENDBRANCH  23  26
ENDBRANCH   4  22
TORSDOF 7
ENDMDL
MODEL 3
REMARK VINA RESULT:      -8.4      1.362      1.648
REMARK  Name = 
REMARK  7 active torsions:
REMARK  status: ('A' for Active; 'I' for Inactive)
REMARK    1  A    between atoms: C_2  and  O_3
REMARK    2  A    between atoms: C_2  and  C_4
REMARK    3  A    between atoms: C_4  and  C_5
REMARK    4  A    between atoms: C_10  and  C_11
REMARK    5  A    between atoms: C_14  and  N_15
REMARK    6  A    between atoms: C_16  and  C_18
REMARK    7  A    between atoms: C_19  and  C_20
REMARK                            x       y       z     vdW  Elec       q    Type
REMARK                         _______ _______ _______ _____ _____    ______ ____
ROOT
ATOM      1  C   UNL     1       1.613   8.314  19.387  0.00  0.00    +0.000 A 
ATOM      2  C   UNL     1       1.184   8.122  20.703  0.00  0.00    +0.000 A 
ATOM      3  C   UNL     1       0.422   9.094  21.359  0.00  0.00    +0.000 A 
ATOM      4  C   UNL     1       0.068  10.285  20.722  0.00  0.00    +0.000 A 
ATOM      5  C   UNL     1       0.505  10.473  19.406  0.00  0.00    +0.000 A 
ATOM      6  F   UNL     1       0.187  11.606  18.757  0.00  0.00    +0.000 F 
ATOM      7  C   UNL     1       1.265   9.509  18.742  0.00  0.00    +0.000 A 
ENDROOT
BRANCH   1  13
ATOM      8  C   UNL     1       4.922   4.359  16.466  0.00  0.00    +0.000 A 
ATOM      9  C   UNL     1       4.090   3.463  17.166  0.00  0.00    +0.000 A 
ATOM     10  C   UNL     1       3.082   3.911  18.035  0.00  0.00    +0.000 A 
ATOM     11  C   UNL     1       2.962   5.290  18.157  0.00  0.00    +0.000 A 
ATOM     12  O   UNL     1       2.087   5.989  18.937  0.00  0.00    +0.000 OA
ATOM     13  C   UNL     1       2.393   7.305  18.683  0.00  0.00    +0.000 A 
ATOM     14  N   UNL     1       3.371   7.482  17.813  0.00  0.00    +0.000 NA
ATOM     15  C   UNL     1       3.740   6.209  17.476  0.00  0.00    +0.000 A 
ATOM     16  C   UNL     1       4.732   5.748  16.605  0.00  0.00    +0.000 A 
BRANCH   8  17
ATOM     17  C   UNL     1       6.024   3.852  15.564  0.00  0.00    +0.000 C 
BRANCH  17  19
ATOM     18  O   UNL     1       7.772   5.293  14.783  0.00  0.00    +0.000 OA
ATOM     19  C   UNL     1       7.367   4.538  15.661  0.00  0.00    +0.000 C 
BRANCH  19  20
ATOM     20  O   UNL     1       8.104   4.302  16.766  0.00  0.00    +0.000 OA
ATOM     21  H   UNL     1       9.070   4.381  16.653  0.00  0.00    +0.000 HD
ENDBRANCH  19  20
ENDBRANCH  17  19
ENDBRANCH   8  17
ENDBRANCH   1  13
BRANCH   4  22
ATOM     22  N   UNL     1      -0.702  11.306  21.335  0.00  0.00    +0.000 N 
ATOM     23  C   UNL     1      -0.874  11.468  22.692  0.00  0.00    +0.000 C 
ATOM     24  O   UNL     1      -0.412  10.742  23.566  0.00  0.00    +0.000 OA
ATOM     25  H   UNL     1      -1.151  11.957  20.700  0.00  0.00    +0.000 HD
BRANCH  23  26
ATOM     26  C   UNL     1      -1.716  12.632  23.069  0.00  0.00    +0.000 C 
ATOM     27  C   UNL     1      -2.950  12.671  22.534  0.00  0.00    +0.000 C 
BRANCH  27  28
ATOM     28  C   UNL     1      -3.918  13.743  22.754  0.00  0.00    +0.000 A 
ATOM     29  C   UNL     1      -3.858  14.858  21.906  0.00  0.00    +0.000 A 
ATOM     30  C   UNL     1      -4.806  15.877  22.012  0.00  0.00    +0.000 A 
ATOM     31  C   UNL     1      -5.823  15.789  22.960  0.00  0.00    +0.000 A 
ATOM     32  C   UNL     1      -5.889  14.683  23.810  0.00  0.00    +0.000 A 
ATOM     33  C   UNL     1      -4.940  13.663  23.711  0.00  0.00    +0.000 A 
ATOM     34 CL   UNL     1      -5.086  12.312  24.780  0.00  0.00    +0.000 Cl
ENDBRANCH  27  28
ENDBRANCH  23  26
ENDBRANCH   4  22
TORSDOF 7
ENDMDL
MODEL 4
REMARK VINA RESULT:      -8.4      0.825      1.304
REMARK  Name = 
REMARK  7 active torsions:
REMARK  status: ('A' for Active; 'I' for Inactive)
REMARK    1  A    between atoms: C_2  and  O_3
REMARK    2  A    between atoms: C_2  and  C_4
REMARK    3  A    between atoms: C_4  and  C_5
REMARK    4  A    between atoms: C_10  and  C_11
REMARK    5  A    between atoms: C_14  and  N_15
REMARK    6  A    between atoms: C_16  and  C_18
REMARK    7  A    between atoms: C_19  and  C_20
REMARK                            x       y       z     vdW  Elec       q    Type
REMARK                         _______ _______ _______ _____ _____    ______ ____
ROOT
ATOM      1  C   UNL     1       1.593   8.472  19.135  0.00  0.00    +0.000 A 
ATOM      2  C   UNL     1       1.207   8.387  20.476  0.00  0.00    +0.000 A 
ATOM      3  C   UNL     1       0.318   9.316  21.026  0.00  0.00    +0.000 A 
ATOM      4  C   UNL     1      -0.208  10.357  20.257  0.00  0.00    +0.000 A 
ATOM      5  C   UNL     1       0.188  10.438  18.917  0.00  0.00    +0.000 A 
ATOM      6  F   UNL     1      -0.294  11.425  18.142  0.00  0.00    +0.000 F 
ATOM      7  C   UNL     1       1.073   9.515  18.357  0.00  0.00    +0.000 A 
ENDROOT
BRANCH   1  13
ATOM      8  C   UNL     1       5.435   4.685  16.681  0.00  0.00    +0.000 A 
ATOM      9  C   UNL     1       4.547   3.748  17.246  0.00  0.00    +0.000 A 
ATOM     10  C   UNL     1       3.409   4.146  17.967  0.00  0.00    +0.000 A 
ATOM     11  C   UNL     1       3.219   5.518  18.082  0.00  0.00    +0.000 A 
ATOM     12  O   UNL     1       2.216   6.172  18.736  0.00  0.00    +0.000 OA
ATOM     13  C   UNL     1       2.504   7.503  18.540  0.00  0.00    +0.000 A 
ATOM     14  N   UNL     1       3.588   7.728  17.821  0.00  0.00    +0.000 NA
ATOM     15  C   UNL     1       4.051   6.474  17.529  0.00  0.00    +0.000 A 
ATOM     16  C   UNL     1       5.174   6.064  16.804  0.00  0.00    +0.000 A 
BRANCH   8  17
ATOM     17  C   UNL     1       6.673   4.232  15.941  0.00  0.00    +0.000 C 
BRANCH  17  19
ATOM     18  O   UNL     1       6.044   4.085  13.633  0.00  0.00    +0.000 OA
ATOM     19  C   UNL     1       6.774   4.595  14.478  0.00  0.00    +0.000 C 
BRANCH  19  20
ATOM     20  O   UNL     1       7.691   5.521  14.132  0.00  0.00    +0.000 OA
ATOM     21  H   UNL     1       8.474   5.575  14.711  0.00  0.00    +0.000 HD
ENDBRANCH  19  20
ENDBRANCH  17  19
ENDBRANCH   8  17
ENDBRANCH   1  13
BRANCH   4  22
ATOM     22  N   UNL     1      -1.111  11.327  20.760  0.00  0.00    +0.000 N 
ATOM     23  C   UNL     1      -0.768  12.399  21.555  0.00  0.00    +0.000 C 
ATOM     24  O   UNL     1       0.358  12.656  21.966  0.00  0.00    +0.000 OA
ATOM     25  H   UNL     1      -2.082  11.199  20.496  0.00  0.00    +0.000 HD
BRANCH  23  26
ATOM     26  C   UNL     1      -1.908  13.275  21.927  0.00  0.00    +0.000 C 
ATOM     27  C   UNL     1      -3.113  12.682  22.005  0.00  0.00    +0.000 C 
BRANCH  27  28
ATOM     28  C   UNL     1      -4.360  13.373  22.324  0.00  0.00    +0.000 A 
ATOM     29  C   UNL     1      -4.951  14.150  21.318  0.00  0.00    +0.000 A 
ATOM     30  C   UNL     1      -6.184  14.767  21.534  0.00  0.00    +0.000 A 
ATOM     31  C   UNL     1      -6.839  14.609  22.753  0.00  0.00    +0.000 A 
ATOM     32  C   UNL     1      -6.258  13.839  23.762  0.00  0.00    +0.000 A 
ATOM     33  C   UNL     1      -5.022  13.223  23.552  0.00  0.00    +0.000 A 
ATOM     34 CL   UNL     1      -4.363  12.268  24.833  0.00  0.00    +0.000 Cl
ENDBRANCH  27  28
ENDBRANCH  23  26
ENDBRANCH   4  22
TORSDOF 7
ENDMDL
MODEL 5
REMARK VINA RESULT:      -8.4      1.051      1.223
REMARK  Name = 
REMARK  7 active torsions:
REMARK  status: ('A' for Active; 'I' for Inactive)
REMARK    1  A    between atoms: C_2  and  O_3
REMARK    2  A    between atoms: C_2  and  C_4
REMARK    3  A    between atoms: C_4  and  C_5
REMARK    4  A    between atoms: C_10  and  C_11
REMARK    5  A    between atoms: C_14  and  N_15
REMARK    6  A    between atoms: C_16  and  C_18
REMARK    7  A    between atoms: C_19  and  C_20
REMARK                            x       y       z     vdW  Elec       q    Type
REMARK                         _______ _______ _______ _____ _____    ______ ____
ROOT
ATOM      1  C   UNL     1       1.792   8.270  19.178  0.00  0.00    +0.000 A 
ATOM      2  C   UNL     1       1.229   9.363  18.512  0.00  0.00    +0.000 A 
ATOM      3  C   UNL     1       0.404  10.267  19.188  0.00  0.00    +0.000 A 
ATOM      4  C   UNL     1       0.114  10.106  20.544  0.00  0.00    +0.000 A 
ATOM      5  C   UNL     1       0.677   9.007  21.203  0.00  0.00    +0.000 A 
ATOM      6  F   UNL     1       0.422   8.815  22.509  0.00  0.00    +0.000 F 
ATOM      7  C   UNL     1       1.504   8.100  20.539  0.00  0.00    +0.000 A 
ENDROOT
BRANCH   1  13
ATOM      8  C   UNL     1       5.503   4.585  16.390  0.00  0.00    +0.000 A 
ATOM      9  C   UNL     1       4.528   3.646  16.783  0.00  0.00    +0.000 A 
ATOM     10  C   UNL     1       3.383   4.023  17.504  0.00  0.00    +0.000 A 
ATOM     11  C   UNL     1       3.277   5.377  17.799  0.00  0.00    +0.000 A 
ATOM     12  O   UNL     1       2.285   6.006  18.493  0.00  0.00    +0.000 OA
ATOM     13  C   UNL     1       2.668   7.328  18.495  0.00  0.00    +0.000 A 
ATOM     14  N   UNL     1       3.800   7.571  17.859  0.00  0.00    +0.000 NA
ATOM     15  C   UNL     1       4.195   6.338  17.417  0.00  0.00    +0.000 A 
ATOM     16  C   UNL     1       5.325   5.950  16.690  0.00  0.00    +0.000 A 
BRANCH   8  17
ATOM     17  C   UNL     1       6.745   4.148  15.647  0.00  0.00    +0.000 C 
BRANCH  17  19
ATOM     18  O   UNL     1       7.671   5.513  13.908  0.00  0.00    +0.000 OA
ATOM     19  C   UNL     1       6.893   4.616  14.217  0.00  0.00    +0.000 C 
BRANCH  19  20
ATOM     20  O   UNL     1       6.146   3.994  13.282  0.00  0.00    +0.000 OA
ATOM     21  H   UNL     1       6.334   4.244  12.358  0.00  0.00    +0.000 HD
ENDBRANCH  19  20
ENDBRANCH  17  19
ENDBRANCH   8  17
ENDBRANCH   1  13
BRANCH   4  22
ATOM     22  N   UNL     1      -0.715  10.990  21.281  0.00  0.00    +0.000 N 
ATOM     23  C   UNL     1      -0.333  12.220  21.770  0.00  0.00    +0.000 C 
ATOM     24  O   UNL     1       0.782  12.720  21.664  0.00  0.00    +0.000 OA
ATOM     25  H   UNL     1      -1.662  10.665  21.447  0.00  0.00    +0.000 HD
BRANCH  23  26
ATOM     26  C   UNL     1      -1.404  12.952  22.492  0.00  0.00    +0.000 C 
ATOM     27  C   UNL     1      -2.641  12.865  21.969  0.00  0.00    +0.000 C 
BRANCH  27  28
ATOM     28  C   UNL     1      -3.821  13.535  22.509  0.00  0.00    +0.000 A 
ATOM     29  C   UNL     1      -3.630  14.453  23.551  0.00  0.00    +0.000 A 
ATOM     30  C   UNL     1      -4.706  15.186  24.053  0.00  0.00    +0.000 A 
ATOM     31  C   UNL     1      -5.980  15.011  23.517  0.00  0.00    +0.000 A 
ATOM     32  C   UNL     1      -6.181  14.097  22.481  0.00  0.00    +0.000 A 
ATOM     33  C   UNL     1      -5.107  13.359  21.978  0.00  0.00    +0.000 A 
ATOM     34 CL   UNL     1      -5.417  12.255  20.683  0.00  0.00    +0.000 Cl
ENDBRANCH  27  28
ENDBRANCH  23  26
ENDBRANCH   4  22
TORSDOF 7
ENDMDL
MODEL 6
REMARK VINA RESULT:      -8.3      1.618      1.882
REMARK  Name = 
REMARK  7 active torsions:
REMARK  status: ('A' for Active; 'I' for Inactive)
REMARK    1  A    between atoms: C_2  and  O_3
REMARK    2  A    between atoms: C_2  and  C_4
REMARK    3  A    between atoms: C_4  and  C_5
REMARK    4  A    between atoms: C_10  and  C_11
REMARK    5  A    between atoms: C_14  and  N_15
REMARK    6  A    between atoms: C_16  and  C_18
REMARK    7  A    between atoms: C_19  and  C_20
REMARK                            x       y       z     vdW  Elec       q    Type
REMARK                         _______ _______ _______ _____ _____    ______ ____
ROOT
ATOM      1  C   UNL     1       1.206   8.644  20.026  0.00  0.00    +0.000 A 
ATOM      2  C   UNL     1       0.796   9.786  19.334  0.00  0.00    +0.000 A 
ATOM      3  C   UNL     1      -0.046  10.726  19.936  0.00  0.00    +0.000 A 
ATOM      4  C   UNL     1      -0.506  10.551  21.243  0.00  0.00    +0.000 A 
ATOM      5  C   UNL     1      -0.096   9.402  21.928  0.00  0.00    +0.000 A 
ATOM      6  F   UNL     1      -0.516   9.195  23.188  0.00  0.00    +0.000 F 
ATOM      7  C   UNL     1       0.747   8.459  21.337  0.00  0.00    +0.000 A 
ENDROOT
BRANCH   1  13
ATOM      8  C   UNL     1       4.887   4.798  17.420  0.00  0.00    +0.000 A 
ATOM      9  C   UNL     1       4.633   4.078  18.605  0.00  0.00    +0.000 A 
ATOM     10  C   UNL     1       3.780   4.573  19.605  0.00  0.00    +0.000 A 
ATOM     11  C   UNL     1       3.205   5.811  19.347  0.00  0.00    +0.000 A 
ATOM     12  O   UNL     1       2.359   6.524  20.146  0.00  0.00    +0.000 OA
ATOM     13  C   UNL     1       2.098   7.663  19.420  0.00  0.00    +0.000 A 
ATOM     14  N   UNL     1       2.699   7.714  18.246  0.00  0.00    +0.000 NA
ATOM     15  C   UNL     1       3.407   6.544  18.192  0.00  0.00    +0.000 A 
ATOM     16  C   UNL     1       4.250   6.034  17.199  0.00  0.00    +0.000 A 
BRANCH   8  17
ATOM     17  C   UNL     1       5.838   4.260  16.375  0.00  0.00    +0.000 C 
BRANCH  17  19
ATOM     18  O   UNL     1       8.102   4.212  17.159  0.00  0.00    +0.000 OA
ATOM     19  C   UNL     1       7.269   4.743  16.431  0.00  0.00    +0.000 C 
BRANCH  19  20
ATOM     20  O   UNL     1       7.605   5.776  15.633  0.00  0.00    +0.000 OA
ATOM     21  H   UNL     1       8.377   5.628  15.054  0.00  0.00    +0.000 HD
ENDBRANCH  19  20
ENDBRANCH  17  19
ENDBRANCH   8  17
ENDBRANCH   1  13
BRANCH   4  22
ATOM     22  N   UNL     1      -1.361  11.469  21.905  0.00  0.00    +0.000 N 
ATOM     23  C   UNL     1      -0.951  12.606  22.565  0.00  0.00    +0.000 C 
ATOM     24  O   UNL     1       0.210  12.979  22.700  0.00  0.00    +0.000 OA
ATOM     25  H   UNL     1      -2.350  11.245  21.874  0.00  0.00    +0.000 HD
BRANCH  23  26
ATOM     26  C   UNL     1      -2.055  13.403  23.157  0.00  0.00    +0.000 C 
ATOM     27  C   UNL     1      -3.209  13.427  22.464  0.00  0.00    +0.000 C 
BRANCH  27  28
ATOM     28  C   UNL     1      -4.400  14.174  22.858  0.00  0.00    +0.000 A 
ATOM     29  C   UNL     1      -5.474  13.452  23.397  0.00  0.00    +0.000 A 
ATOM     30  C   UNL     1      -6.607  14.118  23.869  0.00  0.00    +0.000 A 
ATOM     31  C   UNL     1      -6.674  15.508  23.810  0.00  0.00    +0.000 A 
ATOM     32  C   UNL     1      -5.611  16.236  23.274  0.00  0.00    +0.000 A 
ATOM     33  C   UNL     1      -4.477  15.574  22.797  0.00  0.00    +0.000 A 
ATOM     34 CL   UNL     1      -3.186  16.531  22.160  0.00  0.00    +0.000 Cl
ENDBRANCH  27  28
ENDBRANCH  23  26
ENDBRANCH   4  22
TORSDOF 7
ENDMDL
MODEL 7
REMARK VINA RESULT:      -8.3      1.843      2.211
REMARK  Name = 
REMARK  7 active torsions:
REMARK  status: ('A' for Active; 'I' for Inactive)
REMARK    1  A    between atoms: C_2  and  O_3
REMARK    2  A    between atoms: C_2  and  C_4
REMARK    3  A    between atoms: C_4  and  C_5
REMARK    4  A    between atoms: C_10  and  C_11
REMARK    5  A    between atoms: C_14  and  N_15
REMARK    6  A    between atoms: C_16  and  C_18
REMARK    7  A    between atoms: C_19  and  C_20
REMARK                            x       y       z     vdW  Elec       q    Type
REMARK                         _______ _______ _______ _____ _____    ______ ____
ROOT
ATOM      1  C   UNL     1       1.488   8.765  19.504  0.00  0.00    +0.000 A 
ATOM      2  C   UNL     1       0.919   8.674  20.778  0.00  0.00    +0.000 A 
ATOM      3  C   UNL     1       0.130   9.711  21.286  0.00  0.00    +0.000 A 
ATOM      4  C   UNL     1      -0.112  10.867  20.542  0.00  0.00    +0.000 A 
ATOM      5  C   UNL     1       0.465  10.953  19.270  0.00  0.00    +0.000 A 
ATOM      6  F   UNL     1       0.258  12.049  18.520  0.00  0.00    +0.000 F 
ATOM      7  C   UNL     1       1.253   9.923  18.752  0.00  0.00    +0.000 A 
ENDROOT
BRANCH   1  13
ATOM      8  C   UNL     1       4.881   4.523  17.134  0.00  0.00    +0.000 A 
ATOM      9  C   UNL     1       4.341   3.786  18.207  0.00  0.00    +0.000 A 
ATOM     10  C   UNL     1       3.432   4.356  19.114  0.00  0.00    +0.000 A 
ATOM     11  C   UNL     1       3.103   5.685  18.882  0.00  0.00    +0.000 A 
ATOM     12  O   UNL     1       2.265   6.480  19.609  0.00  0.00    +0.000 OA
ATOM     13  C   UNL     1       2.298   7.687  18.951  0.00  0.00    +0.000 A 
ATOM     14  N   UNL     1       3.072   7.708  17.882  0.00  0.00    +0.000 NA
ATOM     15  C   UNL     1       3.590   6.442  17.831  0.00  0.00    +0.000 A 
ATOM     16  C   UNL     1       4.485   5.859  16.929  0.00  0.00    +0.000 A 
BRANCH   8  17
ATOM     17  C   UNL     1       5.885   3.898  16.193  0.00  0.00    +0.000 C 
BRANCH  17  19
ATOM     18  O   UNL     1       7.637   5.251  15.274  0.00  0.00    +0.000 OA
ATOM     19  C   UNL     1       7.273   4.496  16.169  0.00  0.00    +0.000 C 
BRANCH  19  20
ATOM     20  O   UNL     1       8.100   4.180  17.187  0.00  0.00    +0.000 OA
ATOM     21  H   UNL     1       8.931   3.735  16.933  0.00  0.00    +0.000 HD
ENDBRANCH  19  20
ENDBRANCH  17  19
ENDBRANCH   8  17
ENDBRANCH   1  13
BRANCH   4  22
ATOM     22  N   UNL     1      -0.902  11.950  21.004  0.00  0.00    +0.000 N 
ATOM     23  C   UNL     1      -1.097  12.286  22.326  0.00  0.00    +0.000 C 
ATOM     24  O   UNL     1      -0.640  11.688  23.294  0.00  0.00    +0.000 OA
ATOM     25  H   UNL     1      -1.349  12.505  20.283  0.00  0.00    +0.000 HD
BRANCH  23  26
ATOM     26  C   UNL     1      -1.957  13.479  22.535  0.00  0.00    +0.000 C 
ATOM     27  C   UNL     1      -2.731  13.469  23.635  0.00  0.00    +0.000 C 
BRANCH  27  28
ATOM     28  C   UNL     1      -3.666  14.528  24.003  0.00  0.00    +0.000 A 
ATOM     29  C   UNL     1      -3.165  15.618  24.727  0.00  0.00    +0.000 A 
ATOM     30  C   UNL     1      -3.990  16.701  25.037  0.00  0.00    +0.000 A 
ATOM     31  C   UNL     1      -5.320  16.705  24.623  0.00  0.00    +0.000 A 
ATOM     32  C   UNL     1      -5.829  15.623  23.903  0.00  0.00    +0.000 A 
ATOM     33  C   UNL     1      -5.008  14.536  23.594  0.00  0.00    +0.000 A 
ATOM     34 CL   UNL     1      -5.693  13.234  22.685  0.00  0.00    +0.000 Cl
ENDBRANCH  27  28
ENDBRANCH  23  26
ENDBRANCH   4  22
TORSDOF 7
ENDMDL
MODEL 8
REMARK VINA RESULT:      -8.3      1.596      1.960
REMARK  Name = 
REMARK  7 active torsions:
REMARK  status: ('A' for Active; 'I' for Inactive)
REMARK    1  A    between atoms: C_2  and  O_3
REMARK    2  A    between atoms: C_2  and  C_4
REMARK    3  A    between atoms: C_4  and  C_5
REMARK    4  A    between atoms: C_10  and  C_11
REMARK    5  A    between atoms: C_14  and  N_15
REMARK    6  A    between atoms: C_16  and  C_18
REMARK    7  A    between atoms: C_19  and  C_20
REMARK                            x       y       z     vdW  Elec       q    Type
REMARK                         _______ _______ _______ _____ _____    ______ ____
ROOT
ATOM      1  C   UNL     1       1.955   8.002  19.253  0.00  0.00    +0.000 A 
ATOM      2  C   UNL     1       1.568   7.663  20.553  0.00  0.00    +0.000 A 
ATOM      3  C   UNL     1       0.675   8.467  21.268  0.00  0.00    +0.000 A 
ATOM      4  C   UNL     1       0.146   9.633  20.710  0.00  0.00    +0.000 A 
ATOM      5  C   UNL     1       0.542   9.968  19.410  0.00  0.00    +0.000 A 
ATOM      6  F   UNL     1       0.057  11.082  18.836  0.00  0.00    +0.000 F 
ATOM      7  C   UNL     1       1.431   9.171  18.687  0.00  0.00    +0.000 A 
ENDROOT
BRANCH   1  13
ATOM      8  C   UNL     1       5.817   4.763  16.136  0.00  0.00    +0.000 A 
ATOM      9  C   UNL     1       4.913   3.739  16.481  0.00  0.00    +0.000 A 
ATOM     10  C   UNL     1       3.765   3.992  17.250  0.00  0.00    +0.000 A 
ATOM     11  C   UNL     1       3.582   5.312  17.642  0.00  0.00    +0.000 A 
ATOM     12  O   UNL     1       2.571   5.827  18.400  0.00  0.00    +0.000 OA
ATOM     13  C   UNL     1       2.871   7.167  18.487  0.00  0.00    +0.000 A 
ATOM     14  N   UNL     1       3.969   7.525  17.848  0.00  0.00    +0.000 NA
ATOM     15  C   UNL     1       4.429   6.354  17.311  0.00  0.00    +0.000 A 
ATOM     16  C   UNL     1       5.563   6.090  16.535  0.00  0.00    +0.000 A 
BRANCH   8  17
ATOM     17  C   UNL     1       7.065   4.459  15.339  0.00  0.00    +0.000 C 
BRANCH  17  19
ATOM     18  O   UNL     1       7.458   5.374  13.158  0.00  0.00    +0.000 OA
ATOM     19  C   UNL     1       6.946   4.486  13.832  0.00  0.00    +0.000 C 
BRANCH  19  20
ATOM     20  O   UNL     1       6.264   3.479  13.248  0.00  0.00    +0.000 OA
ATOM     21  H   UNL     1       5.985   2.758  13.844  0.00  0.00    +0.000 HD
ENDBRANCH  19  20
ENDBRANCH  17  19
ENDBRANCH   8  17
ENDBRANCH   1  13
BRANCH   4  22
ATOM     22  N   UNL     1      -0.762  10.487  21.386  0.00  0.00    +0.000 N 
ATOM     23  C   UNL     1      -0.780  10.714  22.744  0.00  0.00    +0.000 C 
ATOM     24  O   UNL     1      -0.036  10.195  23.570  0.00  0.00    +0.000 OA
ATOM     25  H   UNL     1      -1.442  10.956  20.798  0.00  0.00    +0.000 HD
BRANCH  23  26
ATOM     26  C   UNL     1      -1.825  11.670  23.192  0.00  0.00    +0.000 C 
ATOM     27  C   UNL     1      -2.238  12.569  22.279  0.00  0.00    +0.000 C 
BRANCH  27  28
ATOM     28  C   UNL     1      -3.230  13.611  22.529  0.00  0.00    +0.000 A 
ATOM     29  C   UNL     1      -2.952  14.550  23.532  0.00  0.00    +0.000 A 
ATOM     30  C   UNL     1      -3.821  15.618  23.762  0.00  0.00    +0.000 A 
ATOM     31  C   UNL     1      -4.972  15.758  22.990  0.00  0.00    +0.000 A 
ATOM     32  C   UNL     1      -5.260  14.827  21.991  0.00  0.00    +0.000 A 
ATOM     33  C   UNL     1      -4.395  13.755  21.760  0.00  0.00    +0.000 A 
ATOM     34 CL   UNL     1      -4.797  12.645  20.497  0.00  0.00    +0.000 Cl
ENDBRANCH  27  28
ENDBRANCH  23  26
ENDBRANCH   4  22
TORSDOF 7
ENDMDL
MODEL 9
REMARK VINA RESULT:      -8.2      1.263      1.745
REMARK  Name = 
REMARK  7 active torsions:
REMARK  status: ('A' for Active; 'I' for Inactive)
REMARK    1  A    between atoms: C_2  and  O_3
REMARK    2  A    between atoms: C_2  and  C_4
REMARK    3  A    between atoms: C_4  and  C_5
REMARK    4  A    between atoms: C_10  and  C_11
REMARK    5  A    between atoms: C_14  and  N_15
REMARK    6  A    between atoms: C_16  and  C_18
REMARK    7  A    between atoms: C_19  and  C_20
REMARK                            x       y       z     vdW  Elec       q    Type
REMARK                         _______ _______ _______ _____ _____    ______ ____
ROOT
ATOM      1  C   UNL     1       1.735   8.427  19.031  0.00  0.00    +0.000 A 
ATOM      2  C   UNL     1       1.435   8.353  20.394  0.00  0.00    +0.000 A 
ATOM      3  C   UNL     1       0.595   9.294  20.996  0.00  0.00    +0.000 A 
ATOM      4  C   UNL     1       0.032  10.338  20.258  0.00  0.00    +0.000 A 
ATOM      5  C   UNL     1       0.341  10.409  18.895  0.00  0.00    +0.000 A 
ATOM      6  F   UNL     1      -0.179  11.398  18.148  0.00  0.00    +0.000 F 
ATOM      7  C   UNL     1       1.177   9.473  18.283  0.00  0.00    +0.000 A 
ENDROOT
BRANCH   1  13
ATOM      8  C   UNL     1       5.373   4.583  16.366  0.00  0.00    +0.000 A 
ATOM      9  C   UNL     1       4.449   3.663  16.899  0.00  0.00    +0.000 A 
ATOM     10  C   UNL     1       3.338   4.080  17.651  0.00  0.00    +0.000 A 
ATOM     11  C   UNL     1       3.213   5.452  17.829  0.00  0.00    +0.000 A 
ATOM     12  O   UNL     1       2.247   6.122  18.523  0.00  0.00    +0.000 OA
ATOM     13  C   UNL     1       2.594   7.445  18.383  0.00  0.00    +0.000 A 
ATOM     14  N   UNL     1       3.680   7.653  17.661  0.00  0.00    +0.000 NA
ATOM     15  C   UNL     1       4.082   6.394  17.308  0.00  0.00    +0.000 A 
ATOM     16  C   UNL     1       5.177   5.965  16.552  0.00  0.00    +0.000 A 
BRANCH   8  17
ATOM     17  C   UNL     1       6.581   4.107  15.591  0.00  0.00    +0.000 C 
BRANCH  17  19
ATOM     18  O   UNL     1       5.904   3.838  13.308  0.00  0.00    +0.000 OA
ATOM     19  C   UNL     1       6.621   4.422  14.113  0.00  0.00    +0.000 C 
BRANCH  19  20
ATOM     20  O   UNL     1       7.470   5.390  13.710  0.00  0.00    +0.000 OA
ATOM     21  H   UNL     1       7.836   5.281  12.812  0.00  0.00    +0.000 HD
ENDBRANCH  19  20
ENDBRANCH  17  19
ENDBRANCH   8  17
ENDBRANCH   1  13
BRANCH   4  22
ATOM     22  N   UNL     1      -0.825  11.321  20.814  0.00  0.00    +0.000 N 
ATOM     23  C   UNL     1      -0.413  12.455  21.478  0.00  0.00    +0.000 C 
ATOM     24  O   UNL     1       0.751  12.768  21.709  0.00  0.00    +0.000 OA
ATOM     25  H   UNL     1      -1.819  11.151  20.698  0.00  0.00    +0.000 HD
BRANCH  23  26
ATOM     26  C   UNL     1      -1.519  13.329  21.943  0.00  0.00    +0.000 C 
ATOM     27  C   UNL     1      -2.708  12.730  22.140  0.00  0.00    +0.000 C 
BRANCH  27  28
ATOM     28  C   UNL     1      -3.924  13.417  22.565  0.00  0.00    +0.000 A 
ATOM     29  C   UNL     1      -3.827  14.308  23.643  0.00  0.00    +0.000 A 
ATOM     30  C   UNL     1      -4.935  15.056  24.044  0.00  0.00    +0.000 A 
ATOM     31  C   UNL     1      -6.147  14.925  23.369  0.00  0.00    +0.000 A 
ATOM     32  C   UNL     1      -6.254  14.038  22.295  0.00  0.00    +0.000 A 
ATOM     33  C   UNL     1      -5.149  13.285  21.894  0.00  0.00    +0.000 A 
ATOM     34 CL   UNL     1      -5.340  12.217  20.547  0.00  0.00    +0.000 Cl
ENDBRANCH  27  28
ENDBRANCH  23  26
ENDBRANCH   4  22
TORSDOF 7
ENDMDL
