MODEL 1
REMARK VINA RESULT:      -7.4      0.000      0.000
REMARK  Name = 
REMARK  7 active torsions:
REMARK  status: ('A' for Active; 'I' for Inactive)
REMARK    1  A    between atoms: C_1  and  C_2
REMARK    2  A    between atoms: C_2  and  N_3
REMARK    3  A    between atoms: C_2  and  C_17
REMARK    4  A    between atoms: C_4  and  C_6
REMARK    5  A    between atoms: C_6  and  O_7
REMARK    6  A    between atoms: O_7  and  C_8
REMARK    7  A    between atoms: C_8  and  C_10
REMARK                            x       y       z     vdW  Elec       q    Type
REMARK                         _______ _______ _______ _____ _____    ______ ____
ROOT
ATOM      1  N   UNL     1       4.341   6.393  18.281  0.00  0.00    +0.000 N 
ATOM      2  C   UNL     1       5.152   6.749  17.220  0.00  0.00    +0.000 C 
ATOM      3  O   UNL     1       4.706   7.079  16.121  0.00  0.00    +0.000 OA
ATOM      4  H   UNL     1       4.755   6.077  19.149  0.00  0.00    +0.000 HD
ENDROOT
BRANCH   1   6
ATOM      5  C   UNL     1       2.317   7.725  18.681  0.00  0.00    +0.000 C 
ATOM      6  C   UNL     1       2.889   6.405  18.154  0.00  0.00    +0.000 C 
BRANCH   6   7
ATOM      7  C   UNL     1       2.234   5.201  18.816  0.00  0.00    +0.000 A 
ATOM      8  C   UNL     1       1.707   4.174  18.013  0.00  0.00    +0.000 A 
ATOM      9  C   UNL     1       1.020   3.094  18.580  0.00  0.00    +0.000 A 
ATOM     10  C   UNL     1       0.860   3.017  19.959  0.00  0.00    +0.000 A 
ATOM     11  C   UNL     1       1.394   4.014  20.773  0.00  0.00    +0.000 A 
ATOM     12  C   UNL     1       2.082   5.094  20.208  0.00  0.00    +0.000 A 
ENDBRANCH   6   7
ENDBRANCH   1   6
BRANCH   2  13
ATOM     13  C   UNL     1       6.654   6.704  17.488  0.00  0.00    +0.000 C 
BRANCH  13  14
ATOM     14  O   UNL     1       7.375   6.366  16.301  0.00  0.00    +0.000 OA
BRANCH  14  15
ATOM     15  C   UNL     1       7.564   5.032  16.127  0.00  0.00    +0.000 C 
ATOM     16  O   UNL     1       8.093   4.285  16.936  0.00  0.00    +0.000 OA
BRANCH  15  17
ATOM     17  C   UNL     1       7.039   4.630  14.795  0.00  0.00    +0.000 A 
ATOM     18  C   UNL     1       7.774   4.976  13.646  0.00  0.00    +0.000 A 
ATOM     19  C   UNL     1       7.326   4.617  12.373  0.00  0.00    +0.000 A 
ATOM     20  C   UNL     1       6.145   3.895  12.233  0.00  0.00    +0.000 A 
ATOM     21  C   UNL     1       5.410   3.538  13.364  0.00  0.00    +0.000 A 
ATOM     22  C   UNL     1       5.848   3.903  14.646  0.00  0.00    +0.000 A 
ATOM     23 BR   UNL     1       4.715   3.422  16.093  0.00  0.00    +0.000 Br
ENDBRANCH  15  17
ENDBRANCH  14  15
ENDBRANCH  13  14
ENDBRANCH   2  13
TORSDOF 6
ENDMDL
MODEL 2
REMARK VINA RESULT:      -7.1      2.861      6.495
REMARK  Name = 
REMARK  7 active torsions:
REMARK  status: ('A' for Active; 'I' for Inactive)
REMARK    1  A    between atoms: C_1  and  C_2
REMARK    2  A    between atoms: C_2  and  N_3
REMARK    3  A    between atoms: C_2  and  C_17
REMARK    4  A    between atoms: C_4  and  C_6
REMARK    5  A    between atoms: C_6  and  O_7
REMARK    6  A    between atoms: O_7  and  C_8
REMARK    7  A    between atoms: C_8  and  C_10
REMARK                            x       y       z     vdW  Elec       q    Type
REMARK                         _______ _______ _______ _____ _____    ______ ____
ROOT
ATOM      1  N   UNL     1       5.077   3.140  16.891  0.00  0.00    +0.000 N 
ATOM      2  C   UNL     1       3.746   2.851  17.122  0.00  0.00    +0.000 C 
ATOM      3  O   UNL     1       2.827   3.544  16.684  0.00  0.00    +0.000 OA
ATOM      4  H   UNL     1       5.798   2.572  17.316  0.00  0.00    +0.000 HD
ENDROOT
BRANCH   1   6
ATOM      5  C   UNL     1       6.126   3.838  14.782  0.00  0.00    +0.000 C 
ATOM      6  C   UNL     1       5.467   4.292  16.089  0.00  0.00    +0.000 C 
BRANCH   6   7
ATOM      7  C   UNL     1       6.349   5.268  16.855  0.00  0.00    +0.000 A 
ATOM      8  C   UNL     1       7.186   4.786  17.876  0.00  0.00    +0.000 A 
ATOM      9  C   UNL     1       7.947   5.661  18.661  0.00  0.00    +0.000 A 
ATOM     10  C   UNL     1       7.892   7.030  18.430  0.00  0.00    +0.000 A 
ATOM     11  C   UNL     1       7.084   7.526  17.408  0.00  0.00    +0.000 A 
ATOM     12  C   UNL     1       6.324   6.652  16.622  0.00  0.00    +0.000 A 
ENDBRANCH   6   7
ENDBRANCH   1   6
BRANCH   2  13
ATOM     13  C   UNL     1       3.473   1.611  17.968  0.00  0.00    +0.000 C 
BRANCH  13  14
ATOM     14  O   UNL     1       3.187   1.967  19.322  0.00  0.00    +0.000 OA
BRANCH  14  15
ATOM     15  C   UNL     1       4.022   2.906  19.838  0.00  0.00    +0.000 C 
ATOM     16  O   UNL     1       5.195   2.722  20.123  0.00  0.00    +0.000 OA
BRANCH  15  17
ATOM     17  C   UNL     1       3.280   4.183  20.013  0.00  0.00    +0.000 A 
ATOM     18  C   UNL     1       3.770   5.341  19.383  0.00  0.00    +0.000 A 
ATOM     19  C   UNL     1       3.106   6.563  19.512  0.00  0.00    +0.000 A 
ATOM     20  C   UNL     1       1.936   6.640  20.261  0.00  0.00    +0.000 A 
ATOM     21  C   UNL     1       1.434   5.497  20.886  0.00  0.00    +0.000 A 
ATOM     22  C   UNL     1       2.101   4.268  20.769  0.00  0.00    +0.000 A 
ATOM     23 BR   UNL     1       1.354   2.810  21.732  0.00  0.00    +0.000 Br
ENDBRANCH  15  17
ENDBRANCH  14  15
ENDBRANCH  13  14
ENDBRANCH   2  13
TORSDOF 6
ENDMDL
MODEL 3
REMARK VINA RESULT:      -6.9      0.430      1.099
REMARK  Name = 
REMARK  7 active torsions:
REMARK  status: ('A' for Active; 'I' for Inactive)
REMARK    1  A    between atoms: C_1  and  C_2
REMARK    2  A    between atoms: C_2  and  N_3
REMARK    3  A    between atoms: C_2  and  C_17
REMARK    4  A    between atoms: C_4  and  C_6
REMARK    5  A    between atoms: C_6  and  O_7
REMARK    6  A    between atoms: O_7  and  C_8
REMARK    7  A    between atoms: C_8  and  C_10
REMARK                            x       y       z     vdW  Elec       q    Type
REMARK                         _______ _______ _______ _____ _____    ______ ____
ROOT
ATOM      1  N   UNL     1       4.110   6.431  18.742  0.00  0.00    +0.000 N 
ATOM      2  C   UNL     1       4.818   6.610  17.569  0.00  0.00    +0.000 C 
ATOM      3  O   UNL     1       4.271   6.814  16.484  0.00  0.00    +0.000 OA
ATOM      4  H   UNL     1       4.601   6.213  19.599  0.00  0.00    +0.000 HD
ENDROOT
BRANCH   1   6
ATOM      5  C   UNL     1       2.172   7.589  19.710  0.00  0.00    +0.000 C 
ATOM      6  C   UNL     1       2.654   6.489  18.758  0.00  0.00    +0.000 C 
BRANCH   6   7
ATOM      7  C   UNL     1       2.018   5.145  19.080  0.00  0.00    +0.000 A 
ATOM      8  C   UNL     1       1.659   4.851  20.407  0.00  0.00    +0.000 A 
ATOM      9  C   UNL     1       1.151   3.595  20.758  0.00  0.00    +0.000 A 
ATOM     10  C   UNL     1       0.983   2.615  19.786  0.00  0.00    +0.000 A 
ATOM     11  C   UNL     1       1.313   2.894  18.461  0.00  0.00    +0.000 A 
ATOM     12  C   UNL     1       1.819   4.151  18.108  0.00  0.00    +0.000 A 
ENDBRANCH   6   7
ENDBRANCH   1   6
BRANCH   2  13
ATOM     13  C   UNL     1       6.337   6.536  17.691  0.00  0.00    +0.000 C 
BRANCH  13  14
ATOM     14  O   UNL     1       6.947   6.390  16.407  0.00  0.00    +0.000 OA
BRANCH  14  15
ATOM     15  C   UNL     1       7.424   5.143  16.157  0.00  0.00    +0.000 C 
ATOM     16  O   UNL     1       8.093   4.477  16.931  0.00  0.00    +0.000 OA
BRANCH  15  17
ATOM     17  C   UNL     1       7.012   4.724  14.790  0.00  0.00    +0.000 A 
ATOM     18  C   UNL     1       7.791   5.136  13.694  0.00  0.00    +0.000 A 
ATOM     19  C   UNL     1       7.450   4.763  12.392  0.00  0.00    +0.000 A 
ATOM     20  C   UNL     1       6.334   3.963  12.170  0.00  0.00    +0.000 A 
ATOM     21  C   UNL     1       5.556   3.541  13.249  0.00  0.00    +0.000 A 
ATOM     22  C   UNL     1       5.887   3.918  14.559  0.00  0.00    +0.000 A 
ATOM     23 BR   UNL     1       4.702   3.339  15.927  0.00  0.00    +0.000 Br
ENDBRANCH  15  17
ENDBRANCH  14  15
ENDBRANCH  13  14
ENDBRANCH   2  13
TORSDOF 6
ENDMDL
MODEL 4
REMARK VINA RESULT:      -6.7      2.112      6.708
REMARK  Name = 
REMARK  7 active torsions:
REMARK  status: ('A' for Active; 'I' for Inactive)
REMARK    1  A    between atoms: C_1  and  C_2
REMARK    2  A    between atoms: C_2  and  N_3
REMARK    3  A    between atoms: C_2  and  C_17
REMARK    4  A    between atoms: C_4  and  C_6
REMARK    5  A    between atoms: C_6  and  O_7
REMARK    6  A    between atoms: O_7  and  C_8
REMARK    7  A    between atoms: C_8  and  C_10
REMARK                            x       y       z     vdW  Elec       q    Type
REMARK                         _______ _______ _______ _____ _____    ______ ____
ROOT
ATOM      1  N   UNL     1       6.483   5.591  14.575  0.00  0.00    +0.000 N 
ATOM      2  C   UNL     1       6.366   5.309  15.923  0.00  0.00    +0.000 C 
ATOM      3  O   UNL     1       6.886   4.322  16.446  0.00  0.00    +0.000 OA
ATOM      4  H   UNL     1       5.993   6.384  14.182  0.00  0.00    +0.000 HD
ENDROOT
BRANCH   1   6
ATOM      5  C   UNL     1       8.227   5.559  12.846  0.00  0.00    +0.000 C 
ATOM      6  C   UNL     1       7.256   4.729  13.691  0.00  0.00    +0.000 C 
BRANCH   6   7
ATOM      7  C   UNL     1       6.376   3.837  12.827  0.00  0.00    +0.000 A 
ATOM      8  C   UNL     1       6.963   2.790  12.094  0.00  0.00    +0.000 A 
ATOM      9  C   UNL     1       6.201   2.004  11.221  0.00  0.00    +0.000 A 
ATOM     10  C   UNL     1       4.840   2.243  11.076  0.00  0.00    +0.000 A 
ATOM     11  C   UNL     1       4.236   3.262  11.810  0.00  0.00    +0.000 A 
ATOM     12  C   UNL     1       4.996   4.048  12.684  0.00  0.00    +0.000 A 
ENDBRANCH   6   7
ENDBRANCH   1   6
BRANCH   2  13
ATOM     13  C   UNL     1       5.538   6.297  16.740  0.00  0.00    +0.000 C 
BRANCH  13  14
ATOM     14  O   UNL     1       4.897   5.643  17.837  0.00  0.00    +0.000 OA
BRANCH  14  15
ATOM     15  C   UNL     1       3.563   5.882  17.924  0.00  0.00    +0.000 C 
ATOM     16  O   UNL     1       3.032   6.971  17.769  0.00  0.00    +0.000 OA
BRANCH  15  17
ATOM     17  C   UNL     1       2.856   4.614  18.249  0.00  0.00    +0.000 A 
ATOM     18  C   UNL     1       2.998   3.519  17.378  0.00  0.00    +0.000 A 
ATOM     19  C   UNL     1       2.360   2.305  17.643  0.00  0.00    +0.000 A 
ATOM     20  C   UNL     1       1.581   2.168  18.788  0.00  0.00    +0.000 A 
ATOM     21  C   UNL     1       1.437   3.244  19.664  0.00  0.00    +0.000 A 
ATOM     22  C   UNL     1       2.068   4.469  19.401  0.00  0.00    +0.000 A 
ATOM     23 BR   UNL     1       1.727   5.874  20.633  0.00  0.00    +0.000 Br
ENDBRANCH  15  17
ENDBRANCH  14  15
ENDBRANCH  13  14
ENDBRANCH   2  13
TORSDOF 6
ENDMDL
MODEL 5
REMARK VINA RESULT:      -6.6      1.298      1.946
REMARK  Name = 
REMARK  7 active torsions:
REMARK  status: ('A' for Active; 'I' for Inactive)
REMARK    1  A    between atoms: C_1  and  C_2
REMARK    2  A    between atoms: C_2  and  N_3
REMARK    3  A    between atoms: C_2  and  C_17
REMARK    4  A    between atoms: C_4  and  C_6
REMARK    5  A    between atoms: C_6  and  O_7
REMARK    6  A    between atoms: O_7  and  C_8
REMARK    7  A    between atoms: C_8  and  C_10
REMARK                            x       y       z     vdW  Elec       q    Type
REMARK                         _______ _______ _______ _____ _____    ______ ____
ROOT
ATOM      1  N   UNL     1       4.368   6.562  17.913  0.00  0.00    +0.000 N 
ATOM      2  C   UNL     1       5.200   6.821  16.840  0.00  0.00    +0.000 C 
ATOM      3  O   UNL     1       4.775   7.079  15.713  0.00  0.00    +0.000 OA
ATOM      4  H   UNL     1       4.764   6.302  18.806  0.00  0.00    +0.000 HD
ENDROOT
BRANCH   1   6
ATOM      5  C   UNL     1       2.370   7.964  18.183  0.00  0.00    +0.000 C 
ATOM      6  C   UNL     1       2.919   6.596  17.765  0.00  0.00    +0.000 C 
BRANCH   6   7
ATOM      7  C   UNL     1       2.228   5.461  18.506  0.00  0.00    +0.000 A 
ATOM      8  C   UNL     1       2.104   5.524  19.905  0.00  0.00    +0.000 A 
ATOM      9  C   UNL     1       1.552   4.461  20.631  0.00  0.00    +0.000 A 
ATOM     10  C   UNL     1       1.106   3.323  19.969  0.00  0.00    +0.000 A 
ATOM     11  C   UNL     1       1.200   3.251  18.580  0.00  0.00    +0.000 A 
ATOM     12  C   UNL     1       1.750   4.313  17.853  0.00  0.00    +0.000 A 
ENDBRANCH   6   7
ENDBRANCH   1   6
BRANCH   2  13
ATOM     13  C   UNL     1       6.697   6.764  17.130  0.00  0.00    +0.000 C 
BRANCH  13  14
ATOM     14  O   UNL     1       7.423   6.309  15.987  0.00  0.00    +0.000 OA
BRANCH  14  15
ATOM     15  C   UNL     1       7.503   4.957  15.880  0.00  0.00    +0.000 C 
ATOM     16  O   UNL     1       7.973   4.212  16.725  0.00  0.00    +0.000 OA
BRANCH  15  17
ATOM     17  C   UNL     1       6.941   4.532  14.571  0.00  0.00    +0.000 A 
ATOM     18  C   UNL     1       5.746   3.790  14.557  0.00  0.00    +0.000 A 
ATOM     19  C   UNL     1       5.175   3.373  13.353  0.00  0.00    +0.000 A 
ATOM     20  C   UNL     1       5.783   3.704  12.147  0.00  0.00    +0.000 A 
ATOM     21  C   UNL     1       6.965   4.447  12.144  0.00  0.00    +0.000 A 
ATOM     22  C   UNL     1       7.550   4.862  13.350  0.00  0.00    +0.000 A 
ATOM     23 BR   UNL     1       9.196   5.799  13.209  0.00  0.00    +0.000 Br
ENDBRANCH  15  17
ENDBRANCH  14  15
ENDBRANCH  13  14
ENDBRANCH   2  13
TORSDOF 6
ENDMDL
MODEL 6
REMARK VINA RESULT:      -6.6      2.090      6.713
REMARK  Name = 
REMARK  7 active torsions:
REMARK  status: ('A' for Active; 'I' for Inactive)
REMARK    1  A    between atoms: C_1  and  C_2
REMARK    2  A    between atoms: C_2  and  N_3
REMARK    3  A    between atoms: C_2  and  C_17
REMARK    4  A    between atoms: C_4  and  C_6
REMARK    5  A    between atoms: C_6  and  O_7
REMARK    6  A    between atoms: O_7  and  C_8
REMARK    7  A    between atoms: C_8  and  C_10
REMARK                            x       y       z     vdW  Elec       q    Type
REMARK                         _______ _______ _______ _____ _____    ______ ____
ROOT
ATOM      1  N   UNL     1       6.606   5.360  14.602  0.00  0.00    +0.000 N 
ATOM      2  C   UNL     1       6.872   5.177  15.946  0.00  0.00    +0.000 C 
ATOM      3  O   UNL     1       7.775   4.445  16.353  0.00  0.00    +0.000 OA
ATOM      4  H   UNL     1       5.820   5.929  14.316  0.00  0.00    +0.000 HD
ENDROOT
BRANCH   1   6
ATOM      5  C   UNL     1       8.228   5.723  12.794  0.00  0.00    +0.000 C 
ATOM      6  C   UNL     1       7.407   4.697  13.581  0.00  0.00    +0.000 C 
BRANCH   6   7
ATOM      7  C   UNL     1       6.571   3.819  12.661  0.00  0.00    +0.000 A 
ATOM      8  C   UNL     1       5.186   4.040  12.566  0.00  0.00    +0.000 A 
ATOM      9  C   UNL     1       4.370   3.199  11.798  0.00  0.00    +0.000 A 
ATOM     10  C   UNL     1       4.928   2.132  11.105  0.00  0.00    +0.000 A 
ATOM     11  C   UNL     1       6.302   1.909  11.169  0.00  0.00    +0.000 A 
ATOM     12  C   UNL     1       7.119   2.749  11.934  0.00  0.00    +0.000 A 
ENDBRANCH   6   7
ENDBRANCH   1   6
BRANCH   2  13
ATOM     13  C   UNL     1       5.967   5.937  16.912  0.00  0.00    +0.000 C 
BRANCH  13  14
ATOM     14  O   UNL     1       4.761   5.212  17.161  0.00  0.00    +0.000 OA
BRANCH  14  15
ATOM     15  C   UNL     1       4.675   4.689  18.411  0.00  0.00    +0.000 C 
ATOM     16  O   UNL     1       5.537   4.776  19.271  0.00  0.00    +0.000 OA
BRANCH  15  17
ATOM     17  C   UNL     1       3.374   3.983  18.561  0.00  0.00    +0.000 A 
ATOM     18  C   UNL     1       2.237   4.523  17.933  0.00  0.00    +0.000 A 
ATOM     19  C   UNL     1       0.994   3.894  18.039  0.00  0.00    +0.000 A 
ATOM     20  C   UNL     1       0.875   2.713  18.764  0.00  0.00    +0.000 A 
ATOM     21  C   UNL     1       1.996   2.163  19.386  0.00  0.00    +0.000 A 
ATOM     22  C   UNL     1       3.246   2.792  19.292  0.00  0.00    +0.000 A 
ATOM     23 BR   UNL     1       4.672   1.981  20.250  0.00  0.00    +0.000 Br
ENDBRANCH  15  17
ENDBRANCH  14  15
ENDBRANCH  13  14
ENDBRANCH   2  13
TORSDOF 6
ENDMDL
MODEL 7
REMARK VINA RESULT:      -6.5      2.175      6.829
REMARK  Name = 
REMARK  7 active torsions:
REMARK  status: ('A' for Active; 'I' for Inactive)
REMARK    1  A    between atoms: C_1  and  C_2
REMARK    2  A    between atoms: C_2  and  N_3
REMARK    3  A    between atoms: C_2  and  C_17
REMARK    4  A    between atoms: C_4  and  C_6
REMARK    5  A    between atoms: C_6  and  O_7
REMARK    6  A    between atoms: O_7  and  C_8
REMARK    7  A    between atoms: C_8  and  C_10
REMARK                            x       y       z     vdW  Elec       q    Type
REMARK                         _______ _______ _______ _____ _____    ______ ____
ROOT
ATOM      1  N   UNL     1       6.362   5.572  14.420  0.00  0.00    +0.000 N 
ATOM      2  C   UNL     1       6.007   5.230  15.711  0.00  0.00    +0.000 C 
ATOM      3  O   UNL     1       6.378   4.187  16.251  0.00  0.00    +0.000 OA
ATOM      4  H   UNL     1       5.989   6.413  14.000  0.00  0.00    +0.000 HD
ENDROOT
BRANCH   1   6
ATOM      5  C   UNL     1       8.277   5.535  12.883  0.00  0.00    +0.000 C 
ATOM      6  C   UNL     1       7.223   4.707  13.624  0.00  0.00    +0.000 C 
BRANCH   6   7
ATOM      7  C   UNL     1       6.437   3.813  12.674  0.00  0.00    +0.000 A 
ATOM      8  C   UNL     1       5.061   4.036  12.497  0.00  0.00    +0.000 A 
ATOM      9  C   UNL     1       4.287   3.184  11.699  0.00  0.00    +0.000 A 
ATOM     10  C   UNL     1       4.879   2.103  11.058  0.00  0.00    +0.000 A 
ATOM     11  C   UNL     1       6.247   1.878  11.203  0.00  0.00    +0.000 A 
ATOM     12  C   UNL     1       7.022   2.730  11.999  0.00  0.00    +0.000 A 
ENDBRANCH   6   7
ENDBRANCH   1   6
BRANCH   2  13
ATOM     13  C   UNL     1       5.111   6.227  16.440  0.00  0.00    +0.000 C 
BRANCH  13  14
ATOM     14  O   UNL     1       4.661   5.694  17.687  0.00  0.00    +0.000 OA
BRANCH  14  15
ATOM     15  C   UNL     1       3.338   5.883  17.929  0.00  0.00    +0.000 C 
ATOM     16  O   UNL     1       2.758   6.955  17.866  0.00  0.00    +0.000 OA
BRANCH  15  17
ATOM     17  C   UNL     1       2.713   4.583  18.292  0.00  0.00    +0.000 A 
ATOM     18  C   UNL     1       2.855   3.495  17.412  0.00  0.00    +0.000 A 
ATOM     19  C   UNL     1       2.293   2.252  17.711  0.00  0.00    +0.000 A 
ATOM     20  C   UNL     1       1.592   2.078  18.900  0.00  0.00    +0.000 A 
ATOM     21  C   UNL     1       1.450   3.146  19.787  0.00  0.00    +0.000 A 
ATOM     22  C   UNL     1       2.005   4.400  19.489  0.00  0.00    +0.000 A 
ATOM     23 BR   UNL     1       1.672   5.787  20.744  0.00  0.00    +0.000 Br
ENDBRANCH  15  17
ENDBRANCH  14  15
ENDBRANCH  13  14
ENDBRANCH   2  13
TORSDOF 6
ENDMDL
MODEL 8
REMARK VINA RESULT:      -6.5      2.835      7.017
REMARK  Name = 
REMARK  7 active torsions:
REMARK  status: ('A' for Active; 'I' for Inactive)
REMARK    1  A    between atoms: C_1  and  C_2
REMARK    2  A    between atoms: C_2  and  N_3
REMARK    3  A    between atoms: C_2  and  C_17
REMARK    4  A    between atoms: C_4  and  C_6
REMARK    5  A    between atoms: C_6  and  O_7
REMARK    6  A    between atoms: O_7  and  C_8
REMARK    7  A    between atoms: C_8  and  C_10
REMARK                            x       y       z     vdW  Elec       q    Type
REMARK                         _______ _______ _______ _____ _____    ______ ____
ROOT
ATOM      1  N   UNL     1       4.914   3.350  16.310  0.00  0.00    +0.000 N 
ATOM      2  C   UNL     1       4.589   3.001  17.607  0.00  0.00    +0.000 C 
ATOM      3  O   UNL     1       5.065   3.570  18.590  0.00  0.00    +0.000 OA
ATOM      4  H   UNL     1       4.538   2.818  15.536  0.00  0.00    +0.000 HD
ENDROOT
BRANCH   1   6
ATOM      5  C   UNL     1       5.230   5.781  16.444  0.00  0.00    +0.000 C 
ATOM      6  C   UNL     1       5.842   4.438  16.035  0.00  0.00    +0.000 C 
BRANCH   6   7
ATOM      7  C   UNL     1       6.317   4.452  14.588  0.00  0.00    +0.000 A 
ATOM      8  C   UNL     1       5.705   3.599  13.653  0.00  0.00    +0.000 A 
ATOM      9  C   UNL     1       6.169   3.519  12.335  0.00  0.00    +0.000 A 
ATOM     10  C   UNL     1       7.245   4.299  11.927  0.00  0.00    +0.000 A 
ATOM     11  C   UNL     1       7.851   5.167  12.834  0.00  0.00    +0.000 A 
ATOM     12  C   UNL     1       7.387   5.249  14.152  0.00  0.00    +0.000 A 
ENDBRANCH   6   7
ENDBRANCH   1   6
BRANCH   2  13
ATOM     13  C   UNL     1       3.596   1.852  17.758  0.00  0.00    +0.000 C 
BRANCH  13  14
ATOM     14  O   UNL     1       2.750   2.052  18.891  0.00  0.00    +0.000 OA
BRANCH  14  15
ATOM     15  C   UNL     1       1.630   2.774  18.629  0.00  0.00    +0.000 C 
ATOM     16  O   UNL     1       0.604   2.328  18.142  0.00  0.00    +0.000 OA
BRANCH  15  17
ATOM     17  C   UNL     1       1.857   4.192  19.016  0.00  0.00    +0.000 A 
ATOM     18  C   UNL     1       1.910   5.169  18.005  0.00  0.00    +0.000 A 
ATOM     19  C   UNL     1       2.114   6.514  18.319  0.00  0.00    +0.000 A 
ATOM     20  C   UNL     1       2.255   6.902  19.647  0.00  0.00    +0.000 A 
ATOM     21  C   UNL     1       2.197   5.945  20.661  0.00  0.00    +0.000 A 
ATOM     22  C   UNL     1       2.001   4.590  20.354  0.00  0.00    +0.000 A 
ATOM     23 BR   UNL     1       2.020   3.383  21.821  0.00  0.00    +0.000 Br
ENDBRANCH  15  17
ENDBRANCH  14  15
ENDBRANCH  13  14
ENDBRANCH   2  13
TORSDOF 6
ENDMDL
MODEL 9
REMARK VINA RESULT:      -6.5      4.476      8.310
REMARK  Name = 
REMARK  7 active torsions:
REMARK  status: ('A' for Active; 'I' for Inactive)
REMARK    1  A    between atoms: C_1  and  C_2
REMARK    2  A    between atoms: C_2  and  N_3
REMARK    3  A    between atoms: C_2  and  C_17
REMARK    4  A    between atoms: C_4  and  C_6
REMARK    5  A    between atoms: C_6  and  O_7
REMARK    6  A    between atoms: O_7  and  C_8
REMARK    7  A    between atoms: C_8  and  C_10
REMARK                            x       y       z     vdW  Elec       q    Type
REMARK                         _______ _______ _______ _____ _____    ______ ____
ROOT
ATOM      1  N   UNL     1       3.172   7.160  17.708  0.00  0.00    +0.000 N 
ATOM      2  C   UNL     1       2.370   7.915  18.544  0.00  0.00    +0.000 C 
ATOM      3  O   UNL     1       2.319   7.734  19.761  0.00  0.00    +0.000 OA
ATOM      4  H   UNL     1       3.141   7.310  16.709  0.00  0.00    +0.000 HD
ENDROOT
BRANCH   1   6
ATOM      5  C   UNL     1       5.360   6.067  17.489  0.00  0.00    +0.000 C 
ATOM      6  C   UNL     1       4.024   6.104  18.238  0.00  0.00    +0.000 C 
BRANCH   6   7
ATOM      7  C   UNL     1       3.339   4.744  18.238  0.00  0.00    +0.000 A 
ATOM      8  C   UNL     1       4.108   3.584  18.437  0.00  0.00    +0.000 A 
ATOM      9  C   UNL     1       3.530   2.311  18.358  0.00  0.00    +0.000 A 
ATOM     10  C   UNL     1       2.173   2.178  18.091  0.00  0.00    +0.000 A 
ATOM     11  C   UNL     1       1.389   3.317  17.913  0.00  0.00    +0.000 A 
ATOM     12  C   UNL     1       1.966   4.590  17.993  0.00  0.00    +0.000 A 
ENDBRANCH   6   7
ENDBRANCH   1   6
BRANCH   2  13
ATOM     13  C   UNL     1       1.535   8.996  17.865  0.00  0.00    +0.000 C 
BRANCH  13  14
ATOM     14  O   UNL     1       1.164  10.016  18.795  0.00  0.00    +0.000 OA
BRANCH  14  15
ATOM     15  C   UNL     1      -0.173  10.116  19.007  0.00  0.00    +0.000 C 
ATOM     16  O   UNL     1      -1.027  10.099  18.134  0.00  0.00    +0.000 OA
BRANCH  15  17
ATOM     17  C   UNL     1      -0.431  10.261  20.464  0.00  0.00    +0.000 A 
ATOM     18  C   UNL     1      -0.248   9.142  21.298  0.00  0.00    +0.000 A 
ATOM     19  C   UNL     1      -0.472   9.229  22.673  0.00  0.00    +0.000 A 
ATOM     20  C   UNL     1      -0.868  10.438  23.236  0.00  0.00    +0.000 A 
ATOM     21  C   UNL     1      -1.046  11.558  22.422  0.00  0.00    +0.000 A 
ATOM     22  C   UNL     1      -0.833  11.477  21.038  0.00  0.00    +0.000 A 
ATOM     23 BR   UNL     1      -1.185  13.053  20.038  0.00  0.00    +0.000 Br
ENDBRANCH  15  17
ENDBRANCH  14  15
ENDBRANCH  13  14
ENDBRANCH   2  13
TORSDOF 6
ENDMDL
