MODEL 1
REMARK VINA RESULT:      -8.2      0.000      0.000
REMARK  Name = 
REMARK  10 active torsions:
REMARK  status: ('A' for Active; 'I' for Inactive)
REMARK    1  A    between atoms: C_1  and  C_2
REMARK    2  A    between atoms: C_5  and  C_6
REMARK    3  A    between atoms: C_7  and  C_8
REMARK    4  A    between atoms: C_10  and  C_11
REMARK    5  A    between atoms: N_15  and  C_16
REMARK    6  A    between atoms: C_19  and  O_20
REMARK    7  A    between atoms: O_20  and  C_21
REMARK    8  A    between atoms: C_21  and  C_22
REMARK    9  A    between atoms: C_22  and  N_23
REMARK   10  A    between atoms: N_26  and  C_27
REMARK                            x       y       z     vdW  Elec       q    Type
REMARK                         _______ _______ _______ _____ _____    ______ ____
ROOT
ATOM      1  C   UNL     1       2.651   5.931  19.590  0.00  0.00    +0.000 A 
ATOM      2  C   UNL     1       1.868   6.367  20.660  0.00  0.00    +0.000 A 
ATOM      3  C   UNL     1       1.249   7.624  20.639  0.00  0.00    +0.000 A 
ATOM      4  C   UNL     1       0.374   8.045  21.790  0.00  0.00    +0.000 C 
ATOM      5  C   UNL     1       1.446   8.482  19.554  0.00  0.00    +0.000 A 
ATOM      6  N   UNL     1       0.873   9.687  19.554  0.00  0.00    +0.000 NA
ATOM      7  C   UNL     1       1.080  10.513  18.516  0.00  0.00    +0.000 A 
ATOM      8  N   UNL     1       0.472  11.770  18.507  0.00  0.00    +0.000 N 
ATOM      9  N   UNL     1       1.834  10.143  17.466  0.00  0.00    +0.000 NA
ATOM     10  N   UNL     1       2.423   8.906  17.451  0.00  0.00    +0.000 NA
ATOM     11  C   UNL     1       2.238   8.068  18.482  0.00  0.00    +0.000 A 
ATOM     12  C   UNL     1       2.808   6.800  18.501  0.00  0.00    +0.000 A 
ATOM     13  H   UNL     1       0.573  12.241  17.623  0.00  0.00    +0.000 HD
ENDROOT
BRANCH   1  20
ATOM     14  C   UNL     1       1.315   2.909  20.120  0.00  0.00    +0.000 C 
ATOM     15  C   UNL     1       2.716   3.313  19.846  0.00  0.00    +0.000 A 
ATOM     16  N   UNL     1       3.656   2.361  19.783  0.00  0.00    +0.000 NA
ATOM     17  O   UNL     1       4.833   3.011  19.498  0.00  0.00    +0.000 OA
ATOM     18  C   UNL     1       4.614   4.348  19.394  0.00  0.00    +0.000 A 
ATOM     19  C   UNL     1       5.818   5.152  19.107  0.00  0.00    +0.000 C 
ATOM     20  C   UNL     1       3.269   4.611  19.607  0.00  0.00    +0.000 A 
ENDBRANCH   1  20
BRANCH   8  21
ATOM     21  C   UNL     1      -0.172  12.446  19.553  0.00  0.00    +0.000 A 
ATOM     22  C   UNL     1       0.546  13.138  20.529  0.00  0.00    +0.000 A 
ATOM     23  C   UNL     1      -0.074  13.700  21.637  0.00  0.00    +0.000 A 
ATOM     24  C   UNL     1      -1.455  13.611  21.800  0.00  0.00    +0.000 A 
ATOM     25  C   UNL     1      -2.199  12.938  20.829  0.00  0.00    +0.000 A 
ATOM     26  C   UNL     1      -1.560  12.356  19.718  0.00  0.00    +0.000 A 
BRANCH  24  27
ATOM     27  O   UNL     1      -2.144  14.148  22.866  0.00  0.00    +0.000 OA
BRANCH  27  28
ATOM     28  C   UNL     1      -3.481  13.642  22.975  0.00  0.00    +0.000 C 
BRANCH  28  29
ATOM     29  C   UNL     1      -4.519  14.729  23.259  0.00  0.00    +0.000 C 
BRANCH  29  30
ATOM     30  N   UNL     1      -5.874  14.322  22.826  0.00  0.00    +0.000 NA
ATOM     31  C   UNL     1      -6.231  13.008  23.392  0.00  0.00    +0.000 C 
ATOM     32  C   UNL     1      -7.636  12.533  22.944  0.00  0.00    +0.000 C 
ATOM     33  N   UNL     1      -7.864  12.522  21.485  0.00  0.00    +0.000 NA
ATOM     34  C   UNL     1      -7.165  11.417  20.833  0.00  0.00    +0.000 C 
ATOM     35  C   UNL     1      -7.452  13.822  20.929  0.00  0.00    +0.000 C 
ATOM     36  C   UNL     1      -6.042  14.293  21.358  0.00  0.00    +0.000 C 
ENDBRANCH  29  30
ENDBRANCH  28  29
ENDBRANCH  27  28
ENDBRANCH  24  27
ENDBRANCH   8  21
TORSDOF 6
ENDMDL
MODEL 2
REMARK VINA RESULT:      -8.1      1.975     11.165
REMARK  Name = 
REMARK  10 active torsions:
REMARK  status: ('A' for Active; 'I' for Inactive)
REMARK    1  A    between atoms: C_1  and  C_2
REMARK    2  A    between atoms: C_5  and  C_6
REMARK    3  A    between atoms: C_7  and  C_8
REMARK    4  A    between atoms: C_10  and  C_11
REMARK    5  A    between atoms: N_15  and  C_16
REMARK    6  A    between atoms: C_19  and  O_20
REMARK    7  A    between atoms: O_20  and  C_21
REMARK    8  A    between atoms: C_21  and  C_22
REMARK    9  A    between atoms: C_22  and  N_23
REMARK   10  A    between atoms: N_26  and  C_27
REMARK                            x       y       z     vdW  Elec       q    Type
REMARK                         _______ _______ _______ _____ _____    ______ ____
ROOT
ATOM      1  C   UNL     1      -3.399  13.249  22.299  0.00  0.00    +0.000 A 
ATOM      2  C   UNL     1      -2.685  12.249  22.961  0.00  0.00    +0.000 A 
ATOM      3  C   UNL     1      -1.699  11.504  22.299  0.00  0.00    +0.000 A 
ATOM      4  C   UNL     1      -0.915  10.464  23.055  0.00  0.00    +0.000 C 
ATOM      5  C   UNL     1      -1.448  11.727  20.942  0.00  0.00    +0.000 A 
ATOM      6  N   UNL     1      -0.526  10.996  20.314  0.00  0.00    +0.000 NA
ATOM      7  C   UNL     1      -0.301  11.204  19.007  0.00  0.00    +0.000 A 
ATOM      8  N   UNL     1       0.671  10.448  18.348  0.00  0.00    +0.000 N 
ATOM      9  N   UNL     1      -0.971  12.148  18.322  0.00  0.00    +0.000 NA
ATOM     10  N   UNL     1      -1.917  12.910  18.958  0.00  0.00    +0.000 NA
ATOM     11  C   UNL     1      -2.165  12.712  20.262  0.00  0.00    +0.000 A 
ATOM     12  C   UNL     1      -3.106  13.471  20.947  0.00  0.00    +0.000 A 
ATOM     13  H   UNL     1       0.858  10.787  17.419  0.00  0.00    +0.000 HD
ENDROOT
BRANCH   1  20
ATOM     14  C   UNL     1      -6.727  12.913  22.435  0.00  0.00    +0.000 C 
ATOM     15  C   UNL     1      -5.828  13.917  23.058  0.00  0.00    +0.000 A 
ATOM     16  N   UNL     1      -6.371  14.877  23.818  0.00  0.00    +0.000 NA
ATOM     17  O   UNL     1      -5.320  15.637  24.274  0.00  0.00    +0.000 OA
ATOM     18  C   UNL     1      -4.148  15.147  23.793  0.00  0.00    +0.000 A 
ATOM     19  C   UNL     1      -2.947  15.900  24.206  0.00  0.00    +0.000 C 
ATOM     20  C   UNL     1      -4.403  14.038  23.001  0.00  0.00    +0.000 A 
ENDBRANCH   1  20
BRANCH   8  21
ATOM     21  C   UNL     1       1.337   9.294  18.785  0.00  0.00    +0.000 A 
ATOM     22  C   UNL     1       2.097   8.515  17.912  0.00  0.00    +0.000 A 
ATOM     23  C   UNL     1       2.652   7.304  18.304  0.00  0.00    +0.000 A 
ATOM     24  C   UNL     1       2.487   6.834  19.606  0.00  0.00    +0.000 A 
ATOM     25  C   UNL     1       1.745   7.604  20.503  0.00  0.00    +0.000 A 
ATOM     26  C   UNL     1       1.170   8.821  20.092  0.00  0.00    +0.000 A 
BRANCH  24  27
ATOM     27  O   UNL     1       3.012   5.648  20.072  0.00  0.00    +0.000 OA
BRANCH  27  28
ATOM     28  C   UNL     1       2.483   4.502  19.392  0.00  0.00    +0.000 C 
BRANCH  28  29
ATOM     29  C   UNL     1       3.451   3.318  19.355  0.00  0.00    +0.000 C 
BRANCH  29  30
ATOM     30  N   UNL     1       4.484   3.484  18.310  0.00  0.00    +0.000 NA
ATOM     31  C   UNL     1       5.574   4.355  18.786  0.00  0.00    +0.000 C 
ATOM     32  C   UNL     1       6.668   4.574  17.711  0.00  0.00    +0.000 C 
ATOM     33  N   UNL     1       6.181   5.060  16.404  0.00  0.00    +0.000 NA
ATOM     34  C   UNL     1       5.799   6.469  16.455  0.00  0.00    +0.000 C 
ATOM     35  C   UNL     1       5.059   4.213  15.969  0.00  0.00    +0.000 C 
ATOM     36  C   UNL     1       3.953   4.005  17.032  0.00  0.00    +0.000 C 
ENDBRANCH  29  30
ENDBRANCH  28  29
ENDBRANCH  27  28
ENDBRANCH  24  27
ENDBRANCH   8  21
TORSDOF 6
ENDMDL
MODEL 3
REMARK VINA RESULT:      -8.1      0.615      1.676
REMARK  Name = 
REMARK  10 active torsions:
REMARK  status: ('A' for Active; 'I' for Inactive)
REMARK    1  A    between atoms: C_1  and  C_2
REMARK    2  A    between atoms: C_5  and  C_6
REMARK    3  A    between atoms: C_7  and  C_8
REMARK    4  A    between atoms: C_10  and  C_11
REMARK    5  A    between atoms: N_15  and  C_16
REMARK    6  A    between atoms: C_19  and  O_20
REMARK    7  A    between atoms: O_20  and  C_21
REMARK    8  A    between atoms: C_21  and  C_22
REMARK    9  A    between atoms: C_22  and  N_23
REMARK   10  A    between atoms: N_26  and  C_27
REMARK                            x       y       z     vdW  Elec       q    Type
REMARK                         _______ _______ _______ _____ _____    ______ ____
ROOT
ATOM      1  C   UNL     1       2.676   5.989  19.634  0.00  0.00    +0.000 A 
ATOM      2  C   UNL     1       1.871   6.414  20.692  0.00  0.00    +0.000 A 
ATOM      3  C   UNL     1       1.238   7.664  20.663  0.00  0.00    +0.000 A 
ATOM      4  C   UNL     1       0.340   8.073  21.801  0.00  0.00    +0.000 C 
ATOM      5  C   UNL     1       1.442   8.526  19.583  0.00  0.00    +0.000 A 
ATOM      6  N   UNL     1       0.855   9.725  19.576  0.00  0.00    +0.000 NA
ATOM      7  C   UNL     1       1.069  10.555  18.543  0.00  0.00    +0.000 A 
ATOM      8  N   UNL     1       0.448  11.805  18.527  0.00  0.00    +0.000 N 
ATOM      9  N   UNL     1       1.844  10.196  17.504  0.00  0.00    +0.000 NA
ATOM     10  N   UNL     1       2.448   8.965  17.497  0.00  0.00    +0.000 NA
ATOM     11  C   UNL     1       2.256   8.123  18.524  0.00  0.00    +0.000 A 
ATOM     12  C   UNL     1       2.839   6.862  18.549  0.00  0.00    +0.000 A 
ATOM     13  H   UNL     1       0.557  12.279  17.645  0.00  0.00    +0.000 HD
ENDROOT
BRANCH   1  20
ATOM     14  C   UNL     1       5.878   5.109  19.218  0.00  0.00    +0.000 C 
ATOM     15  C   UNL     1       4.671   4.282  19.468  0.00  0.00    +0.000 A 
ATOM     16  N   UNL     1       4.813   2.954  19.557  0.00  0.00    +0.000 NA
ATOM     17  O   UNL     1       3.557   2.455  19.810  0.00  0.00    +0.000 OA
ATOM     18  C   UNL     1       2.657   3.471  19.870  0.00  0.00    +0.000 A 
ATOM     19  C   UNL     1       1.265   3.049  20.120  0.00  0.00    +0.000 C 
ATOM     20  C   UNL     1       3.308   4.677  19.658  0.00  0.00    +0.000 A 
ENDBRANCH   1  20
BRANCH   8  21
ATOM     21  C   UNL     1      -0.221  12.471  19.563  0.00  0.00    +0.000 A 
ATOM     22  C   UNL     1      -1.612  12.574  19.588  0.00  0.00    +0.000 A 
ATOM     23  C   UNL     1      -2.275  13.339  20.539  0.00  0.00    +0.000 A 
ATOM     24  C   UNL     1      -1.563  14.018  21.527  0.00  0.00    +0.000 A 
ATOM     25  C   UNL     1      -0.171  13.918  21.534  0.00  0.00    +0.000 A 
ATOM     26  C   UNL     1       0.493  13.155  20.555  0.00  0.00    +0.000 A 
BRANCH  24  27
ATOM     27  O   UNL     1      -2.148  14.790  22.507  0.00  0.00    +0.000 OA
BRANCH  27  28
ATOM     28  C   UNL     1      -3.305  14.171  23.085  0.00  0.00    +0.000 C 
BRANCH  28  29
ATOM     29  C   UNL     1      -4.349  15.175  23.578  0.00  0.00    +0.000 C 
BRANCH  29  30
ATOM     30  N   UNL     1      -5.714  14.606  23.552  0.00  0.00    +0.000 NA
ATOM     31  C   UNL     1      -5.686  13.164  23.859  0.00  0.00    +0.000 C 
ATOM     32  C   UNL     1      -7.096  12.524  23.819  0.00  0.00    +0.000 C 
ATOM     33  N   UNL     1      -7.858  12.750  22.574  0.00  0.00    +0.000 NA
ATOM     34  C   UNL     1      -7.345  11.946  21.468  0.00  0.00    +0.000 C 
ATOM     35  C   UNL     1      -7.830  14.187  22.253  0.00  0.00    +0.000 C 
ATOM     36  C   UNL     1      -6.422  14.828  22.273  0.00  0.00    +0.000 C 
ENDBRANCH  29  30
ENDBRANCH  28  29
ENDBRANCH  27  28
ENDBRANCH  24  27
ENDBRANCH   8  21
TORSDOF 6
ENDMDL
MODEL 4
REMARK VINA RESULT:      -8.0      2.090     11.022
REMARK  Name = 
REMARK  10 active torsions:
REMARK  status: ('A' for Active; 'I' for Inactive)
REMARK    1  A    between atoms: C_1  and  C_2
REMARK    2  A    between atoms: C_5  and  C_6
REMARK    3  A    between atoms: C_7  and  C_8
REMARK    4  A    between atoms: C_10  and  C_11
REMARK    5  A    between atoms: N_15  and  C_16
REMARK    6  A    between atoms: C_19  and  O_20
REMARK    7  A    between atoms: O_20  and  C_21
REMARK    8  A    between atoms: C_21  and  C_22
REMARK    9  A    between atoms: C_22  and  N_23
REMARK   10  A    between atoms: N_26  and  C_27
REMARK                            x       y       z     vdW  Elec       q    Type
REMARK                         _______ _______ _______ _____ _____    ______ ____
ROOT
ATOM      1  C   UNL     1      -2.021  12.732  22.527  0.00  0.00    +0.000 A 
ATOM      2  C   UNL     1      -1.697  11.487  23.069  0.00  0.00    +0.000 A 
ATOM      3  C   UNL     1      -0.846  10.603  22.391  0.00  0.00    +0.000 A 
ATOM      4  C   UNL     1      -0.480   9.286  23.025  0.00  0.00    +0.000 C 
ATOM      5  C   UNL     1      -0.343  10.942  21.132  0.00  0.00    +0.000 A 
ATOM      6  N   UNL     1       0.445  10.082  20.484  0.00  0.00    +0.000 NA
ATOM      7  C   UNL     1       0.910  10.408  19.267  0.00  0.00    +0.000 A 
ATOM      8  N   UNL     1       1.745   9.516  18.590  0.00  0.00    +0.000 N 
ATOM      9  N   UNL     1       0.618  11.590  18.698  0.00  0.00    +0.000 NA
ATOM     10  N   UNL     1      -0.185  12.485  19.357  0.00  0.00    +0.000 NA
ATOM     11  C   UNL     1      -0.671  12.176  20.569  0.00  0.00    +0.000 A 
ATOM     12  C   UNL     1      -1.479  13.059  21.276  0.00  0.00    +0.000 A 
ATOM     13  H   UNL     1       2.151   9.920  17.763  0.00  0.00    +0.000 HD
ENDROOT
BRANCH   1  20
ATOM     14  C   UNL     1      -5.344  13.125  22.447  0.00  0.00    +0.000 C 
ATOM     15  C   UNL     1      -4.301  13.850  23.216  0.00  0.00    +0.000 A 
ATOM     16  N   UNL     1      -4.682  14.836  24.038  0.00  0.00    +0.000 NA
ATOM     17  O   UNL     1      -3.530  15.304  24.625  0.00  0.00    +0.000 OA
ATOM     18  C   UNL     1      -2.457  14.612  24.161  0.00  0.00    +0.000 A 
ATOM     19  C   UNL     1      -1.157  15.044  24.712  0.00  0.00    +0.000 C 
ATOM     20  C   UNL     1      -2.883  13.659  23.249  0.00  0.00    +0.000 A 
ENDBRANCH   1  20
BRANCH   8  21
ATOM     21  C   UNL     1       2.017   8.171  18.879  0.00  0.00    +0.000 A 
ATOM     22  C   UNL     1       2.304   7.251  17.870  0.00  0.00    +0.000 A 
ATOM     23  C   UNL     1       2.448   5.895  18.133  0.00  0.00    +0.000 A 
ATOM     24  C   UNL     1       2.333   5.406  19.433  0.00  0.00    +0.000 A 
ATOM     25  C   UNL     1       2.063   6.309  20.463  0.00  0.00    +0.000 A 
ATOM     26  C   UNL     1       1.901   7.680  20.185  0.00  0.00    +0.000 A 
BRANCH  24  27
ATOM     27  O   UNL     1       2.470   4.078  19.774  0.00  0.00    +0.000 OA
BRANCH  27  28
ATOM     28  C   UNL     1       3.646   3.479  19.215  0.00  0.00    +0.000 C 
BRANCH  28  29
ATOM     29  C   UNL     1       4.928   4.254  19.527  0.00  0.00    +0.000 C 
BRANCH  29  30
ATOM     30  N   UNL     1       5.755   4.458  18.319  0.00  0.00    +0.000 NA
ATOM     31  C   UNL     1       6.184   5.865  18.209  0.00  0.00    +0.000 C 
ATOM     32  C   UNL     1       7.036   6.126  16.941  0.00  0.00    +0.000 C 
ATOM     33  N   UNL     1       6.424   5.695  15.668  0.00  0.00    +0.000 NA
ATOM     34  C   UNL     1       5.342   6.585  15.255  0.00  0.00    +0.000 C 
ATOM     35  C   UNL     1       5.954   4.307  15.813  0.00  0.00    +0.000 C 
ATOM     36  C   UNL     1       5.087   4.043  17.067  0.00  0.00    +0.000 C 
ENDBRANCH  29  30
ENDBRANCH  28  29
ENDBRANCH  27  28
ENDBRANCH  24  27
ENDBRANCH   8  21
TORSDOF 6
ENDMDL
MODEL 5
REMARK VINA RESULT:      -8.0      1.432      2.430
REMARK  Name = 
REMARK  10 active torsions:
REMARK  status: ('A' for Active; 'I' for Inactive)
REMARK    1  A    between atoms: C_1  and  C_2
REMARK    2  A    between atoms: C_5  and  C_6
REMARK    3  A    between atoms: C_7  and  C_8
REMARK    4  A    between atoms: C_10  and  C_11
REMARK    5  A    between atoms: N_15  and  C_16
REMARK    6  A    between atoms: C_19  and  O_20
REMARK    7  A    between atoms: O_20  and  C_21
REMARK    8  A    between atoms: C_21  and  C_22
REMARK    9  A    between atoms: C_22  and  N_23
REMARK   10  A    between atoms: N_26  and  C_27
REMARK                            x       y       z     vdW  Elec       q    Type
REMARK                         _______ _______ _______ _____ _____    ______ ____
ROOT
ATOM      1  C   UNL     1       2.497   6.119  19.665  0.00  0.00    +0.000 A 
ATOM      2  C   UNL     1       1.902   6.728  20.771  0.00  0.00    +0.000 A 
ATOM      3  C   UNL     1       1.446   8.052  20.710  0.00  0.00    +0.000 A 
ATOM      4  C   UNL     1       0.768   8.664  21.908  0.00  0.00    +0.000 C 
ATOM      5  C   UNL     1       1.622   8.799  19.542  0.00  0.00    +0.000 A 
ATOM      6  N   UNL     1       1.207  10.067  19.503  0.00  0.00    +0.000 NA
ATOM      7  C   UNL     1       1.395  10.784  18.383  0.00  0.00    +0.000 A 
ATOM      8  N   UNL     1       0.952  12.107  18.334  0.00  0.00    +0.000 N 
ATOM      9  N   UNL     1       1.972  10.246  17.294  0.00  0.00    +0.000 NA
ATOM     10  N   UNL     1       2.397   8.942  17.321  0.00  0.00    +0.000 NA
ATOM     11  C   UNL     1       2.229   8.210  18.432  0.00  0.00    +0.000 A 
ATOM     12  C   UNL     1       2.634   6.882  18.497  0.00  0.00    +0.000 A 
ATOM     13  H   UNL     1       1.008  12.498  17.408  0.00  0.00    +0.000 HD
ENDROOT
BRANCH   1  20
ATOM     14  C   UNL     1       5.543   4.795  19.255  0.00  0.00    +0.000 C 
ATOM     15  C   UNL     1       4.237   4.150  19.539  0.00  0.00    +0.000 A 
ATOM     16  N   UNL     1       4.197   2.818  19.669  0.00  0.00    +0.000 NA
ATOM     17  O   UNL     1       2.887   2.505  19.947  0.00  0.00    +0.000 OA
ATOM     18  C   UNL     1       2.135   3.635  19.981  0.00  0.00    +0.000 A 
ATOM     19  C   UNL     1       0.701   3.417  20.254  0.00  0.00    +0.000 C 
ATOM     20  C   UNL     1       2.944   4.733  19.726  0.00  0.00    +0.000 A 
ENDBRANCH   1  20
BRANCH   8  21
ATOM     21  C   UNL     1       0.521  12.933  19.382  0.00  0.00    +0.000 A 
ATOM     22  C   UNL     1      -0.537  13.828  19.219  0.00  0.00    +0.000 A 
ATOM     23  C   UNL     1      -0.887  14.738  20.207  0.00  0.00    +0.000 A 
ATOM     24  C   UNL     1      -0.200  14.771  21.419  0.00  0.00    +0.000 A 
ATOM     25  C   UNL     1       0.852  13.874  21.614  0.00  0.00    +0.000 A 
ATOM     26  C   UNL     1       1.212  12.967  20.599  0.00  0.00    +0.000 A 
BRANCH  24  27
ATOM     27  O   UNL     1      -0.492  15.638  22.450  0.00  0.00    +0.000 OA
BRANCH  27  28
ATOM     28  C   UNL     1      -1.817  16.179  22.361  0.00  0.00    +0.000 C 
BRANCH  28  29
ATOM     29  C   UNL     1      -2.701  15.816  23.555  0.00  0.00    +0.000 C 
BRANCH  29  30
ATOM     30  N   UNL     1      -3.211  14.431  23.460  0.00  0.00    +0.000 NA
ATOM     31  C   UNL     1      -4.224  14.318  22.393  0.00  0.00    +0.000 C 
ATOM     32  C   UNL     1      -4.801  12.885  22.275  0.00  0.00    +0.000 C 
ATOM     33  N   UNL     1      -5.336  12.315  23.528  0.00  0.00    +0.000 NA
ATOM     34  C   UNL     1      -6.615  12.915  23.897  0.00  0.00    +0.000 C 
ATOM     35  C   UNL     1      -4.335  12.484  24.594  0.00  0.00    +0.000 C 
ATOM     36  C   UNL     1      -3.768  13.917  24.729  0.00  0.00    +0.000 C 
ENDBRANCH  29  30
ENDBRANCH  28  29
ENDBRANCH  27  28
ENDBRANCH  24  27
ENDBRANCH   8  21
TORSDOF 6
ENDMDL
MODEL 6
REMARK VINA RESULT:      -8.0      2.082     11.250
REMARK  Name = 
REMARK  10 active torsions:
REMARK  status: ('A' for Active; 'I' for Inactive)
REMARK    1  A    between atoms: C_1  and  C_2
REMARK    2  A    between atoms: C_5  and  C_6
REMARK    3  A    between atoms: C_7  and  C_8
REMARK    4  A    between atoms: C_10  and  C_11
REMARK    5  A    between atoms: N_15  and  C_16
REMARK    6  A    between atoms: C_19  and  O_20
REMARK    7  A    between atoms: O_20  and  C_21
REMARK    8  A    between atoms: C_21  and  C_22
REMARK    9  A    between atoms: C_22  and  N_23
REMARK   10  A    between atoms: N_26  and  C_27
REMARK                            x       y       z     vdW  Elec       q    Type
REMARK                         _______ _______ _______ _____ _____    ______ ____
ROOT
ATOM      1  C   UNL     1      -2.622  13.712  22.514  0.00  0.00    +0.000 A 
ATOM      2  C   UNL     1      -2.176  12.503  23.050  0.00  0.00    +0.000 A 
ATOM      3  C   UNL     1      -1.308  11.669  22.331  0.00  0.00    +0.000 A 
ATOM      4  C   UNL     1      -0.810  10.393  22.957  0.00  0.00    +0.000 C 
ATOM      5  C   UNL     1      -0.911  12.021  21.038  0.00  0.00    +0.000 A 
ATOM      6  N   UNL     1      -0.106  11.208  20.352  0.00  0.00    +0.000 NA
ATOM      7  C   UNL     1       0.258  11.544  19.105  0.00  0.00    +0.000 A 
ATOM      8  N   UNL     1       1.110  10.701  18.387  0.00  0.00    +0.000 N 
ATOM      9  N   UNL     1      -0.153  12.693  18.540  0.00  0.00    +0.000 NA
ATOM     10  N   UNL     1      -0.975  13.540  19.237  0.00  0.00    +0.000 NA
ATOM     11  C   UNL     1      -1.360  13.219  20.481  0.00  0.00    +0.000 A 
ATOM     12  C   UNL     1      -2.183  14.055  21.227  0.00  0.00    +0.000 A 
ATOM     13  H   UNL     1       1.434  11.119  17.530  0.00  0.00    +0.000 HD
ENDROOT
BRANCH   1  20
ATOM     14  C   UNL     1      -5.923  13.559  23.042  0.00  0.00    +0.000 C 
ATOM     15  C   UNL     1      -4.913  14.546  23.501  0.00  0.00    +0.000 A 
ATOM     16  N   UNL     1      -5.320  15.570  24.260  0.00  0.00    +0.000 NA
ATOM     17  O   UNL     1      -4.190  16.297  24.551  0.00  0.00    +0.000 OA
ATOM     18  C   UNL     1      -3.105  15.723  23.971  0.00  0.00    +0.000 A 
ATOM     19  C   UNL     1      -1.831  16.432  24.202  0.00  0.00    +0.000 C 
ATOM     20  C   UNL     1      -3.500  14.588  23.278  0.00  0.00    +0.000 A 
ENDBRANCH   1  20
BRANCH   8  21
ATOM     21  C   UNL     1       1.495   9.384  18.675  0.00  0.00    +0.000 A 
ATOM     22  C   UNL     1       1.259   8.810  19.925  0.00  0.00    +0.000 A 
ATOM     23  C   UNL     1       1.750   7.555  20.260  0.00  0.00    +0.000 A 
ATOM     24  C   UNL     1       2.482   6.809  19.339  0.00  0.00    +0.000 A 
ATOM     25  C   UNL     1       2.718   7.353  18.076  0.00  0.00    +0.000 A 
ATOM     26  C   UNL     1       2.232   8.634  17.750  0.00  0.00    +0.000 A 
BRANCH  24  27
ATOM     27  O   UNL     1       2.995   5.555  19.595  0.00  0.00    +0.000 OA
BRANCH  27  28
ATOM     28  C   UNL     1       2.670   4.603  18.573  0.00  0.00    +0.000 C 
BRANCH  28  29
ATOM     29  C   UNL     1       3.644   3.426  18.508  0.00  0.00    +0.000 C 
BRANCH  29  30
ATOM     30  N   UNL     1       4.905   3.792  17.827  0.00  0.00    +0.000 NA
ATOM     31  C   UNL     1       5.829   4.461  18.762  0.00  0.00    +0.000 C 
ATOM     32  C   UNL     1       7.156   4.883  18.081  0.00  0.00    +0.000 C 
ATOM     33  N   UNL     1       7.007   5.702  16.861  0.00  0.00    +0.000 NA
ATOM     34  C   UNL     1       6.606   7.071  17.169  0.00  0.00    +0.000 C 
ATOM     35  C   UNL     1       6.041   5.047  15.963  0.00  0.00    +0.000 C 
ATOM     36  C   UNL     1       4.707   4.640  16.632  0.00  0.00    +0.000 C 
ENDBRANCH  29  30
ENDBRANCH  28  29
ENDBRANCH  27  28
ENDBRANCH  24  27
ENDBRANCH   8  21
TORSDOF 6
ENDMDL
MODEL 7
REMARK VINA RESULT:      -8.0      2.074     11.044
REMARK  Name = 
REMARK  10 active torsions:
REMARK  status: ('A' for Active; 'I' for Inactive)
REMARK    1  A    between atoms: C_1  and  C_2
REMARK    2  A    between atoms: C_5  and  C_6
REMARK    3  A    between atoms: C_7  and  C_8
REMARK    4  A    between atoms: C_10  and  C_11
REMARK    5  A    between atoms: N_15  and  C_16
REMARK    6  A    between atoms: C_19  and  O_20
REMARK    7  A    between atoms: O_20  and  C_21
REMARK    8  A    between atoms: C_21  and  C_22
REMARK    9  A    between atoms: C_22  and  N_23
REMARK   10  A    between atoms: N_26  and  C_27
REMARK                            x       y       z     vdW  Elec       q    Type
REMARK                         _______ _______ _______ _____ _____    ______ ____
ROOT
ATOM      1  C   UNL     1      -1.464  12.895  22.430  0.00  0.00    +0.000 A 
ATOM      2  C   UNL     1      -1.318  11.619  22.975  0.00  0.00    +0.000 A 
ATOM      3  C   UNL     1      -0.586  10.626  22.308  0.00  0.00    +0.000 A 
ATOM      4  C   UNL     1      -0.410   9.273  22.946  0.00  0.00    +0.000 C 
ATOM      5  C   UNL     1      -0.025  10.893  21.057  0.00  0.00    +0.000 A 
ATOM      6  N   UNL     1       0.648   9.934  20.418  0.00  0.00    +0.000 NA
ATOM      7  C   UNL     1       1.170  10.192  19.209  0.00  0.00    +0.000 A 
ATOM      8  N   UNL     1       1.885   9.195  18.542  0.00  0.00    +0.000 N 
ATOM      9  N   UNL     1       1.048  11.403  18.636  0.00  0.00    +0.000 NA
ATOM     10  N   UNL     1       0.364  12.398  19.285  0.00  0.00    +0.000 NA
ATOM     11  C   UNL     1      -0.175  12.160  20.490  0.00  0.00    +0.000 A 
ATOM     12  C   UNL     1      -0.865  13.145  21.187  0.00  0.00    +0.000 A 
ATOM     13  H   UNL     1       2.354   9.540  17.721  0.00  0.00    +0.000 HD
ENDROOT
BRANCH   1  20
ATOM     14  C   UNL     1      -4.675  13.026  23.363  0.00  0.00    +0.000 C 
ATOM     15  C   UNL     1      -3.576  14.009  23.534  0.00  0.00    +0.000 A 
ATOM     16  N   UNL     1      -3.841  15.161  24.161  0.00  0.00    +0.000 NA
ATOM     17  O   UNL     1      -2.654  15.855  24.195  0.00  0.00    +0.000 OA
ATOM     18  C   UNL     1      -1.676  15.132  23.591  0.00  0.00    +0.000 A 
ATOM     19  C   UNL     1      -0.355  15.790  23.552  0.00  0.00    +0.000 C 
ATOM     20  C   UNL     1      -2.202  13.930  23.141  0.00  0.00    +0.000 A 
ENDBRANCH   1  20
BRANCH   8  21
ATOM     21  C   UNL     1       1.969   7.826  18.833  0.00  0.00    +0.000 A 
ATOM     22  C   UNL     1       1.938   7.354  20.146  0.00  0.00    +0.000 A 
ATOM     23  C   UNL     1       2.149   6.016  20.451  0.00  0.00    +0.000 A 
ATOM     24  C   UNL     1       2.377   5.084  19.439  0.00  0.00    +0.000 A 
ATOM     25  C   UNL     1       2.396   5.528  18.116  0.00  0.00    +0.000 A 
ATOM     26  C   UNL     1       2.199   6.890  17.818  0.00  0.00    +0.000 A 
BRANCH  24  27
ATOM     27  O   UNL     1       2.588   3.740  19.661  0.00  0.00    +0.000 OA
BRANCH  27  28
ATOM     28  C   UNL     1       3.679   3.216  18.893  0.00  0.00    +0.000 C 
BRANCH  28  29
ATOM     29  C   UNL     1       5.049   3.678  19.392  0.00  0.00    +0.000 C 
BRANCH  29  30
ATOM     30  N   UNL     1       5.899   4.171  18.287  0.00  0.00    +0.000 NA
ATOM     31  C   UNL     1       6.097   5.629  18.389  0.00  0.00    +0.000 C 
ATOM     32  C   UNL     1       6.964   6.190  17.234  0.00  0.00    +0.000 C 
ATOM     33  N   UNL     1       6.505   5.847  15.873  0.00  0.00    +0.000 NA
ATOM     34  C   UNL     1       5.317   6.606  15.492  0.00  0.00    +0.000 C 
ATOM     35  C   UNL     1       6.261   4.396  15.805  0.00  0.00    +0.000 C 
ATOM     36  C   UNL     1       5.379   3.832  16.945  0.00  0.00    +0.000 C 
ENDBRANCH  29  30
ENDBRANCH  28  29
ENDBRANCH  27  28
ENDBRANCH  24  27
ENDBRANCH   8  21
TORSDOF 6
ENDMDL
MODEL 8
REMARK VINA RESULT:      -8.0      1.016      1.173
REMARK  Name = 
REMARK  10 active torsions:
REMARK  status: ('A' for Active; 'I' for Inactive)
REMARK    1  A    between atoms: C_1  and  C_2
REMARK    2  A    between atoms: C_5  and  C_6
REMARK    3  A    between atoms: C_7  and  C_8
REMARK    4  A    between atoms: C_10  and  C_11
REMARK    5  A    between atoms: N_15  and  C_16
REMARK    6  A    between atoms: C_19  and  O_20
REMARK    7  A    between atoms: O_20  and  C_21
REMARK    8  A    between atoms: C_21  and  C_22
REMARK    9  A    between atoms: C_22  and  N_23
REMARK   10  A    between atoms: N_26  and  C_27
REMARK                            x       y       z     vdW  Elec       q    Type
REMARK                         _______ _______ _______ _____ _____    ______ ____
ROOT
ATOM      1  C   UNL     1       2.693   6.024  19.644  0.00  0.00    +0.000 A 
ATOM      2  C   UNL     1       1.974   6.508  20.739  0.00  0.00    +0.000 A 
ATOM      3  C   UNL     1       1.381   7.778  20.710  0.00  0.00    +0.000 A 
ATOM      4  C   UNL     1       0.574   8.252  21.890  0.00  0.00    +0.000 C 
ATOM      5  C   UNL     1       1.542   8.600  19.591  0.00  0.00    +0.000 A 
ATOM      6  N   UNL     1       0.996   9.818  19.584  0.00  0.00    +0.000 NA
ATOM      7  C   UNL     1       1.168  10.608  18.513  0.00  0.00    +0.000 A 
ATOM      8  N   UNL     1       0.589  11.878  18.496  0.00  0.00    +0.000 N 
ATOM      9  N   UNL     1       1.861  10.191  17.438  0.00  0.00    +0.000 NA
ATOM     10  N   UNL     1       2.422   8.940  17.431  0.00  0.00    +0.000 NA
ATOM     11  C   UNL     1       2.271   8.137  18.495  0.00  0.00    +0.000 A 
ATOM     12  C   UNL     1       2.813   6.857  18.524  0.00  0.00    +0.000 A 
ATOM     13  H   UNL     1       0.655  12.321  17.595  0.00  0.00    +0.000 HD
ENDROOT
BRANCH   1  20
ATOM     14  C   UNL     1       1.288   3.033  20.180  0.00  0.00    +0.000 C 
ATOM     15  C   UNL     1       2.700   3.407  19.912  0.00  0.00    +0.000 A 
ATOM     16  N   UNL     1       3.619   2.435  19.858  0.00  0.00    +0.000 NA
ATOM     17  O   UNL     1       4.812   3.058  19.577  0.00  0.00    +0.000 OA
ATOM     18  C   UNL     1       4.622   4.398  19.466  0.00  0.00    +0.000 A 
ATOM     19  C   UNL     1       5.845   5.175  19.182  0.00  0.00    +0.000 C 
ATOM     20  C   UNL     1       3.282   4.691  19.670  0.00  0.00    +0.000 A 
ENDBRANCH   1  20
BRANCH   8  21
ATOM     21  C   UNL     1       0.012  12.598  19.552  0.00  0.00    +0.000 A 
ATOM     22  C   UNL     1      -0.097  12.056  20.833  0.00  0.00    +0.000 A 
ATOM     23  C   UNL     1      -0.780  12.708  21.851  0.00  0.00    +0.000 A 
ATOM     24  C   UNL     1      -1.365  13.954  21.630  0.00  0.00    +0.000 A 
ATOM     25  C   UNL     1      -1.256  14.525  20.361  0.00  0.00    +0.000 A 
ATOM     26  C   UNL     1      -0.578  13.849  19.330  0.00  0.00    +0.000 A 
BRANCH  24  27
ATOM     27  O   UNL     1      -2.052  14.665  22.589  0.00  0.00    +0.000 OA
BRANCH  27  28
ATOM     28  C   UNL     1      -3.387  14.998  22.184  0.00  0.00    +0.000 C 
BRANCH  28  29
ATOM     29  C   UNL     1      -4.395  13.876  22.436  0.00  0.00    +0.000 C 
BRANCH  29  30
ATOM     30  N   UNL     1      -5.257  13.637  21.259  0.00  0.00    +0.000 NA
ATOM     31  C   UNL     1      -6.624  13.271  21.676  0.00  0.00    +0.000 C 
ATOM     32  C   UNL     1      -7.555  12.988  20.470  0.00  0.00    +0.000 C 
ATOM     33  N   UNL     1      -7.050  11.995  19.501  0.00  0.00    +0.000 NA
ATOM     34  C   UNL     1      -7.136  10.634  20.022  0.00  0.00    +0.000 C 
ATOM     35  C   UNL     1      -5.668  12.346  19.136  0.00  0.00    +0.000 C 
ATOM     36  C   UNL     1      -4.728  12.610  20.336  0.00  0.00    +0.000 C 
ENDBRANCH  29  30
ENDBRANCH  28  29
ENDBRANCH  27  28
ENDBRANCH  24  27
ENDBRANCH   8  21
TORSDOF 6
ENDMDL
MODEL 9
REMARK VINA RESULT:      -8.0      1.197      2.104
REMARK  Name = 
REMARK  10 active torsions:
REMARK  status: ('A' for Active; 'I' for Inactive)
REMARK    1  A    between atoms: C_1  and  C_2
REMARK    2  A    between atoms: C_5  and  C_6
REMARK    3  A    between atoms: C_7  and  C_8
REMARK    4  A    between atoms: C_10  and  C_11
REMARK    5  A    between atoms: N_15  and  C_16
REMARK    6  A    between atoms: C_19  and  O_20
REMARK    7  A    between atoms: O_20  and  C_21
REMARK    8  A    between atoms: C_21  and  C_22
REMARK    9  A    between atoms: C_22  and  N_23
REMARK   10  A    between atoms: N_26  and  C_27
REMARK                            x       y       z     vdW  Elec       q    Type
REMARK                         _______ _______ _______ _____ _____    ______ ____
ROOT
ATOM      1  C   UNL     1       2.451   6.301  19.697  0.00  0.00    +0.000 A 
ATOM      2  C   UNL     1       1.854   6.883  20.816  0.00  0.00    +0.000 A 
ATOM      3  C   UNL     1       1.369   8.198  20.777  0.00  0.00    +0.000 A 
ATOM      4  C   UNL     1       0.689   8.780  21.988  0.00  0.00    +0.000 C 
ATOM      5  C   UNL     1       1.520   8.964  19.618  0.00  0.00    +0.000 A 
ATOM      6  N   UNL     1       1.079  10.224  19.598  0.00  0.00    +0.000 NA
ATOM      7  C   UNL     1       1.242  10.959  18.487  0.00  0.00    +0.000 A 
ATOM      8  N   UNL     1       0.772  12.274  18.459  0.00  0.00    +0.000 N 
ATOM      9  N   UNL     1       1.821  10.448  17.387  0.00  0.00    +0.000 NA
ATOM     10  N   UNL     1       2.273   9.153  17.392  0.00  0.00    +0.000 NA
ATOM     11  C   UNL     1       2.130   8.403  18.495  0.00  0.00    +0.000 A 
ATOM     12  C   UNL     1       2.563   7.083  18.538  0.00  0.00    +0.000 A 
ATOM     13  H   UNL     1       0.812  12.678  17.538  0.00  0.00    +0.000 HD
ENDROOT
BRANCH   1  20
ATOM     14  C   UNL     1       5.508   5.040  19.183  0.00  0.00    +0.000 C 
ATOM     15  C   UNL     1       4.224   4.368  19.505  0.00  0.00    +0.000 A 
ATOM     16  N   UNL     1       4.215   3.035  19.629  0.00  0.00    +0.000 NA
ATOM     17  O   UNL     1       2.921   2.695  19.946  0.00  0.00    +0.000 OA
ATOM     18  C   UNL     1       2.149   3.810  20.010  0.00  0.00    +0.000 A 
ATOM     19  C   UNL     1       0.729   3.562  20.328  0.00  0.00    +0.000 C 
ATOM     20  C   UNL     1       2.927   4.925  19.737  0.00  0.00    +0.000 A 
ENDBRANCH   1  20
BRANCH   8  21
ATOM     21  C   UNL     1       0.332  13.076  19.521  0.00  0.00    +0.000 A 
ATOM     22  C   UNL     1       1.211  13.534  20.504  0.00  0.00    +0.000 A 
ATOM     23  C   UNL     1       0.765  14.219  21.626  0.00  0.00    +0.000 A 
ATOM     24  C   UNL     1      -0.590  14.498  21.797  0.00  0.00    +0.000 A 
ATOM     25  C   UNL     1      -1.487  14.066  20.820  0.00  0.00    +0.000 A 
ATOM     26  C   UNL     1      -1.029  13.355  19.694  0.00  0.00    +0.000 A 
BRANCH  24  27
ATOM     27  O   UNL     1      -1.108  15.178  22.878  0.00  0.00    +0.000 OA
BRANCH  27  28
ATOM     28  C   UNL     1      -1.381  14.321  23.994  0.00  0.00    +0.000 C 
BRANCH  28  29
ATOM     29  C   UNL     1      -2.288  14.964  25.045  0.00  0.00    +0.000 C 
BRANCH  29  30
ATOM     30  N   UNL     1      -3.709  14.616  24.832  0.00  0.00    +0.000 NA
ATOM     31  C   UNL     1      -3.839  13.238  24.321  0.00  0.00    +0.000 C 
ATOM     32  C   UNL     1      -5.314  12.840  24.062  0.00  0.00    +0.000 C 
ATOM     33  N   UNL     1      -6.074  13.763  23.195  0.00  0.00    +0.000 NA
ATOM     34  C   UNL     1      -5.683  13.640  21.793  0.00  0.00    +0.000 C 
ATOM     35  C   UNL     1      -5.890  15.139  23.687  0.00  0.00    +0.000 C 
ATOM     36  C   UNL     1      -4.417  15.549  23.930  0.00  0.00    +0.000 C 
ENDBRANCH  29  30
ENDBRANCH  28  29
ENDBRANCH  27  28
ENDBRANCH  24  27
ENDBRANCH   8  21
TORSDOF 6
ENDMDL
