MODEL 1
REMARK VINA RESULT:      -7.4      0.000      0.000
REMARK  Name = 
REMARK  4 active torsions:
REMARK  status: ('A' for Active; 'I' for Inactive)
REMARK    1  A    between atoms: C_1  and  C_2
REMARK    2  A    between atoms: C_8  and  C_9
REMARK    3  A    between atoms: N_14  and  C_15
REMARK    4  A    between atoms: N_21  and  C_22
REMARK                            x       y       z     vdW  Elec       q    Type
REMARK                         _______ _______ _______ _____ _____    ______ ____
ROOT
ATOM      1  C   UNL     1       2.030   8.630  18.374  0.00  0.00    +0.000 C 
ATOM      2  O   UNL     1       2.792   8.890  17.428  0.00  0.00    +0.000 OA
ATOM      3  N   UNL     1       1.302   9.718  18.941  0.00  0.00    +0.000 N 
ATOM      4  C   UNL     1       1.896  10.988  18.397  0.00  0.00    +0.000 C 
ATOM      5  C   UNL     1       1.232  12.175  19.095  0.00  0.00    +0.000 C 
ATOM      6  N   UNL     1      -0.161  12.672  19.359  0.00  0.00    +0.000 NA
ATOM      7  C   UNL     1      -0.725  12.797  17.917  0.00  0.00    +0.000 C 
ATOM      8  C   UNL     1      -0.879  11.514  20.157  0.00  0.00    +0.000 C 
ATOM      9  C   UNL     1      -2.415  11.843  19.890  0.00  0.00    +0.000 C 
ATOM     10  C   UNL     1      -2.854  13.209  20.521  0.00  0.00    +0.000 C 
ATOM     11  C   UNL     1      -3.701  12.959  21.757  0.00  0.00    +0.000 C 
ATOM     12  O   UNL     1      -4.911  13.187  21.762  0.00  0.00    +0.000 OA
ATOM     13  N   UNL     1      -2.988  12.442  22.815  0.00  0.00    +0.000 N 
ATOM     14  C   UNL     1      -3.691  12.309  24.087  0.00  0.00    +0.000 C 
ATOM     15  C   UNL     1      -1.518  12.405  22.790  0.00  0.00    +0.000 C 
ATOM     16  C   UNL     1      -0.855  11.440  21.773  0.00  0.00    +0.000 C 
ATOM     17  C   UNL     1      -0.095   9.877  19.809  0.00  0.00    +0.000 C 
ENDROOT
BRANCH   1  25
ATOM     18  C   UNL     1       1.705   7.912  21.303  0.00  0.00    +0.000 C 
ATOM     19  C   UNL     1       1.908   6.867  20.220  0.00  0.00    +0.000 A 
ATOM     20  C   UNL     1       1.710   5.529  20.614  0.00  0.00    +0.000 A 
ATOM     21  C   UNL     1       1.768   4.500  19.693  0.00  0.00    +0.000 A 
ATOM     22  F   UNL     1       1.529   3.246  20.062  0.00  0.00    +0.000 F 
ATOM     23  C   UNL     1       1.989   4.797  18.345  0.00  0.00    +0.000 A 
ATOM     24  C   UNL     1       2.193   6.149  17.926  0.00  0.00    +0.000 A 
ATOM     25  C   UNL     1       2.160   7.205  18.843  0.00  0.00    +0.000 A 
ENDBRANCH   1  25
TORSDOF 1
ENDMDL
MODEL 2
REMARK VINA RESULT:      -7.3      3.908      9.007
REMARK  Name = 
REMARK  4 active torsions:
REMARK  status: ('A' for Active; 'I' for Inactive)
REMARK    1  A    between atoms: C_1  and  C_2
REMARK    2  A    between atoms: C_8  and  C_9
REMARK    3  A    between atoms: N_14  and  C_15
REMARK    4  A    between atoms: N_21  and  C_22
REMARK                            x       y       z     vdW  Elec       q    Type
REMARK                         _______ _______ _______ _____ _____    ______ ____
ROOT
ATOM      1  C   UNL     1       0.599   8.952  20.409  0.00  0.00    +0.000 C 
ATOM      2  O   UNL     1      -0.303   8.748  21.239  0.00  0.00    +0.000 OA
ATOM      3  N   UNL     1       1.467   7.860  20.110  0.00  0.00    +0.000 N 
ATOM      4  C   UNL     1       1.217   6.793  21.140  0.00  0.00    +0.000 C 
ATOM      5  C   UNL     1       2.232   5.669  20.934  0.00  0.00    +0.000 C 
ATOM      6  N   UNL     1       2.707   4.792  19.811  0.00  0.00    +0.000 NA
ATOM      7  C   UNL     1       1.384   4.108  19.370  0.00  0.00    +0.000 C 
ATOM      8  C   UNL     1       3.238   5.779  18.699  0.00  0.00    +0.000 C 
ATOM      9  C   UNL     1       3.169   4.866  17.396  0.00  0.00    +0.000 C 
ATOM     10  C   UNL     1       4.148   3.644  17.466  0.00  0.00    +0.000 C 
ATOM     11  C   UNL     1       5.339   3.883  16.553  0.00  0.00    +0.000 C 
ATOM     12  O   UNL     1       5.483   3.245  15.509  0.00  0.00    +0.000 OA
ATOM     13  N   UNL     1       6.183   4.874  17.000  0.00  0.00    +0.000 N 
ATOM     14  C   UNL     1       7.427   5.068  16.262  0.00  0.00    +0.000 C 
ATOM     15  C   UNL     1       6.048   5.427  18.356  0.00  0.00    +0.000 C 
ATOM     16  C   UNL     1       4.780   6.269  18.651  0.00  0.00    +0.000 C 
ATOM     17  C   UNL     1       2.441   7.441  18.844  0.00  0.00    +0.000 C 
ENDROOT
BRANCH   1  25
ATOM     18  C   UNL     1      -0.727   9.939  17.866  0.00  0.00    +0.000 C 
ATOM     19  C   UNL     1      -0.027  10.870  18.840  0.00  0.00    +0.000 A 
ATOM     20  C   UNL     1      -0.221  12.248  18.619  0.00  0.00    +0.000 A 
ATOM     21  C   UNL     1       0.282  13.187  19.500  0.00  0.00    +0.000 A 
ATOM     22  F   UNL     1       0.051  14.483  19.312  0.00  0.00    +0.000 F 
ATOM     23  C   UNL     1       0.961  12.762  20.644  0.00  0.00    +0.000 A 
ATOM     24  C   UNL     1       1.168  11.367  20.885  0.00  0.00    +0.000 A 
ATOM     25  C   UNL     1       0.687  10.398  19.998  0.00  0.00    +0.000 A 
ENDBRANCH   1  25
TORSDOF 1
ENDMDL
MODEL 3
REMARK VINA RESULT:      -7.3      3.853      5.364
REMARK  Name = 
REMARK  4 active torsions:
REMARK  status: ('A' for Active; 'I' for Inactive)
REMARK    1  A    between atoms: C_1  and  C_2
REMARK    2  A    between atoms: C_8  and  C_9
REMARK    3  A    between atoms: N_14  and  C_15
REMARK    4  A    between atoms: N_21  and  C_22
REMARK                            x       y       z     vdW  Elec       q    Type
REMARK                         _______ _______ _______ _____ _____    ______ ____
ROOT
ATOM      1  C   UNL     1       0.416  10.440  19.147  0.00  0.00    +0.000 C 
ATOM      2  O   UNL     1      -0.776  10.120  19.010  0.00  0.00    +0.000 OA
ATOM      3  N   UNL     1       0.722  11.834  19.120  0.00  0.00    +0.000 N 
ATOM      4  C   UNL     1      -0.503  12.553  18.626  0.00  0.00    +0.000 C 
ATOM      5  C   UNL     1      -0.161  14.032  18.449  0.00  0.00    +0.000 C 
ATOM      6  N   UNL     1       0.439  15.141  19.266  0.00  0.00    +0.000 NA
ATOM      7  C   UNL     1      -0.524  15.182  20.485  0.00  0.00    +0.000 C 
ATOM      8  C   UNL     1       1.872  14.629  19.686  0.00  0.00    +0.000 C 
ATOM      9  C   UNL     1       2.180  15.538  20.958  0.00  0.00    +0.000 C 
ATOM     10  C   UNL     1       2.296  17.059  20.594  0.00  0.00    +0.000 C 
ATOM     11  C   UNL     1       3.752  17.489  20.633  0.00  0.00    +0.000 C 
ATOM     12  O   UNL     1       4.178  18.226  21.523  0.00  0.00    +0.000 OA
ATOM     13  N   UNL     1       4.509  16.956  19.614  0.00  0.00    +0.000 N 
ATOM     14  C   UNL     1       5.883  17.433  19.490  0.00  0.00    +0.000 C 
ATOM     15  C   UNL     1       3.874  16.266  18.481  0.00  0.00    +0.000 C 
ATOM     16  C   UNL     1       3.184  14.910  18.781  0.00  0.00    +0.000 C 
ATOM     17  C   UNL     1       1.948  12.782  19.690  0.00  0.00    +0.000 C 
ENDROOT
BRANCH   1  25
ATOM     18  C   UNL     1       0.812   8.787  21.658  0.00  0.00    +0.000 C 
ATOM     19  C   UNL     1       1.439   8.417  20.325  0.00  0.00    +0.000 A 
ATOM     20  C   UNL     1       2.030   7.140  20.259  0.00  0.00    +0.000 A 
ATOM     21  C   UNL     1       2.541   6.653  19.071  0.00  0.00    +0.000 A 
ATOM     22  F   UNL     1       3.051   5.427  19.004  0.00  0.00    +0.000 F 
ATOM     23  C   UNL     1       2.438   7.426  17.911  0.00  0.00    +0.000 A 
ATOM     24  C   UNL     1       1.841   8.725  17.959  0.00  0.00    +0.000 A 
ATOM     25  C   UNL     1       1.336   9.247  19.154  0.00  0.00    +0.000 A 
ENDBRANCH   1  25
TORSDOF 1
ENDMDL
MODEL 4
REMARK VINA RESULT:      -7.2      3.456      8.155
REMARK  Name = 
REMARK  4 active torsions:
REMARK  status: ('A' for Active; 'I' for Inactive)
REMARK    1  A    between atoms: C_1  and  C_2
REMARK    2  A    between atoms: C_8  and  C_9
REMARK    3  A    between atoms: N_14  and  C_15
REMARK    4  A    between atoms: N_21  and  C_22
REMARK                            x       y       z     vdW  Elec       q    Type
REMARK                         _______ _______ _______ _____ _____    ______ ____
ROOT
ATOM      1  C   UNL     1       1.053  10.230  19.605  0.00  0.00    +0.000 C 
ATOM      2  O   UNL     1       1.394  11.259  18.998  0.00  0.00    +0.000 OA
ATOM      3  N   UNL     1       1.597   8.993  19.145  0.00  0.00    +0.000 N 
ATOM      4  C   UNL     1       2.242   9.255  17.811  0.00  0.00    +0.000 C 
ATOM      5  C   UNL     1       2.709   7.922  17.226  0.00  0.00    +0.000 C 
ATOM      6  N   UNL     1       3.545   6.750  17.656  0.00  0.00    +0.000 NA
ATOM      7  C   UNL     1       4.896   7.439  17.989  0.00  0.00    +0.000 C 
ATOM      8  C   UNL     1       2.850   6.191  18.959  0.00  0.00    +0.000 C 
ATOM      9  C   UNL     1       4.045   5.389  19.643  0.00  0.00    +0.000 C 
ATOM     10  C   UNL     1       4.517   4.167  18.783  0.00  0.00    +0.000 C 
ATOM     11  C   UNL     1       4.032   2.873  19.414  0.00  0.00    +0.000 C 
ATOM     12  O   UNL     1       4.814   2.096  19.964  0.00  0.00    +0.000 OA
ATOM     13  N   UNL     1       2.670   2.697  19.327  0.00  0.00    +0.000 N 
ATOM     14  C   UNL     1       2.137   1.415  19.776  0.00  0.00    +0.000 C 
ATOM     15  C   UNL     1       1.849   3.565  18.469  0.00  0.00    +0.000 C 
ATOM     16  C   UNL     1       1.706   5.048  18.900  0.00  0.00    +0.000 C 
ATOM     17  C   UNL     1       1.864   7.504  19.808  0.00  0.00    +0.000 C 
ENDROOT
BRANCH   1  25
ATOM     18  C   UNL     1       1.313   9.191  22.442  0.00  0.00    +0.000 C 
ATOM     19  C   UNL     1       0.163  10.076  21.995  0.00  0.00    +0.000 A 
ATOM     20  C   UNL     1      -0.659  10.580  23.023  0.00  0.00    +0.000 A 
ATOM     21  C   UNL     1      -1.673  11.477  22.746  0.00  0.00    +0.000 A 
ATOM     22  F   UNL     1      -2.412  11.988  23.727  0.00  0.00    +0.000 F 
ATOM     23  C   UNL     1      -1.863  11.918  21.434  0.00  0.00    +0.000 A 
ATOM     24  C   UNL     1      -1.039  11.417  20.378  0.00  0.00    +0.000 A 
ATOM     25  C   UNL     1      -0.019  10.493  20.629  0.00  0.00    +0.000 A 
ENDBRANCH   1  25
TORSDOF 1
ENDMDL
MODEL 5
REMARK VINA RESULT:      -7.1      4.554      9.717
REMARK  Name = 
REMARK  4 active torsions:
REMARK  status: ('A' for Active; 'I' for Inactive)
REMARK    1  A    between atoms: C_1  and  C_2
REMARK    2  A    between atoms: C_8  and  C_9
REMARK    3  A    between atoms: N_14  and  C_15
REMARK    4  A    between atoms: N_21  and  C_22
REMARK                            x       y       z     vdW  Elec       q    Type
REMARK                         _______ _______ _______ _____ _____    ______ ____
ROOT
ATOM      1  C   UNL     1       1.933   7.241  19.794  0.00  0.00    +0.000 C 
ATOM      2  O   UNL     1       1.447   6.772  20.837  0.00  0.00    +0.000 OA
ATOM      3  N   UNL     1       2.924   6.459  19.130  0.00  0.00    +0.000 N 
ATOM      4  C   UNL     1       3.334   5.359  20.071  0.00  0.00    +0.000 C 
ATOM      5  C   UNL     1       4.497   4.590  19.445  0.00  0.00    +0.000 C 
ATOM      6  N   UNL     1       4.804   3.902  18.145  0.00  0.00    +0.000 NA
ATOM      7  C   UNL     1       3.656   2.858  18.068  0.00  0.00    +0.000 C 
ATOM      8  C   UNL     1       4.644   5.011  17.031  0.00  0.00    +0.000 C 
ATOM      9  C   UNL     1       4.411   4.127  15.727  0.00  0.00    +0.000 C 
ATOM     10  C   UNL     1       5.660   3.252  15.364  0.00  0.00    +0.000 C 
ATOM     11  C   UNL     1       6.369   3.841  14.156  0.00  0.00    +0.000 C 
ATOM     12  O   UNL     1       6.337   3.283  13.059  0.00  0.00    +0.000 OA
ATOM     13  N   UNL     1       7.000   5.036  14.420  0.00  0.00    +0.000 N 
ATOM     14  C   UNL     1       7.828   5.597  13.357  0.00  0.00    +0.000 C 
ATOM     15  C   UNL     1       7.168   5.514  15.800  0.00  0.00    +0.000 C 
ATOM     16  C   UNL     1       5.884   5.938  16.559  0.00  0.00    +0.000 C 
ATOM     17  C   UNL     1       3.507   6.358  17.588  0.00  0.00    +0.000 C 
ENDROOT
BRANCH   1  25
ATOM     18  C   UNL     1       0.754   8.944  22.010  0.00  0.00    +0.000 C 
ATOM     19  C   UNL     1       1.007   9.478  20.611  0.00  0.00    +0.000 A 
ATOM     20  C   UNL     1       0.878  10.872  20.454  0.00  0.00    +0.000 A 
ATOM     21  C   UNL     1       1.182  11.484  19.253  0.00  0.00    +0.000 A 
ATOM     22  F   UNL     1       1.107  12.806  19.127  0.00  0.00    +0.000 F 
ATOM     23  C   UNL     1       1.659  10.712  18.190  0.00  0.00    +0.000 A 
ATOM     24  C   UNL     1       1.796   9.296  18.330  0.00  0.00    +0.000 A 
ATOM     25  C   UNL     1       1.474   8.651  19.529  0.00  0.00    +0.000 A 
ENDBRANCH   1  25
TORSDOF 1
ENDMDL
MODEL 6
REMARK VINA RESULT:      -7.0      5.741      7.432
REMARK  Name = 
REMARK  4 active torsions:
REMARK  status: ('A' for Active; 'I' for Inactive)
REMARK    1  A    between atoms: C_1  and  C_2
REMARK    2  A    between atoms: C_8  and  C_9
REMARK    3  A    between atoms: N_14  and  C_15
REMARK    4  A    between atoms: N_21  and  C_22
REMARK                            x       y       z     vdW  Elec       q    Type
REMARK                         _______ _______ _______ _____ _____    ______ ____
ROOT
ATOM      1  C   UNL     1      -5.911  11.329  19.519  0.00  0.00    +0.000 C 
ATOM      2  O   UNL     1      -7.046  10.830  19.589  0.00  0.00    +0.000 OA
ATOM      3  N   UNL     1      -5.543  12.255  20.541  0.00  0.00    +0.000 N 
ATOM      4  C   UNL     1      -6.792  12.604  21.302  0.00  0.00    +0.000 C 
ATOM      5  C   UNL     1      -6.457  13.702  22.311  0.00  0.00    +0.000 C 
ATOM      6  N   UNL     1      -5.454  13.940  23.403  0.00  0.00    +0.000 NA
ATOM      7  C   UNL     1      -5.713  12.723  24.334  0.00  0.00    +0.000 C 
ATOM      8  C   UNL     1      -4.039  13.837  22.708  0.00  0.00    +0.000 C 
ATOM      9  C   UNL     1      -3.091  13.523  23.949  0.00  0.00    +0.000 C 
ATOM     10  C   UNL     1      -3.040  14.703  24.979  0.00  0.00    +0.000 C 
ATOM     11  C   UNL     1      -1.711  15.431  24.864  0.00  0.00    +0.000 C 
ATOM     12  O   UNL     1      -0.855  15.342  25.745  0.00  0.00    +0.000 OA
ATOM     13  N   UNL     1      -1.576  16.146  23.696  0.00  0.00    +0.000 N 
ATOM     14  C   UNL     1      -0.394  16.992  23.569  0.00  0.00    +0.000 C 
ATOM     15  C   UNL     1      -2.727  16.368  22.808  0.00  0.00    +0.000 C 
ATOM     16  C   UNL     1      -3.299  15.129  22.072  0.00  0.00    +0.000 C 
ATOM     17  C   UNL     1      -4.121  12.804  21.177  0.00  0.00    +0.000 C 
ENDROOT
BRANCH   1  25
ATOM     18  C   UNL     1      -6.241  13.002  17.011  0.00  0.00    +0.000 C 
ATOM     19  C   UNL     1      -5.289  11.820  17.090  0.00  0.00    +0.000 A 
ATOM     20  C   UNL     1      -4.397  11.678  16.009  0.00  0.00    +0.000 A 
ATOM     21  C   UNL     1      -3.419  10.702  16.018  0.00  0.00    +0.000 A 
ATOM     22  F   UNL     1      -2.548  10.606  15.018  0.00  0.00    +0.000 F 
ATOM     23  C   UNL     1      -3.290   9.868  17.132  0.00  0.00    +0.000 A 
ATOM     24  C   UNL     1      -4.188   9.997  18.238  0.00  0.00    +0.000 A 
ATOM     25  C   UNL     1      -5.199  10.963  18.244  0.00  0.00    +0.000 A 
ENDBRANCH   1  25
TORSDOF 1
ENDMDL
MODEL 7
REMARK VINA RESULT:      -7.0      4.504      9.747
REMARK  Name = 
REMARK  4 active torsions:
REMARK  status: ('A' for Active; 'I' for Inactive)
REMARK    1  A    between atoms: C_1  and  C_2
REMARK    2  A    between atoms: C_8  and  C_9
REMARK    3  A    between atoms: N_14  and  C_15
REMARK    4  A    between atoms: N_21  and  C_22
REMARK                            x       y       z     vdW  Elec       q    Type
REMARK                         _______ _______ _______ _____ _____    ______ ____
ROOT
ATOM      1  C   UNL     1       1.971   6.808  20.219  0.00  0.00    +0.000 C 
ATOM      2  O   UNL     1       1.353   6.217  21.121  0.00  0.00    +0.000 OA
ATOM      3  N   UNL     1       2.904   6.040  19.460  0.00  0.00    +0.000 N 
ATOM      4  C   UNL     1       3.101   4.734  20.179  0.00  0.00    +0.000 C 
ATOM      5  C   UNL     1       4.203   3.948  19.468  0.00  0.00    +0.000 C 
ATOM      6  N   UNL     1       4.519   3.489  18.073  0.00  0.00    +0.000 NA
ATOM      7  C   UNL     1       3.259   2.646  17.731  0.00  0.00    +0.000 C 
ATOM      8  C   UNL     1       4.583   4.803  17.200  0.00  0.00    +0.000 C 
ATOM      9  C   UNL     1       4.340   4.228  15.734  0.00  0.00    +0.000 C 
ATOM     10  C   UNL     1       5.494   3.277  15.264  0.00  0.00    +0.000 C 
ATOM     11  C   UNL     1       6.361   3.985  14.236  0.00  0.00    +0.000 C 
ATOM     12  O   UNL     1       6.341   3.659  13.049  0.00  0.00    +0.000 OA
ATOM     13  N   UNL     1       7.114   5.008  14.766  0.00  0.00    +0.000 N 
ATOM     14  C   UNL     1       8.083   5.645  13.880  0.00  0.00    +0.000 C 
ATOM     15  C   UNL     1       7.236   5.183  16.221  0.00  0.00    +0.000 C 
ATOM     16  C   UNL     1       5.961   5.625  16.985  0.00  0.00    +0.000 C 
ATOM     17  C   UNL     1       3.585   6.160  17.960  0.00  0.00    +0.000 C 
ENDROOT
BRANCH   1  25
ATOM     18  C   UNL     1       1.721   8.353  17.622  0.00  0.00    +0.000 C 
ATOM     19  C   UNL     1       1.502   8.993  18.981  0.00  0.00    +0.000 A 
ATOM     20  C   UNL     1       0.953  10.291  18.967  0.00  0.00    +0.000 A 
ATOM     21  C   UNL     1       0.615  10.933  20.144  0.00  0.00    +0.000 A 
ATOM     22  F   UNL     1       0.049  12.136  20.121  0.00  0.00    +0.000 F 
ATOM     23  C   UNL     1       0.787  10.270  21.362  0.00  0.00    +0.000 A 
ATOM     24  C   UNL     1       1.345   8.954  21.396  0.00  0.00    +0.000 A 
ATOM     25  C   UNL     1       1.714   8.291  20.221  0.00  0.00    +0.000 A 
ENDBRANCH   1  25
TORSDOF 1
ENDMDL
MODEL 8
REMARK VINA RESULT:      -7.0      2.756      4.558
REMARK  Name = 
REMARK  4 active torsions:
REMARK  status: ('A' for Active; 'I' for Inactive)
REMARK    1  A    between atoms: C_1  and  C_2
REMARK    2  A    between atoms: C_8  and  C_9
REMARK    3  A    between atoms: N_14  and  C_15
REMARK    4  A    between atoms: N_21  and  C_22
REMARK                            x       y       z     vdW  Elec       q    Type
REMARK                         _______ _______ _______ _____ _____    ______ ____
ROOT
ATOM      1  C   UNL     1       0.235  10.587  21.354  0.00  0.00    +0.000 C 
ATOM      2  O   UNL     1       0.940  10.414  22.363  0.00  0.00    +0.000 OA
ATOM      3  N   UNL     1      -0.986  11.305  21.530  0.00  0.00    +0.000 N 
ATOM      4  C   UNL     1      -1.234  11.414  23.009  0.00  0.00    +0.000 C 
ATOM      5  C   UNL     1      -2.606  12.051  23.228  0.00  0.00    +0.000 C 
ATOM      6  N   UNL     1      -3.345  13.282  22.783  0.00  0.00    +0.000 NA
ATOM      7  C   UNL     1      -2.392  14.408  23.270  0.00  0.00    +0.000 C 
ATOM      8  C   UNL     1      -3.382  13.205  21.206  0.00  0.00    +0.000 C 
ATOM      9  C   UNL     1      -3.629  14.729  20.815  0.00  0.00    +0.000 C 
ATOM     10  C   UNL     1      -5.021  15.257  21.308  0.00  0.00    +0.000 C 
ATOM     11  C   UNL     1      -5.972  15.384  20.130  0.00  0.00    +0.000 C 
ATOM     12  O   UNL     1      -6.315  16.486  19.699  0.00  0.00    +0.000 OA
ATOM     13  N   UNL     1      -6.363  14.172  19.608  0.00  0.00    +0.000 N 
ATOM     14  C   UNL     1      -7.389  14.197  18.570  0.00  0.00    +0.000 C 
ATOM     15  C   UNL     1      -6.077  12.915  20.317  0.00  0.00    +0.000 C 
ATOM     16  C   UNL     1      -4.592  12.482  20.410  0.00  0.00    +0.000 C 
ATOM     17  C   UNL     1      -1.990  12.180  20.553  0.00  0.00    +0.000 C 
ENDROOT
BRANCH   1  25
ATOM     18  C   UNL     1       0.957  12.054  18.801  0.00  0.00    +0.000 C 
ATOM     19  C   UNL     1       1.184  10.564  18.982  0.00  0.00    +0.000 A 
ATOM     20  C   UNL     1       1.959   9.936  17.987  0.00  0.00    +0.000 A 
ATOM     21  C   UNL     1       2.317   8.605  18.099  0.00  0.00    +0.000 A 
ATOM     22  F   UNL     1       3.091   8.033  17.182  0.00  0.00    +0.000 F 
ATOM     23  C   UNL     1       1.935   7.884  19.233  0.00  0.00    +0.000 A 
ATOM     24  C   UNL     1       1.148   8.505  20.253  0.00  0.00    +0.000 A 
ATOM     25  C   UNL     1       0.755   9.843  20.153  0.00  0.00    +0.000 A 
ENDBRANCH   1  25
TORSDOF 1
ENDMDL
MODEL 9
REMARK VINA RESULT:      -6.9      3.382      8.079
REMARK  Name = 
REMARK  4 active torsions:
REMARK  status: ('A' for Active; 'I' for Inactive)
REMARK    1  A    between atoms: C_1  and  C_2
REMARK    2  A    between atoms: C_8  and  C_9
REMARK    3  A    between atoms: N_14  and  C_15
REMARK    4  A    between atoms: N_21  and  C_22
REMARK                            x       y       z     vdW  Elec       q    Type
REMARK                         _______ _______ _______ _____ _____    ______ ____
ROOT
ATOM      1  C   UNL     1       1.072  10.422  19.672  0.00  0.00    +0.000 C 
ATOM      2  O   UNL     1       1.254  11.332  18.846  0.00  0.00    +0.000 OA
ATOM      3  N   UNL     1       1.488   9.109  19.295  0.00  0.00    +0.000 N 
ATOM      4  C   UNL     1       1.787   9.139  17.821  0.00  0.00    +0.000 C 
ATOM      5  C   UNL     1       2.097   7.716  17.358  0.00  0.00    +0.000 C 
ATOM      6  N   UNL     1       3.013   6.592  17.753  0.00  0.00    +0.000 NA
ATOM      7  C   UNL     1       4.404   7.272  17.637  0.00  0.00    +0.000 C 
ATOM      8  C   UNL     1       2.658   6.266  19.257  0.00  0.00    +0.000 C 
ATOM      9  C   UNL     1       3.984   5.533  19.750  0.00  0.00    +0.000 C 
ATOM     10  C   UNL     1       4.232   4.176  19.005  0.00  0.00    +0.000 C 
ATOM     11  C   UNL     1       3.916   3.014  19.931  0.00  0.00    +0.000 C 
ATOM     12  O   UNL     1       4.808   2.301  20.391  0.00  0.00    +0.000 OA
ATOM     13  N   UNL     1       2.573   2.879  20.204  0.00  0.00    +0.000 N 
ATOM     14  C   UNL     1       2.167   1.702  20.965  0.00  0.00    +0.000 C 
ATOM     15  C   UNL     1       1.567   3.636  19.444  0.00  0.00    +0.000 C 
ATOM     16  C   UNL     1       1.534   5.172  19.656  0.00  0.00    +0.000 C 
ATOM     17  C   UNL     1       1.908   7.730  20.100  0.00  0.00    +0.000 C 
ENDROOT
BRANCH   1  25
ATOM     18  C   UNL     1      -0.964  12.657  19.438  0.00  0.00    +0.000 C 
ATOM     19  C   UNL     1      -0.748  11.875  20.722  0.00  0.00    +0.000 A 
ATOM     20  C   UNL     1      -1.701  12.088  21.737  0.00  0.00    +0.000 A 
ATOM     21  C   UNL     1      -1.666  11.357  22.910  0.00  0.00    +0.000 A 
ATOM     22  F   UNL     1      -2.599  11.527  23.842  0.00  0.00    +0.000 F 
ATOM     23  C   UNL     1      -0.692  10.368  23.075  0.00  0.00    +0.000 A 
ATOM     24  C   UNL     1       0.284  10.139  22.055  0.00  0.00    +0.000 A 
ATOM     25  C   UNL     1       0.282  10.880  20.869  0.00  0.00    +0.000 A 
ENDBRANCH   1  25
TORSDOF 1
ENDMDL
