MODEL 1
REMARK VINA RESULT:      -4.8      0.000      0.000
REMARK  Name = 
REMARK  8 active torsions:
REMARK  status: ('A' for Active; 'I' for Inactive)
REMARK    1  A    between atoms: C_1  and  N_2
REMARK    2  A    between atoms: N_2  and  C_3
REMARK    3  A    between atoms: C_4  and  O_6
REMARK    4  A    between atoms: O_6  and  C_7
REMARK    5  A    between atoms: C_7  and  C_8
REMARK    6  A    between atoms: C_10  and  N_11
REMARK    7  A    between atoms: N_11  and  C_12
REMARK    8  A    between atoms: N_11  and  C_13
REMARK                            x       y       z     vdW  Elec       q    Type
REMARK                         _______ _______ _______ _____ _____    ______ ____
ROOT
ATOM      1  C   UNL     1       4.628   4.416  16.998  0.00  0.00    +0.000 C 
ENDROOT
BRANCH   1   2
ATOM      2  C   UNL     1       4.134   4.030  18.354  0.00  0.00    +0.000 C 
ATOM      3  C   UNL     1       3.801   5.095  19.360  0.00  0.00    +0.000 C 
ATOM      4  C   UNL     1       2.696   4.264  18.763  0.00  0.00    +0.000 C 
BRANCH   4   5
ATOM      5  N   UNL     1       2.029   3.210  19.557  0.00  0.00    +0.000 NA
ATOM      6  C   UNL     1       1.449   3.718  20.800  0.00  0.00    +0.000 C 
ATOM      7  C   UNL     1       0.993   2.535  18.766  0.00  0.00    +0.000 C 
ENDBRANCH   4   5
ENDBRANCH   1   2
BRANCH   1   8
ATOM      8  O   UNL     1       6.033   4.691  17.046  0.00  0.00    +0.000 OA
BRANCH   8  12
ATOM      9  C   UNL     1       7.714   7.842  17.615  0.00  0.00    +0.000 C 
ATOM     10  N   UNL     1       7.238   6.484  17.767  0.00  0.00    +0.000 N 
ATOM     11  C   UNL     1       7.607   5.724  18.947  0.00  0.00    +0.000 C 
ATOM     12  C   UNL     1       6.385   5.981  16.802  0.00  0.00    +0.000 C 
ATOM     13  O   UNL     1       5.993   6.632  15.839  0.00  0.00    +0.000 OA
ENDBRANCH   8  12
ENDBRANCH   1   8
TORSDOF 4
ENDMDL
MODEL 2
REMARK VINA RESULT:      -4.7      1.745      2.496
REMARK  Name = 
REMARK  8 active torsions:
REMARK  status: ('A' for Active; 'I' for Inactive)
REMARK    1  A    between atoms: C_1  and  N_2
REMARK    2  A    between atoms: N_2  and  C_3
REMARK    3  A    between atoms: C_4  and  O_6
REMARK    4  A    between atoms: O_6  and  C_7
REMARK    5  A    between atoms: C_7  and  C_8
REMARK    6  A    between atoms: C_10  and  N_11
REMARK    7  A    between atoms: N_11  and  C_12
REMARK    8  A    between atoms: N_11  and  C_13
REMARK                            x       y       z     vdW  Elec       q    Type
REMARK                         _______ _______ _______ _____ _____    ______ ____
ROOT
ATOM      1  C   UNL     1       5.987   5.133  19.134  0.00  0.00    +0.000 C 
ENDROOT
BRANCH   1   2
ATOM      2  C   UNL     1       4.544   5.314  19.476  0.00  0.00    +0.000 C 
ATOM      3  C   UNL     1       3.504   5.239  18.395  0.00  0.00    +0.000 C 
ATOM      4  C   UNL     1       3.574   4.152  19.435  0.00  0.00    +0.000 C 
BRANCH   4   5
ATOM      5  N   UNL     1       2.562   4.066  20.510  0.00  0.00    +0.000 NA
ATOM      6  C   UNL     1       1.191   4.130  20.003  0.00  0.00    +0.000 C 
ATOM      7  C   UNL     1       2.741   2.843  21.301  0.00  0.00    +0.000 C 
ENDBRANCH   4   5
ENDBRANCH   1   2
BRANCH   1   8
ATOM      8  O   UNL     1       6.308   5.874  17.952  0.00  0.00    +0.000 OA
BRANCH   8  12
ATOM      9  C   UNL     1       7.076   4.744  14.603  0.00  0.00    +0.000 C 
ATOM     10  N   UNL     1       6.447   5.402  15.728  0.00  0.00    +0.000 N 
ATOM     11  C   UNL     1       5.260   6.209  15.512  0.00  0.00    +0.000 C 
ATOM     12  C   UNL     1       6.970   5.180  16.989  0.00  0.00    +0.000 C 
ATOM     13  O   UNL     1       7.922   4.437  17.206  0.00  0.00    +0.000 OA
ENDBRANCH   8  12
ENDBRANCH   1   8
TORSDOF 4
ENDMDL
MODEL 3
REMARK VINA RESULT:      -4.7      1.530      2.072
REMARK  Name = 
REMARK  8 active torsions:
REMARK  status: ('A' for Active; 'I' for Inactive)
REMARK    1  A    between atoms: C_1  and  N_2
REMARK    2  A    between atoms: N_2  and  C_3
REMARK    3  A    between atoms: C_4  and  O_6
REMARK    4  A    between atoms: O_6  and  C_7
REMARK    5  A    between atoms: C_7  and  C_8
REMARK    6  A    between atoms: C_10  and  N_11
REMARK    7  A    between atoms: N_11  and  C_12
REMARK    8  A    between atoms: N_11  and  C_13
REMARK                            x       y       z     vdW  Elec       q    Type
REMARK                         _______ _______ _______ _____ _____    ______ ____
ROOT
ATOM      1  C   UNL     1       3.967   6.444  17.779  0.00  0.00    +0.000 C 
ENDROOT
BRANCH   1   2
ATOM      2  C   UNL     1       3.252   5.133  17.734  0.00  0.00    +0.000 C 
ATOM      3  C   UNL     1       3.963   3.879  18.159  0.00  0.00    +0.000 C 
ATOM      4  C   UNL     1       2.838   4.420  19.003  0.00  0.00    +0.000 C 
BRANCH   4   5
ATOM      5  N   UNL     1       1.516   3.757  19.017  0.00  0.00    +0.000 NA
ATOM      6  C   UNL     1       1.592   2.334  18.684  0.00  0.00    +0.000 C 
ATOM      7  C   UNL     1       0.858   3.928  20.317  0.00  0.00    +0.000 C 
ENDBRANCH   4   5
ENDBRANCH   1   2
BRANCH   1   8
ATOM      8  O   UNL     1       5.356   6.257  17.487  0.00  0.00    +0.000 OA
BRANCH   8  12
ATOM      9  C   UNL     1       7.068   4.916  14.598  0.00  0.00    +0.000 C 
ATOM     10  N   UNL     1       6.660   5.182  15.960  0.00  0.00    +0.000 N 
ATOM     11  C   UNL     1       7.344   4.519  17.055  0.00  0.00    +0.000 C 
ATOM     12  C   UNL     1       5.665   6.120  16.171  0.00  0.00    +0.000 C 
ATOM     13  O   UNL     1       5.129   6.753  15.268  0.00  0.00    +0.000 OA
ENDBRANCH   8  12
ENDBRANCH   1   8
TORSDOF 4
ENDMDL
MODEL 4
REMARK VINA RESULT:      -4.7      1.655      1.936
REMARK  Name = 
REMARK  8 active torsions:
REMARK  status: ('A' for Active; 'I' for Inactive)
REMARK    1  A    between atoms: C_1  and  N_2
REMARK    2  A    between atoms: N_2  and  C_3
REMARK    3  A    between atoms: C_4  and  O_6
REMARK    4  A    between atoms: O_6  and  C_7
REMARK    5  A    between atoms: C_7  and  C_8
REMARK    6  A    between atoms: C_10  and  N_11
REMARK    7  A    between atoms: N_11  and  C_12
REMARK    8  A    between atoms: N_11  and  C_13
REMARK                            x       y       z     vdW  Elec       q    Type
REMARK                         _______ _______ _______ _____ _____    ______ ____
ROOT
ATOM      1  C   UNL     1       3.936   6.606  17.845  0.00  0.00    +0.000 C 
ENDROOT
BRANCH   1   2
ATOM      2  C   UNL     1       3.583   5.537  18.827  0.00  0.00    +0.000 C 
ATOM      3  C   UNL     1       2.337   5.664  19.656  0.00  0.00    +0.000 C 
ATOM      4  C   UNL     1       2.414   4.605  18.588  0.00  0.00    +0.000 C 
BRANCH   4   5
ATOM      5  N   UNL     1       2.588   3.181  18.946  0.00  0.00    +0.000 NA
ATOM      6  C   UNL     1       1.666   2.743  19.994  0.00  0.00    +0.000 C 
ATOM      7  C   UNL     1       2.441   2.322  17.765  0.00  0.00    +0.000 C 
ENDBRANCH   4   5
ENDBRANCH   1   2
BRANCH   1   8
ATOM      8  O   UNL     1       5.335   6.557  17.547  0.00  0.00    +0.000 OA
BRANCH   8  12
ATOM      9  C   UNL     1       7.008   4.740  14.904  0.00  0.00    +0.000 C 
ATOM     10  N   UNL     1       6.600   5.216  16.208  0.00  0.00    +0.000 N 
ATOM     11  C   UNL     1       7.241   4.685  17.397  0.00  0.00    +0.000 C 
ATOM     12  C   UNL     1       5.649   6.219  16.268  0.00  0.00    +0.000 C 
ATOM     13  O   UNL     1       5.153   6.742  15.276  0.00  0.00    +0.000 OA
ENDBRANCH   8  12
ENDBRANCH   1   8
TORSDOF 4
ENDMDL
MODEL 5
REMARK VINA RESULT:      -4.6      1.653      2.487
REMARK  Name = 
REMARK  8 active torsions:
REMARK  status: ('A' for Active; 'I' for Inactive)
REMARK    1  A    between atoms: C_1  and  N_2
REMARK    2  A    between atoms: N_2  and  C_3
REMARK    3  A    between atoms: C_4  and  O_6
REMARK    4  A    between atoms: O_6  and  C_7
REMARK    5  A    between atoms: C_7  and  C_8
REMARK    6  A    between atoms: C_10  and  N_11
REMARK    7  A    between atoms: N_11  and  C_12
REMARK    8  A    between atoms: N_11  and  C_13
REMARK                            x       y       z     vdW  Elec       q    Type
REMARK                         _______ _______ _______ _____ _____    ______ ____
ROOT
ATOM      1  C   UNL     1       5.781   5.114  19.260  0.00  0.00    +0.000 C 
ENDROOT
BRANCH   1   2
ATOM      2  C   UNL     1       4.573   4.352  18.822  0.00  0.00    +0.000 C 
ATOM      3  C   UNL     1       4.435   2.900  19.179  0.00  0.00    +0.000 C 
ATOM      4  C   UNL     1       3.518   3.912  19.814  0.00  0.00    +0.000 C 
BRANCH   4   5
ATOM      5  N   UNL     1       2.102   4.015  19.400  0.00  0.00    +0.000 NA
ATOM      6  C   UNL     1       1.566   2.752  18.893  0.00  0.00    +0.000 C 
ATOM      7  C   UNL     1       1.267   4.500  20.505  0.00  0.00    +0.000 C 
ENDBRANCH   4   5
ENDBRANCH   1   2
BRANCH   1   8
ATOM      8  O   UNL     1       6.289   5.896  18.173  0.00  0.00    +0.000 OA
BRANCH   8  12
ATOM      9  C   UNL     1       7.034   4.786  14.813  0.00  0.00    +0.000 C 
ATOM     10  N   UNL     1       6.419   5.446  15.944  0.00  0.00    +0.000 N 
ATOM     11  C   UNL     1       5.249   6.279  15.738  0.00  0.00    +0.000 C 
ATOM     12  C   UNL     1       6.937   5.199  17.204  0.00  0.00    +0.000 C 
ATOM     13  O   UNL     1       7.872   4.434  17.413  0.00  0.00    +0.000 OA
ENDBRANCH   8  12
ENDBRANCH   1   8
TORSDOF 4
ENDMDL
MODEL 6
REMARK VINA RESULT:      -4.6      1.393      2.199
REMARK  Name = 
REMARK  8 active torsions:
REMARK  status: ('A' for Active; 'I' for Inactive)
REMARK    1  A    between atoms: C_1  and  N_2
REMARK    2  A    between atoms: N_2  and  C_3
REMARK    3  A    between atoms: C_4  and  O_6
REMARK    4  A    between atoms: O_6  and  C_7
REMARK    5  A    between atoms: C_7  and  C_8
REMARK    6  A    between atoms: C_10  and  N_11
REMARK    7  A    between atoms: N_11  and  C_12
REMARK    8  A    between atoms: N_11  and  C_13
REMARK                            x       y       z     vdW  Elec       q    Type
REMARK                         _______ _______ _______ _____ _____    ______ ____
ROOT
ATOM      1  C   UNL     1       5.357   3.957  19.274  0.00  0.00    +0.000 C 
ENDROOT
BRANCH   1   2
ATOM      2  C   UNL     1       4.048   3.562  18.671  0.00  0.00    +0.000 C 
ATOM      3  C   UNL     1       3.676   2.109  18.577  0.00  0.00    +0.000 C 
ATOM      4  C   UNL     1       2.925   3.010  19.523  0.00  0.00    +0.000 C 
BRANCH   4   5
ATOM      5  N   UNL     1       1.549   3.453  19.213  0.00  0.00    +0.000 NA
ATOM      6  C   UNL     1       0.694   2.361  18.746  0.00  0.00    +0.000 C 
ATOM      7  C   UNL     1       0.934   4.102  20.376  0.00  0.00    +0.000 C 
ENDBRANCH   4   5
ENDBRANCH   1   2
BRANCH   1   8
ATOM      8  O   UNL     1       6.316   4.213  18.242  0.00  0.00    +0.000 OA
BRANCH   8  12
ATOM      9  C   UNL     1       7.668   7.514  17.646  0.00  0.00    +0.000 C 
ATOM     10  N   UNL     1       6.894   6.297  17.528  0.00  0.00    +0.000 N 
ATOM     11  C   UNL     1       5.965   6.144  16.423  0.00  0.00    +0.000 C 
ATOM     12  C   UNL     1       7.122   5.287  18.446  0.00  0.00    +0.000 C 
ATOM     13  O   UNL     1       7.960   5.361  19.338  0.00  0.00    +0.000 OA
ENDBRANCH   8  12
ENDBRANCH   1   8
TORSDOF 4
ENDMDL
MODEL 7
REMARK VINA RESULT:      -4.6      2.345      5.861
REMARK  Name = 
REMARK  8 active torsions:
REMARK  status: ('A' for Active; 'I' for Inactive)
REMARK    1  A    between atoms: C_1  and  N_2
REMARK    2  A    between atoms: N_2  and  C_3
REMARK    3  A    between atoms: C_4  and  O_6
REMARK    4  A    between atoms: O_6  and  C_7
REMARK    5  A    between atoms: C_7  and  C_8
REMARK    6  A    between atoms: C_10  and  N_11
REMARK    7  A    between atoms: N_11  and  C_12
REMARK    8  A    between atoms: N_11  and  C_13
REMARK                            x       y       z     vdW  Elec       q    Type
REMARK                         _______ _______ _______ _____ _____    ______ ____
ROOT
ATOM      1  C   UNL     1       2.763   5.756  18.373  0.00  0.00    +0.000 C 
ENDROOT
BRANCH   1   2
ATOM      2  C   UNL     1       4.010   4.982  18.097  0.00  0.00    +0.000 C 
ATOM      3  C   UNL     1       4.024   3.951  17.004  0.00  0.00    +0.000 C 
ATOM      4  C   UNL     1       4.822   5.219  16.841  0.00  0.00    +0.000 C 
BRANCH   4   5
ATOM      5  N   UNL     1       6.295   5.207  16.965  0.00  0.00    +0.000 NA
ATOM      6  C   UNL     1       6.955   4.572  15.824  0.00  0.00    +0.000 C 
ATOM      7  C   UNL     1       6.816   6.567  17.145  0.00  0.00    +0.000 C 
ENDBRANCH   4   5
ENDBRANCH   1   2
BRANCH   1   8
ATOM      8  O   UNL     1       1.704   4.867  18.743  0.00  0.00    +0.000 OA
BRANCH   8  12
ATOM      9  C   UNL     1       1.540   2.587  21.546  0.00  0.00    +0.000 C 
ATOM     10  N   UNL     1       1.549   3.125  20.203  0.00  0.00    +0.000 N 
ATOM     11  C   UNL     1       1.348   2.235  19.074  0.00  0.00    +0.000 C 
ATOM     12  C   UNL     1       1.684   4.494  20.050  0.00  0.00    +0.000 C 
ATOM     13  O   UNL     1       1.771   5.275  20.991  0.00  0.00    +0.000 OA
ENDBRANCH   8  12
ENDBRANCH   1   8
TORSDOF 4
ENDMDL
MODEL 8
REMARK VINA RESULT:      -4.6      1.796      5.467
REMARK  Name = 
REMARK  8 active torsions:
REMARK  status: ('A' for Active; 'I' for Inactive)
REMARK    1  A    between atoms: C_1  and  N_2
REMARK    2  A    between atoms: N_2  and  C_3
REMARK    3  A    between atoms: C_4  and  O_6
REMARK    4  A    between atoms: O_6  and  C_7
REMARK    5  A    between atoms: C_7  and  C_8
REMARK    6  A    between atoms: C_10  and  N_11
REMARK    7  A    between atoms: N_11  and  C_12
REMARK    8  A    between atoms: N_11  and  C_13
REMARK                            x       y       z     vdW  Elec       q    Type
REMARK                         _______ _______ _______ _____ _____    ______ ____
ROOT
ATOM      1  C   UNL     1       4.282   4.028  16.949  0.00  0.00    +0.000 C 
ENDROOT
BRANCH   1   2
ATOM      2  C   UNL     1       5.341   5.037  16.644  0.00  0.00    +0.000 C 
ATOM      3  C   UNL     1       4.982   6.492  16.541  0.00  0.00    +0.000 C 
ATOM      4  C   UNL     1       5.823   6.013  17.696  0.00  0.00    +0.000 C 
BRANCH   4   5
ATOM      5  N   UNL     1       7.272   6.304  17.747  0.00  0.00    +0.000 NA
ATOM      6  C   UNL     1       7.572   7.724  17.564  0.00  0.00    +0.000 C 
ATOM      7  C   UNL     1       7.856   5.833  19.008  0.00  0.00    +0.000 C 
ENDBRANCH   4   5
ENDBRANCH   1   2
BRANCH   1   8
ATOM      8  O   UNL     1       3.053   4.689  17.271  0.00  0.00    +0.000 OA
BRANCH   8  12
ATOM      9  C   UNL     1       0.969   3.913  20.124  0.00  0.00    +0.000 C 
ATOM     10  N   UNL     1       1.908   4.565  19.236  0.00  0.00    +0.000 N 
ATOM     11  C   UNL     1       2.583   5.775  19.671  0.00  0.00    +0.000 C 
ATOM     12  C   UNL     1       2.179   3.966  18.019  0.00  0.00    +0.000 C 
ATOM     13  O   UNL     1       1.684   2.902  17.664  0.00  0.00    +0.000 OA
ENDBRANCH   8  12
ENDBRANCH   1   8
TORSDOF 4
ENDMDL
MODEL 9
REMARK VINA RESULT:      -4.6      1.346      2.245
REMARK  Name = 
REMARK  8 active torsions:
REMARK  status: ('A' for Active; 'I' for Inactive)
REMARK    1  A    between atoms: C_1  and  N_2
REMARK    2  A    between atoms: N_2  and  C_3
REMARK    3  A    between atoms: C_4  and  O_6
REMARK    4  A    between atoms: O_6  and  C_7
REMARK    5  A    between atoms: C_7  and  C_8
REMARK    6  A    between atoms: C_10  and  N_11
REMARK    7  A    between atoms: N_11  and  C_12
REMARK    8  A    between atoms: N_11  and  C_13
REMARK                            x       y       z     vdW  Elec       q    Type
REMARK                         _______ _______ _______ _____ _____    ______ ____
ROOT
ATOM      1  C   UNL     1       3.655   6.107  18.392  0.00  0.00    +0.000 C 
ENDROOT
BRANCH   1   2
ATOM      2  C   UNL     1       2.511   5.164  18.209  0.00  0.00    +0.000 C 
ATOM      3  C   UNL     1       2.718   3.872  17.470  0.00  0.00    +0.000 C 
ATOM      4  C   UNL     1       2.452   3.846  18.952  0.00  0.00    +0.000 C 
BRANCH   4   5
ATOM      5  N   UNL     1       1.139   3.415  19.478  0.00  0.00    +0.000 NA
ATOM      6  C   UNL     1       0.630   2.215  18.815  0.00  0.00    +0.000 C 
ATOM      7  C   UNL     1       1.203   3.191  20.927  0.00  0.00    +0.000 C 
ENDBRANCH   4   5
ENDBRANCH   1   2
BRANCH   1   8
ATOM      8  O   UNL     1       4.821   5.600  17.732  0.00  0.00    +0.000 OA
BRANCH   8  12
ATOM      9  C   UNL     1       8.107   5.826  19.224  0.00  0.00    +0.000 C 
ATOM     10  N   UNL     1       6.948   6.073  18.394  0.00  0.00    +0.000 N 
ATOM     11  C   UNL     1       6.996   7.120  17.390  0.00  0.00    +0.000 C 
ATOM     12  C   UNL     1       5.848   5.247  18.548  0.00  0.00    +0.000 C 
ATOM     13  O   UNL     1       5.814   4.305  19.331  0.00  0.00    +0.000 OA
ENDBRANCH   8  12
ENDBRANCH   1   8
TORSDOF 4
ENDMDL
