MODEL 1
REMARK VINA RESULT:      -9.0      0.000      0.000
REMARK  Name = 
REMARK  8 active torsions:
REMARK  status: ('A' for Active; 'I' for Inactive)
REMARK    1  A    between atoms: C_1  and  C_2
REMARK    2  A    between atoms: C_2  and  N_3
REMARK    3  A    between atoms: C_4  and  C_6
REMARK    4  A    between atoms: C_8  and  O_9
REMARK    5  A    between atoms: O_9  and  C_10
REMARK    6  A    between atoms: C_13  and  N_14
REMARK    7  A    between atoms: N_17  and  C_18
REMARK    8  A    between atoms: C_23  and  C_24
REMARK                            x       y       z     vdW  Elec       q    Type
REMARK                         _______ _______ _______ _____ _____    ______ ____
ROOT
ATOM      1  C   UNL     1       2.954   6.434  18.478  0.00  0.00    +0.000 A 
ATOM      2  C   UNL     1       2.417   6.714  19.729  0.00  0.00    +0.000 A 
ATOM      3  C   UNL     1       1.829   7.956  19.981  0.00  0.00    +0.000 A 
ATOM      4  C   UNL     1       1.790   8.950  18.995  0.00  0.00    +0.000 A 
ATOM      5  C   UNL     1       2.296   8.656  17.729  0.00  0.00    +0.000 A 
ATOM      6  C   UNL     1       2.913   7.420  17.484  0.00  0.00    +0.000 A 
ENDROOT
BRANCH   4   7
ATOM      7  N   UNL     1       1.276  10.250  19.244  0.00  0.00    +0.000 N 
ATOM      8  C   UNL     1      -0.004  10.474  19.716  0.00  0.00    +0.000 C 
ATOM      9  O   UNL     1      -0.803   9.586  20.006  0.00  0.00    +0.000 OA
ATOM     10  N   UNL     1      -0.317  11.824  19.821  0.00  0.00    +0.000 N 
ATOM     11  H   UNL     1       1.945  10.990  19.397  0.00  0.00    +0.000 HD
ATOM     12  H   UNL     1       0.102  12.395  19.100  0.00  0.00    +0.000 HD
BRANCH  10  13
ATOM     13  C   UNL     1      -1.620  12.186  20.245  0.00  0.00    +0.000 A 
ATOM     14  C   UNL     1      -2.662  12.169  19.326  0.00  0.00    +0.000 A 
ATOM     15  C   UNL     1      -3.972  12.358  19.773  0.00  0.00    +0.000 A 
ATOM     16  C   UNL     1      -4.249  12.622  21.123  0.00  0.00    +0.000 A 
ATOM     17 CL   UNL     1      -5.913  12.803  21.541  0.00  0.00    +0.000 Cl
ATOM     18  C   UNL     1      -3.209  12.713  22.051  0.00  0.00    +0.000 A 
ATOM     19  C   UNL     1      -1.892  12.485  21.589  0.00  0.00    +0.000 A 
BRANCH  18  20
ATOM     20  C   UNL     1      -3.386  13.030  23.514  0.00  0.00    +0.000 C 
ATOM     21  F   UNL     1      -4.022  12.092  24.264  0.00  0.00    +0.000 F 
ATOM     22  F   UNL     1      -2.197  13.249  24.145  0.00  0.00    +0.000 F 
ATOM     23  F   UNL     1      -4.105  14.178  23.694  0.00  0.00    +0.000 F 
ENDBRANCH  18  20
ENDBRANCH  10  13
ENDBRANCH   4   7
BRANCH   1  24
ATOM     24  O   UNL     1       3.562   5.205  18.355  0.00  0.00    +0.000 OA
BRANCH  24  27
ATOM     25  C   UNL     1       6.497   4.849  16.193  0.00  0.00    +0.000 A 
ATOM     26  C   UNL     1       5.159   4.857  16.553  0.00  0.00    +0.000 A 
ATOM     27  C   UNL     1       4.847   5.121  17.879  0.00  0.00    +0.000 A 
ATOM     28  C   UNL     1       5.869   5.260  18.812  0.00  0.00    +0.000 A 
ATOM     29  C   UNL     1       7.179   5.197  18.366  0.00  0.00    +0.000 A 
ATOM     30  N   UNL     1       7.526   5.009  17.072  0.00  0.00    +0.000 NA
BRANCH  25  32
ATOM     31  N   UNL     1       6.126   3.752  14.062  0.00  0.00    +0.000 N 
ATOM     32  C   UNL     1       6.846   4.708  14.744  0.00  0.00    +0.000 C 
ATOM     33  O   UNL     1       7.724   5.394  14.235  0.00  0.00    +0.000 OA
ATOM     34  H   UNL     1       5.386   3.283  14.577  0.00  0.00    +0.000 HD
BRANCH  31  36
ATOM     35  C   UNL     1       4.990   3.233  11.958  0.00  0.00    +0.000 C 
ATOM     36  C   UNL     1       6.311   3.512  12.650  0.00  0.00    +0.000 C 
ENDBRANCH  31  36
ENDBRANCH  25  32
ENDBRANCH  24  27
ENDBRANCH   1  24
TORSDOF 7
ENDMDL
MODEL 2
REMARK VINA RESULT:      -8.7      1.458      1.915
REMARK  Name = 
REMARK  8 active torsions:
REMARK  status: ('A' for Active; 'I' for Inactive)
REMARK    1  A    between atoms: C_1  and  C_2
REMARK    2  A    between atoms: C_2  and  N_3
REMARK    3  A    between atoms: C_4  and  C_6
REMARK    4  A    between atoms: C_8  and  O_9
REMARK    5  A    between atoms: O_9  and  C_10
REMARK    6  A    between atoms: C_13  and  N_14
REMARK    7  A    between atoms: N_17  and  C_18
REMARK    8  A    between atoms: C_23  and  C_24
REMARK                            x       y       z     vdW  Elec       q    Type
REMARK                         _______ _______ _______ _____ _____    ______ ____
ROOT
ATOM      1  C   UNL     1       2.985   6.224  18.389  0.00  0.00    +0.000 A 
ATOM      2  C   UNL     1       2.464   6.408  19.664  0.00  0.00    +0.000 A 
ATOM      3  C   UNL     1       1.895   7.633  20.022  0.00  0.00    +0.000 A 
ATOM      4  C   UNL     1       1.859   8.704  19.120  0.00  0.00    +0.000 A 
ATOM      5  C   UNL     1       2.349   8.507  17.829  0.00  0.00    +0.000 A 
ATOM      6  C   UNL     1       2.947   7.287  17.479  0.00  0.00    +0.000 A 
ENDROOT
BRANCH   4   7
ATOM      7  N   UNL     1       1.364   9.985  19.479  0.00  0.00    +0.000 N 
ATOM      8  C   UNL     1       0.215  10.165  20.225  0.00  0.00    +0.000 C 
ATOM      9  O   UNL     1      -0.465   9.250  20.686  0.00  0.00    +0.000 OA
ATOM     10  N   UNL     1      -0.119  11.503  20.398  0.00  0.00    +0.000 N 
ATOM     11  H   UNL     1       2.022  10.751  19.479  0.00  0.00    +0.000 HD
ATOM     12  H   UNL     1       0.106  12.084  19.602  0.00  0.00    +0.000 HD
BRANCH  10  13
ATOM     13  C   UNL     1      -1.307  11.820  21.103  0.00  0.00    +0.000 A 
ATOM     14  C   UNL     1      -1.276  11.884  22.491  0.00  0.00    +0.000 A 
ATOM     15  C   UNL     1      -2.394  12.361  23.179  0.00  0.00    +0.000 A 
ATOM     16  C   UNL     1      -3.567  12.721  22.499  0.00  0.00    +0.000 A 
ATOM     17 CL   UNL     1      -4.859  13.325  23.471  0.00  0.00    +0.000 Cl
ATOM     18  C   UNL     1      -3.642  12.599  21.110  0.00  0.00    +0.000 A 
ATOM     19  C   UNL     1      -2.491  12.147  20.425  0.00  0.00    +0.000 A 
BRANCH  18  20
ATOM     20  C   UNL     1      -4.861  12.919  20.282  0.00  0.00    +0.000 C 
ATOM     21  F   UNL     1      -6.017  12.300  20.641  0.00  0.00    +0.000 F 
ATOM     22  F   UNL     1      -5.152  14.251  20.281  0.00  0.00    +0.000 F 
ATOM     23  F   UNL     1      -4.674  12.590  18.969  0.00  0.00    +0.000 F 
ENDBRANCH  18  20
ENDBRANCH  10  13
ENDBRANCH   4   7
BRANCH   1  24
ATOM     24  O   UNL     1       3.577   5.002  18.161  0.00  0.00    +0.000 OA
BRANCH  24  27
ATOM     25  C   UNL     1       6.535   4.773  16.014  0.00  0.00    +0.000 A 
ATOM     26  C   UNL     1       5.193   4.766  16.357  0.00  0.00    +0.000 A 
ATOM     27  C   UNL     1       4.867   4.941  17.695  0.00  0.00    +0.000 A 
ATOM     28  C   UNL     1       5.878   5.008  18.648  0.00  0.00    +0.000 A 
ATOM     29  C   UNL     1       7.193   4.965  18.213  0.00  0.00    +0.000 A 
ATOM     30  N   UNL     1       7.554   4.865  16.914  0.00  0.00    +0.000 NA
BRANCH  25  32
ATOM     31  N   UNL     1       6.132   3.884  13.793  0.00  0.00    +0.000 N 
ATOM     32  C   UNL     1       6.901   4.730  14.563  0.00  0.00    +0.000 C 
ATOM     33  O   UNL     1       7.832   5.395  14.124  0.00  0.00    +0.000 OA
ATOM     34  H   UNL     1       5.353   3.425  14.258  0.00  0.00    +0.000 HD
BRANCH  31  36
ATOM     35  C   UNL     1       5.703   2.471  11.842  0.00  0.00    +0.000 C 
ATOM     36  C   UNL     1       6.327   3.750  12.369  0.00  0.00    +0.000 C 
ENDBRANCH  31  36
ENDBRANCH  25  32
ENDBRANCH  24  27
ENDBRANCH   1  24
TORSDOF 7
ENDMDL
MODEL 3
REMARK VINA RESULT:      -8.7      5.890     11.086
REMARK  Name = 
REMARK  8 active torsions:
REMARK  status: ('A' for Active; 'I' for Inactive)
REMARK    1  A    between atoms: C_1  and  C_2
REMARK    2  A    between atoms: C_2  and  N_3
REMARK    3  A    between atoms: C_4  and  C_6
REMARK    4  A    between atoms: C_8  and  O_9
REMARK    5  A    between atoms: O_9  and  C_10
REMARK    6  A    between atoms: C_13  and  N_14
REMARK    7  A    between atoms: N_17  and  C_18
REMARK    8  A    between atoms: C_23  and  C_24
REMARK                            x       y       z     vdW  Elec       q    Type
REMARK                         _______ _______ _______ _____ _____    ______ ____
ROOT
ATOM      1  C   UNL     1      -0.470  11.121  20.981  0.00  0.00    +0.000 A 
ATOM      2  C   UNL     1       0.029  10.604  22.170  0.00  0.00    +0.000 A 
ATOM      3  C   UNL     1       0.728   9.394  22.173  0.00  0.00    +0.000 A 
ATOM      4  C   UNL     1       0.920   8.667  20.992  0.00  0.00    +0.000 A 
ATOM      5  C   UNL     1       0.451   9.206  19.793  0.00  0.00    +0.000 A 
ATOM      6  C   UNL     1      -0.277  10.405  19.793  0.00  0.00    +0.000 A 
ENDROOT
BRANCH   4   7
ATOM      7  N   UNL     1       1.553   7.397  20.973  0.00  0.00    +0.000 N 
ATOM      8  C   UNL     1       2.382   6.985  19.947  0.00  0.00    +0.000 C 
ATOM      9  O   UNL     1       2.687   7.679  18.979  0.00  0.00    +0.000 OA
ATOM     10  N   UNL     1       2.836   5.681  20.103  0.00  0.00    +0.000 N 
ATOM     11  H   UNL     1       1.670   6.927  21.858  0.00  0.00    +0.000 HD
ATOM     12  H   UNL     1       2.161   5.065  20.534  0.00  0.00    +0.000 HD
BRANCH  10  13
ATOM     13  C   UNL     1       3.654   5.122  19.089  0.00  0.00    +0.000 A 
ATOM     14  C   UNL     1       3.070   4.340  18.101  0.00  0.00    +0.000 A 
ATOM     15  C   UNL     1       3.838   3.929  17.009  0.00  0.00    +0.000 A 
ATOM     16  C   UNL     1       5.203   4.244  16.921  0.00  0.00    +0.000 A 
ATOM     17 CL   UNL     1       6.022   3.702  15.503  0.00  0.00    +0.000 Cl
ATOM     18  C   UNL     1       5.825   4.971  17.938  0.00  0.00    +0.000 A 
ATOM     19  C   UNL     1       5.026   5.408  19.020  0.00  0.00    +0.000 A 
BRANCH  18  20
ATOM     20  C   UNL     1       7.289   5.331  17.968  0.00  0.00    +0.000 C 
ATOM     21  F   UNL     1       7.759   5.862  19.127  0.00  0.00    +0.000 F 
ATOM     22  F   UNL     1       8.092   4.260  17.710  0.00  0.00    +0.000 F 
ATOM     23  F   UNL     1       7.597   6.251  17.005  0.00  0.00    +0.000 F 
ENDBRANCH  18  20
ENDBRANCH  10  13
ENDBRANCH   4   7
BRANCH   1  24
ATOM     24  O   UNL     1      -1.196  12.285  21.099  0.00  0.00    +0.000 OA
BRANCH  24  27
ATOM     25  C   UNL     1      -4.232  12.146  19.056  0.00  0.00    +0.000 A 
ATOM     26  C   UNL     1      -2.879  12.126  19.348  0.00  0.00    +0.000 A 
ATOM     27  C   UNL     1      -2.498  12.328  20.668  0.00  0.00    +0.000 A 
ATOM     28  C   UNL     1      -3.461  12.646  21.621  0.00  0.00    +0.000 A 
ATOM     29  C   UNL     1      -4.788  12.682  21.226  0.00  0.00    +0.000 A 
ATOM     30  N   UNL     1      -5.207  12.425  19.967  0.00  0.00    +0.000 NA
BRANCH  25  32
ATOM     31  N   UNL     1      -3.649  11.449  16.807  0.00  0.00    +0.000 N 
ATOM     32  C   UNL     1      -4.669  11.789  17.669  0.00  0.00    +0.000 C 
ATOM     33  O   UNL     1      -5.851  11.824  17.348  0.00  0.00    +0.000 OA
ATOM     34  H   UNL     1      -2.713  11.404  17.202  0.00  0.00    +0.000 HD
BRANCH  31  36
ATOM     35  C   UNL     1      -2.777  10.170  14.912  0.00  0.00    +0.000 C 
ATOM     36  C   UNL     1      -3.898  11.044  15.443  0.00  0.00    +0.000 C 
ENDBRANCH  31  36
ENDBRANCH  25  32
ENDBRANCH  24  27
ENDBRANCH   1  24
TORSDOF 7
ENDMDL
MODEL 4
REMARK VINA RESULT:      -8.7      1.502      1.807
REMARK  Name = 
REMARK  8 active torsions:
REMARK  status: ('A' for Active; 'I' for Inactive)
REMARK    1  A    between atoms: C_1  and  C_2
REMARK    2  A    between atoms: C_2  and  N_3
REMARK    3  A    between atoms: C_4  and  C_6
REMARK    4  A    between atoms: C_8  and  O_9
REMARK    5  A    between atoms: O_9  and  C_10
REMARK    6  A    between atoms: C_13  and  N_14
REMARK    7  A    between atoms: N_17  and  C_18
REMARK    8  A    between atoms: C_23  and  C_24
REMARK                            x       y       z     vdW  Elec       q    Type
REMARK                         _______ _______ _______ _____ _____    ______ ____
ROOT
ATOM      1  C   UNL     1       2.782   5.773  18.454  0.00  0.00    +0.000 A 
ATOM      2  C   UNL     1       2.325   5.243  19.655  0.00  0.00    +0.000 A 
ATOM      3  C   UNL     1       1.800   6.083  20.640  0.00  0.00    +0.000 A 
ATOM      4  C   UNL     1       1.746   7.470  20.454  0.00  0.00    +0.000 A 
ATOM      5  C   UNL     1       2.170   7.997  19.233  0.00  0.00    +0.000 A 
ATOM      6  C   UNL     1       2.725   7.158  18.256  0.00  0.00    +0.000 A 
ENDROOT
BRANCH   4   7
ATOM      7  N   UNL     1       1.296   8.358  21.466  0.00  0.00    +0.000 N 
ATOM      8  C   UNL     1       0.469   9.435  21.208  0.00  0.00    +0.000 C 
ATOM      9  O   UNL     1       0.011   9.710  20.100  0.00  0.00    +0.000 OA
ATOM     10  N   UNL     1       0.211  10.206  22.334  0.00  0.00    +0.000 N 
ATOM     11  H   UNL     1       1.301   8.016  22.415  0.00  0.00    +0.000 HD
ATOM     12  H   UNL     1       0.991  10.264  22.974  0.00  0.00    +0.000 HD
BRANCH  10  13
ATOM     13  C   UNL     1      -0.582  11.372  22.191  0.00  0.00    +0.000 A 
ATOM     14  C   UNL     1      -0.234  12.317  21.234  0.00  0.00    +0.000 A 
ATOM     15  C   UNL     1      -1.103  13.379  20.972  0.00  0.00    +0.000 A 
ATOM     16  C   UNL     1      -2.294  13.539  21.697  0.00  0.00    +0.000 A 
ATOM     17 CL   UNL     1      -3.288  14.875  21.246  0.00  0.00    +0.000 Cl
ATOM     18  C   UNL     1      -2.629  12.638  22.710  0.00  0.00    +0.000 A 
ATOM     19  C   UNL     1      -1.756  11.550  22.940  0.00  0.00    +0.000 A 
BRANCH  18  20
ATOM     20  C   UNL     1      -3.859  12.735  23.576  0.00  0.00    +0.000 C 
ATOM     21  F   UNL     1      -4.026  13.895  24.265  0.00  0.00    +0.000 F 
ATOM     22  F   UNL     1      -5.010  12.573  22.863  0.00  0.00    +0.000 F 
ATOM     23  F   UNL     1      -3.882  11.752  24.524  0.00  0.00    +0.000 F 
ENDBRANCH  18  20
ENDBRANCH  10  13
ENDBRANCH   4   7
BRANCH   1  24
ATOM     24  O   UNL     1       3.335   4.866  17.578  0.00  0.00    +0.000 OA
BRANCH  24  27
ATOM     25  C   UNL     1       6.451   4.893  15.653  0.00  0.00    +0.000 A 
ATOM     26  C   UNL     1       5.113   4.664  15.929  0.00  0.00    +0.000 A 
ATOM     27  C   UNL     1       4.646   4.997  17.193  0.00  0.00    +0.000 A 
ATOM     28  C   UNL     1       5.541   5.441  18.162  0.00  0.00    +0.000 A 
ATOM     29  C   UNL     1       6.870   5.601  17.805  0.00  0.00    +0.000 A 
ATOM     30  N   UNL     1       7.352   5.353  16.566  0.00  0.00    +0.000 NA
BRANCH  25  32
ATOM     31  N   UNL     1       6.232   3.740  13.530  0.00  0.00    +0.000 N 
ATOM     32  C   UNL     1       6.940   4.675  14.255  0.00  0.00    +0.000 C 
ATOM     33  O   UNL     1       7.910   5.284  13.820  0.00  0.00    +0.000 OA
ATOM     34  H   UNL     1       5.413   3.339  13.978  0.00  0.00    +0.000 HD
BRANCH  31  36
ATOM     35  C   UNL     1       5.549   2.458  11.561  0.00  0.00    +0.000 C 
ATOM     36  C   UNL     1       6.547   3.435  12.154  0.00  0.00    +0.000 C 
ENDBRANCH  31  36
ENDBRANCH  25  32
ENDBRANCH  24  27
ENDBRANCH   1  24
TORSDOF 7
ENDMDL
MODEL 5
REMARK VINA RESULT:      -8.4      5.703     11.381
REMARK  Name = 
REMARK  8 active torsions:
REMARK  status: ('A' for Active; 'I' for Inactive)
REMARK    1  A    between atoms: C_1  and  C_2
REMARK    2  A    between atoms: C_2  and  N_3
REMARK    3  A    between atoms: C_4  and  C_6
REMARK    4  A    between atoms: C_8  and  O_9
REMARK    5  A    between atoms: O_9  and  C_10
REMARK    6  A    between atoms: C_13  and  N_14
REMARK    7  A    between atoms: N_17  and  C_18
REMARK    8  A    between atoms: C_23  and  C_24
REMARK                            x       y       z     vdW  Elec       q    Type
REMARK                         _______ _______ _______ _____ _____    ______ ____
ROOT
ATOM      1  C   UNL     1      -2.118  12.429  22.583  0.00  0.00    +0.000 A 
ATOM      2  C   UNL     1      -1.987  11.307  23.394  0.00  0.00    +0.000 A 
ATOM      3  C   UNL     1      -0.921  10.424  23.206  0.00  0.00    +0.000 A 
ATOM      4  C   UNL     1       0.019  10.631  22.189  0.00  0.00    +0.000 A 
ATOM      5  C   UNL     1      -0.092  11.776  21.400  0.00  0.00    +0.000 A 
ATOM      6  C   UNL     1      -1.179  12.647  21.568  0.00  0.00    +0.000 A 
ENDROOT
BRANCH   4   7
ATOM      7  N   UNL     1       1.065   9.709  21.919  0.00  0.00    +0.000 N 
ATOM      8  C   UNL     1       0.957   8.705  20.975  0.00  0.00    +0.000 C 
ATOM      9  O   UNL     1      -0.023   8.533  20.253  0.00  0.00    +0.000 OA
ATOM     10  N   UNL     1       2.074   7.881  20.927  0.00  0.00    +0.000 N 
ATOM     11  H   UNL     1       2.002   9.989  22.170  0.00  0.00    +0.000 HD
ATOM     12  H   UNL     1       2.510   7.733  21.827  0.00  0.00    +0.000 HD
BRANCH  10  13
ATOM     13  C   UNL     1       2.067   6.780  20.035  0.00  0.00    +0.000 A 
ATOM     14  C   UNL     1       2.541   6.951  18.741  0.00  0.00    +0.000 A 
ATOM     15  C   UNL     1       2.696   5.836  17.914  0.00  0.00    +0.000 A 
ATOM     16  C   UNL     1       2.326   4.554  18.347  0.00  0.00    +0.000 A 
ATOM     17 CL   UNL     1       2.601   3.263  17.236  0.00  0.00    +0.000 Cl
ATOM     18  C   UNL     1       1.782   4.369  19.620  0.00  0.00    +0.000 A 
ATOM     19  C   UNL     1       1.664   5.503  20.457  0.00  0.00    +0.000 A 
BRANCH  18  20
ATOM     20  C   UNL     1       1.315   3.047  20.174  0.00  0.00    +0.000 C 
ATOM     21  F   UNL     1       2.217   2.031  20.158  0.00  0.00    +0.000 F 
ATOM     22  F   UNL     1       0.905   3.143  21.471  0.00  0.00    +0.000 F 
ATOM     23  F   UNL     1       0.232   2.573  19.489  0.00  0.00    +0.000 F 
ENDBRANCH  18  20
ENDBRANCH  10  13
ENDBRANCH   4   7
BRANCH   1  24
ATOM     24  O   UNL     1      -3.235  13.199  22.812  0.00  0.00    +0.000 OA
BRANCH  24  27
ATOM     25  C   UNL     1      -5.741  12.827  20.167  0.00  0.00    +0.000 A 
ATOM     26  C   UNL     1      -4.839  12.443  21.145  0.00  0.00    +0.000 A 
ATOM     27  C   UNL     1      -4.123  13.440  21.793  0.00  0.00    +0.000 A 
ATOM     28  C   UNL     1      -4.251  14.761  21.376  0.00  0.00    +0.000 A 
ATOM     29  C   UNL     1      -5.150  15.045  20.361  0.00  0.00    +0.000 A 
ATOM     30  N   UNL     1      -5.915  14.113  19.750  0.00  0.00    +0.000 NA
BRANCH  25  32
ATOM     31  N   UNL     1      -6.455  10.511  20.065  0.00  0.00    +0.000 N 
ATOM     32  C   UNL     1      -6.624  11.781  19.559  0.00  0.00    +0.000 C 
ATOM     33  O   UNL     1      -7.415  12.061  18.667  0.00  0.00    +0.000 OA
ATOM     34  H   UNL     1      -5.806  10.411  20.842  0.00  0.00    +0.000 HD
BRANCH  31  36
ATOM     35  C   UNL     1      -7.645   8.494  20.773  0.00  0.00    +0.000 C 
ATOM     36  C   UNL     1      -7.250   9.392  19.616  0.00  0.00    +0.000 C 
ENDBRANCH  31  36
ENDBRANCH  25  32
ENDBRANCH  24  27
ENDBRANCH   1  24
TORSDOF 7
ENDMDL
MODEL 6
REMARK VINA RESULT:      -8.4      3.707      4.243
REMARK  Name = 
REMARK  8 active torsions:
REMARK  status: ('A' for Active; 'I' for Inactive)
REMARK    1  A    between atoms: C_1  and  C_2
REMARK    2  A    between atoms: C_2  and  N_3
REMARK    3  A    between atoms: C_4  and  C_6
REMARK    4  A    between atoms: C_8  and  O_9
REMARK    5  A    between atoms: O_9  and  C_10
REMARK    6  A    between atoms: C_13  and  N_14
REMARK    7  A    between atoms: N_17  and  C_18
REMARK    8  A    between atoms: C_23  and  C_24
REMARK                            x       y       z     vdW  Elec       q    Type
REMARK                         _______ _______ _______ _____ _____    ______ ____
ROOT
ATOM      1  C   UNL     1       2.998   5.781  18.663  0.00  0.00    +0.000 A 
ATOM      2  C   UNL     1       2.413   5.796  19.923  0.00  0.00    +0.000 A 
ATOM      3  C   UNL     1       1.788   6.953  20.395  0.00  0.00    +0.000 A 
ATOM      4  C   UNL     1       1.759   8.124  19.627  0.00  0.00    +0.000 A 
ATOM      5  C   UNL     1       2.314   8.097  18.348  0.00  0.00    +0.000 A 
ATOM      6  C   UNL     1       2.968   6.945  17.885  0.00  0.00    +0.000 A 
ENDROOT
BRANCH   4   7
ATOM      7  N   UNL     1       1.206   9.338  20.110  0.00  0.00    +0.000 N 
ATOM      8  C   UNL     1       1.311  10.536  19.429  0.00  0.00    +0.000 C 
ATOM      9  O   UNL     1       1.851  10.666  18.332  0.00  0.00    +0.000 OA
ATOM     10  N   UNL     1       0.756  11.606  20.119  0.00  0.00    +0.000 N 
ATOM     11  H   UNL     1       0.451   9.269  20.777  0.00  0.00    +0.000 HD
ATOM     12  H   UNL     1       0.863  11.543  21.122  0.00  0.00    +0.000 HD
BRANCH  10  13
ATOM     13  C   UNL     1       0.847  12.901  19.550  0.00  0.00    +0.000 A 
ATOM     14  C   UNL     1      -0.318  13.564  19.182  0.00  0.00    +0.000 A 
ATOM     15  C   UNL     1      -0.248  14.900  18.781  0.00  0.00    +0.000 A 
ATOM     16  C   UNL     1       0.983  15.567  18.688  0.00  0.00    +0.000 A 
ATOM     17 CL   UNL     1       0.920  17.224  18.212  0.00  0.00    +0.000 Cl
ATOM     18  C   UNL     1       2.172  14.898  18.987  0.00  0.00    +0.000 A 
ATOM     19  C   UNL     1       2.081  13.557  19.423  0.00  0.00    +0.000 A 
BRANCH  18  20
ATOM     20  C   UNL     1       3.549  15.503  18.884  0.00  0.00    +0.000 C 
ATOM     21  F   UNL     1       3.824  16.532  19.727  0.00  0.00    +0.000 F 
ATOM     22  F   UNL     1       4.535  14.587  19.101  0.00  0.00    +0.000 F 
ATOM     23  F   UNL     1       3.787  15.996  17.631  0.00  0.00    +0.000 F 
ENDBRANCH  18  20
ENDBRANCH  10  13
ENDBRANCH   4   7
BRANCH   1  24
ATOM     24  O   UNL     1       3.639   4.612  18.320  0.00  0.00    +0.000 OA
BRANCH  24  27
ATOM     25  C   UNL     1       6.502   4.613  16.036  0.00  0.00    +0.000 A 
ATOM     26  C   UNL     1       5.183   4.499  16.443  0.00  0.00    +0.000 A 
ATOM     27  C   UNL     1       4.907   4.653  17.794  0.00  0.00    +0.000 A 
ATOM     28  C   UNL     1       5.953   4.809  18.698  0.00  0.00    +0.000 A 
ATOM     29  C   UNL     1       7.245   4.871  18.201  0.00  0.00    +0.000 A 
ATOM     30  N   UNL     1       7.552   4.793  16.887  0.00  0.00    +0.000 NA
BRANCH  25  32
ATOM     31  N   UNL     1       6.206   3.566  13.869  0.00  0.00    +0.000 N 
ATOM     32  C   UNL     1       6.802   4.591  14.570  0.00  0.00    +0.000 C 
ATOM     33  O   UNL     1       7.541   5.427  14.061  0.00  0.00    +0.000 OA
ATOM     34  H   UNL     1       5.571   2.966  14.388  0.00  0.00    +0.000 HD
BRANCH  31  36
ATOM     35  C   UNL     1       5.018   3.252  11.752  0.00  0.00    +0.000 C 
ATOM     36  C   UNL     1       6.360   3.419  12.440  0.00  0.00    +0.000 C 
ENDBRANCH  31  36
ENDBRANCH  25  32
ENDBRANCH  24  27
ENDBRANCH   1  24
TORSDOF 7
ENDMDL
MODEL 7
REMARK VINA RESULT:      -8.4      2.790      3.423
REMARK  Name = 
REMARK  8 active torsions:
REMARK  status: ('A' for Active; 'I' for Inactive)
REMARK    1  A    between atoms: C_1  and  C_2
REMARK    2  A    between atoms: C_2  and  N_3
REMARK    3  A    between atoms: C_4  and  C_6
REMARK    4  A    between atoms: C_8  and  O_9
REMARK    5  A    between atoms: O_9  and  C_10
REMARK    6  A    between atoms: C_13  and  N_14
REMARK    7  A    between atoms: N_17  and  C_18
REMARK    8  A    between atoms: C_23  and  C_24
REMARK                            x       y       z     vdW  Elec       q    Type
REMARK                         _______ _______ _______ _____ _____    ______ ____
ROOT
ATOM      1  C   UNL     1       2.961   5.382  18.716  0.00  0.00    +0.000 A 
ATOM      2  C   UNL     1       2.962   6.655  18.156  0.00  0.00    +0.000 A 
ATOM      3  C   UNL     1       2.408   7.731  18.854  0.00  0.00    +0.000 A 
ATOM      4  C   UNL     1       1.821   7.551  20.113  0.00  0.00    +0.000 A 
ATOM      5  C   UNL     1       1.854   6.281  20.689  0.00  0.00    +0.000 A 
ATOM      6  C   UNL     1       2.382   5.194  19.977  0.00  0.00    +0.000 A 
ENDROOT
BRANCH   4   7
ATOM      7  N   UNL     1       1.176   8.605  20.811  0.00  0.00    +0.000 N 
ATOM      8  C   UNL     1       0.855   9.813  20.220  0.00  0.00    +0.000 C 
ATOM      9  O   UNL     1       1.052  10.081  19.036  0.00  0.00    +0.000 OA
ATOM     10  N   UNL     1       0.292  10.721  21.107  0.00  0.00    +0.000 N 
ATOM     11  H   UNL     1       0.652   8.359  21.637  0.00  0.00    +0.000 HD
ATOM     12  H   UNL     1       0.667  10.660  22.044  0.00  0.00    +0.000 HD
BRANCH  10  13
ATOM     13  C   UNL     1      -0.034  12.017  20.635  0.00  0.00    +0.000 A 
ATOM     14  C   UNL     1      -1.369  12.387  20.535  0.00  0.00    +0.000 A 
ATOM     15  C   UNL     1      -1.693  13.712  20.235  0.00  0.00    +0.000 A 
ATOM     16  C   UNL     1      -0.694  14.663  19.977  0.00  0.00    +0.000 A 
ATOM     17 CL   UNL     1      -1.234  16.270  19.653  0.00  0.00    +0.000 Cl
ATOM     18  C   UNL     1       0.653  14.296  20.005  0.00  0.00    +0.000 A 
ATOM     19  C   UNL     1       0.965  12.959  20.343  0.00  0.00    +0.000 A 
BRANCH  18  20
ATOM     20  C   UNL     1       1.805  15.222  19.706  0.00  0.00    +0.000 C 
ATOM     21  F   UNL     1       1.798  15.823  18.487  0.00  0.00    +0.000 F 
ATOM     22  F   UNL     1       1.899  16.240  20.608  0.00  0.00    +0.000 F 
ATOM     23  F   UNL     1       3.003  14.569  19.774  0.00  0.00    +0.000 F 
ENDBRANCH  18  20
ENDBRANCH  10  13
ENDBRANCH   4   7
BRANCH   1  24
ATOM     24  O   UNL     1       3.476   4.384  17.920  0.00  0.00    +0.000 OA
BRANCH  24  27
ATOM     25  C   UNL     1       6.477   4.497  15.822  0.00  0.00    +0.000 A 
ATOM     26  C   UNL     1       5.137   4.350  16.141  0.00  0.00    +0.000 A 
ATOM     27  C   UNL     1       4.773   4.461  17.476  0.00  0.00    +0.000 A 
ATOM     28  C   UNL     1       5.758   4.608  18.448  0.00  0.00    +0.000 A 
ATOM     29  C   UNL     1       7.077   4.705  18.037  0.00  0.00    +0.000 A 
ATOM     30  N   UNL     1       7.467   4.669  16.743  0.00  0.00    +0.000 NA
BRANCH  25  32
ATOM     31  N   UNL     1       6.271   3.558  13.596  0.00  0.00    +0.000 N 
ATOM     32  C   UNL     1       6.869   4.522  14.378  0.00  0.00    +0.000 C 
ATOM     33  O   UNL     1       7.677   5.340  13.955  0.00  0.00    +0.000 OA
ATOM     34  H   UNL     1       5.576   2.970  14.047  0.00  0.00    +0.000 HD
BRANCH  31  36
ATOM     35  C   UNL     1       5.659   2.379  11.541  0.00  0.00    +0.000 C 
ATOM     36  C   UNL     1       6.509   3.464  12.174  0.00  0.00    +0.000 C 
ENDBRANCH  31  36
ENDBRANCH  25  32
ENDBRANCH  24  27
ENDBRANCH   1  24
TORSDOF 7
ENDMDL
MODEL 8
REMARK VINA RESULT:      -8.3      8.308     11.942
REMARK  Name = 
REMARK  8 active torsions:
REMARK  status: ('A' for Active; 'I' for Inactive)
REMARK    1  A    between atoms: C_1  and  C_2
REMARK    2  A    between atoms: C_2  and  N_3
REMARK    3  A    between atoms: C_4  and  C_6
REMARK    4  A    between atoms: C_8  and  O_9
REMARK    5  A    between atoms: O_9  and  C_10
REMARK    6  A    between atoms: C_13  and  N_14
REMARK    7  A    between atoms: N_17  and  C_18
REMARK    8  A    between atoms: C_23  and  C_24
REMARK                            x       y       z     vdW  Elec       q    Type
REMARK                         _______ _______ _______ _____ _____    ______ ____
ROOT
ATOM      1  C   UNL     1       9.666  13.364  18.679  0.00  0.00    +0.000 A 
ATOM      2  C   UNL     1       9.758  12.519  17.578  0.00  0.00    +0.000 A 
ATOM      3  C   UNL     1       9.595  11.140  17.734  0.00  0.00    +0.000 A 
ATOM      4  C   UNL     1       9.361  10.578  18.995  0.00  0.00    +0.000 A 
ATOM      5  C   UNL     1       9.231  11.430  20.092  0.00  0.00    +0.000 A 
ATOM      6  C   UNL     1       9.425  12.811  19.942  0.00  0.00    +0.000 A 
ENDROOT
BRANCH   4   7
ATOM      7  N   UNL     1       9.272   9.176  19.199  0.00  0.00    +0.000 N 
ATOM      8  C   UNL     1       8.321   8.385  18.583  0.00  0.00    +0.000 C 
ATOM      9  O   UNL     1       7.492   8.798  17.774  0.00  0.00    +0.000 OA
ATOM     10  N   UNL     1       8.377   7.055  18.981  0.00  0.00    +0.000 N 
ATOM     11  H   UNL     1      10.102   8.704  19.527  0.00  0.00    +0.000 HD
ATOM     12  H   UNL     1       8.639   6.932  19.949  0.00  0.00    +0.000 HD
BRANCH  10  13
ATOM     13  C   UNL     1       7.419   6.150  18.459  0.00  0.00    +0.000 A 
ATOM     14  C   UNL     1       6.452   5.624  19.306  0.00  0.00    +0.000 A 
ATOM     15  C   UNL     1       5.407   4.869  18.766  0.00  0.00    +0.000 A 
ATOM     16  C   UNL     1       5.349   4.586  17.393  0.00  0.00    +0.000 A 
ATOM     17 CL   UNL     1       3.987   3.672  16.858  0.00  0.00    +0.000 Cl
ATOM     18  C   UNL     1       6.349   5.048  16.535  0.00  0.00    +0.000 A 
ATOM     19  C   UNL     1       7.381   5.838  17.092  0.00  0.00    +0.000 A 
BRANCH  18  20
ATOM     20  C   UNL     1       6.409   4.771  15.054  0.00  0.00    +0.000 C 
ATOM     21  F   UNL     1       7.510   5.221  14.398  0.00  0.00    +0.000 F 
ATOM     22  F   UNL     1       6.342   3.439  14.773  0.00  0.00    +0.000 F 
ATOM     23  F   UNL     1       5.350   5.331  14.398  0.00  0.00    +0.000 F 
ENDBRANCH  18  20
ENDBRANCH  10  13
ENDBRANCH   4   7
BRANCH   1  24
ATOM     24  O   UNL     1       9.904  14.696  18.425  0.00  0.00    +0.000 OA
BRANCH  24  27
ATOM     25  C   UNL     1       6.801  16.582  18.904  0.00  0.00    +0.000 A 
ATOM     26  C   UNL     1       7.641  15.592  18.422  0.00  0.00    +0.000 A 
ATOM     27  C   UNL     1       8.978  15.640  18.793  0.00  0.00    +0.000 A 
ATOM     28  C   UNL     1       9.448  16.719  19.536  0.00  0.00    +0.000 A 
ATOM     29  C   UNL     1       8.539  17.684  19.939  0.00  0.00    +0.000 A 
ATOM     30  N   UNL     1       7.218  17.639  19.657  0.00  0.00    +0.000 NA
BRANCH  25  32
ATOM     31  N   UNL     1       4.957  15.343  17.930  0.00  0.00    +0.000 N 
ATOM     32  C   UNL     1       5.333  16.468  18.632  0.00  0.00    +0.000 C 
ATOM     33  O   UNL     1       4.551  17.335  19.004  0.00  0.00    +0.000 OA
ATOM     34  H   UNL     1       5.688  14.668  17.723  0.00  0.00    +0.000 HD
BRANCH  31  36
ATOM     35  C   UNL     1       2.996  14.022  18.558  0.00  0.00    +0.000 C 
ATOM     36  C   UNL     1       3.576  15.059  17.616  0.00  0.00    +0.000 C 
ENDBRANCH  31  36
ENDBRANCH  25  32
ENDBRANCH  24  27
ENDBRANCH   1  24
TORSDOF 7
ENDMDL
MODEL 9
REMARK VINA RESULT:      -8.3      1.710      2.252
REMARK  Name = 
REMARK  8 active torsions:
REMARK  status: ('A' for Active; 'I' for Inactive)
REMARK    1  A    between atoms: C_1  and  C_2
REMARK    2  A    between atoms: C_2  and  N_3
REMARK    3  A    between atoms: C_4  and  C_6
REMARK    4  A    between atoms: C_8  and  O_9
REMARK    5  A    between atoms: O_9  and  C_10
REMARK    6  A    between atoms: C_13  and  N_14
REMARK    7  A    between atoms: N_17  and  C_18
REMARK    8  A    between atoms: C_23  and  C_24
REMARK                            x       y       z     vdW  Elec       q    Type
REMARK                         _______ _______ _______ _____ _____    ______ ____
ROOT
ATOM      1  C   UNL     1       3.123   4.750  18.935  0.00  0.00    +0.000 A 
ATOM      2  C   UNL     1       3.027   6.095  18.599  0.00  0.00    +0.000 A 
ATOM      3  C   UNL     1       2.487   7.010  19.507  0.00  0.00    +0.000 A 
ATOM      4  C   UNL     1       2.012   6.593  20.757  0.00  0.00    +0.000 A 
ATOM      5  C   UNL     1       2.144   5.250  21.107  0.00  0.00    +0.000 A 
ATOM      6  C   UNL     1       2.657   4.326  20.185  0.00  0.00    +0.000 A 
ENDROOT
BRANCH   4   7
ATOM      7  N   UNL     1       1.384   7.482  21.668  0.00  0.00    +0.000 N 
ATOM      8  C   UNL     1       0.802   8.673  21.277  0.00  0.00    +0.000 C 
ATOM      9  O   UNL     1       0.731   9.062  20.112  0.00  0.00    +0.000 OA
ATOM     10  N   UNL     1       0.309   9.415  22.343  0.00  0.00    +0.000 N 
ATOM     11  H   UNL     1       1.065   7.096  22.544  0.00  0.00    +0.000 HD
ATOM     12  H   UNL     1       0.862   9.334  23.184  0.00  0.00    +0.000 HD
BRANCH  10  13
ATOM     13  C   UNL     1      -0.267  10.683  22.078  0.00  0.00    +0.000 A 
ATOM     14  C   UNL     1       0.272  11.476  21.073  0.00  0.00    +0.000 A 
ATOM     15  C   UNL     1      -0.392  12.645  20.693  0.00  0.00    +0.000 A 
ATOM     16  C   UNL     1      -1.561  13.062  21.347  0.00  0.00    +0.000 A 
ATOM     17 CL   UNL     1      -2.295  14.507  20.754  0.00  0.00    +0.000 Cl
ATOM     18  C   UNL     1      -2.081  12.315  22.406  0.00  0.00    +0.000 A 
ATOM     19  C   UNL     1      -1.417  11.117  22.756  0.00  0.00    +0.000 A 
BRANCH  18  20
ATOM     20  C   UNL     1      -3.305  12.688  23.204  0.00  0.00    +0.000 C 
ATOM     21  F   UNL     1      -3.611  11.884  24.256  0.00  0.00    +0.000 F 
ATOM     22  F   UNL     1      -3.221  13.945  23.725  0.00  0.00    +0.000 F 
ATOM     23  F   UNL     1      -4.427  12.695  22.424  0.00  0.00    +0.000 F 
ENDBRANCH  18  20
ENDBRANCH  10  13
ENDBRANCH   4   7
BRANCH   1  24
ATOM     24  O   UNL     1       3.612   3.926  17.946  0.00  0.00    +0.000 OA
BRANCH  24  27
ATOM     25  C   UNL     1       6.445   4.361  15.666  0.00  0.00    +0.000 A 
ATOM     26  C   UNL     1       5.154   4.060  16.069  0.00  0.00    +0.000 A 
ATOM     27  C   UNL     1       4.861   4.150  17.422  0.00  0.00    +0.000 A 
ATOM     28  C   UNL     1       5.878   4.428  18.330  0.00  0.00    +0.000 A 
ATOM     29  C   UNL     1       7.149   4.676  17.836  0.00  0.00    +0.000 A 
ATOM     30  N   UNL     1       7.461   4.666  16.521  0.00  0.00    +0.000 NA
BRANCH  25  32
ATOM     31  N   UNL     1       6.204   3.377  13.462  0.00  0.00    +0.000 N 
ATOM     32  C   UNL     1       6.742   4.409  14.199  0.00  0.00    +0.000 C 
ATOM     33  O   UNL     1       7.431   5.303  13.721  0.00  0.00    +0.000 OA
ATOM     34  H   UNL     1       5.604   2.724  13.960  0.00  0.00    +0.000 HD
BRANCH  31  36
ATOM     35  C   UNL     1       5.055   2.939  11.346  0.00  0.00    +0.000 C 
ATOM     36  C   UNL     1       6.363   3.291  12.029  0.00  0.00    +0.000 C 
ENDBRANCH  31  36
ENDBRANCH  25  32
ENDBRANCH  24  27
ENDBRANCH   1  24
TORSDOF 7
ENDMDL
