MODEL 1
REMARK VINA RESULT:      -8.4      0.000      0.000
REMARK  Name = 
REMARK  7 active torsions:
REMARK  status: ('A' for Active; 'I' for Inactive)
REMARK    1  A    between atoms: C_2  and  C_17
REMARK    2  A    between atoms: N_3  and  C_4
REMARK    3  A    between atoms: C_7  and  O_8
REMARK    4  A    between atoms: O_8  and  C_9
REMARK    5  A    between atoms: C_18  and  O_19
REMARK    6  A    between atoms: N_22  and  C_23
REMARK    7  A    between atoms: C_23  and  C_24
REMARK                            x       y       z     vdW  Elec       q    Type
REMARK                         _______ _______ _______ _____ _____    ______ ____
ROOT
ATOM      1  O   UNL     1       1.002   5.298  20.630  0.00  0.00    +0.000 OA
ATOM      2  C   UNL     1       1.960   5.470  19.867  0.00  0.00    +0.000 C 
ATOM      3  N   UNL     1       2.270   6.752  19.414  0.00  0.00    +0.000 N 
ATOM      4  H   UNL     1       2.909   6.866  18.643  0.00  0.00    +0.000 HD
ENDROOT
BRANCH   3   5
ATOM      5  C   UNL     1       1.741   7.972  19.983  0.00  0.00    +0.000 A 
ATOM      6  C   UNL     1       1.541   8.170  21.359  0.00  0.00    +0.000 A 
ATOM      7  C   UNL     1       1.133   9.412  21.883  0.00  0.00    +0.000 A 
ATOM      8  C   UNL     1       0.905  10.502  21.048  0.00  0.00    +0.000 A 
ATOM      9  C   UNL     1       1.006  10.302  19.671  0.00  0.00    +0.000 A 
ATOM     10  C   UNL     1       1.448   9.062  19.147  0.00  0.00    +0.000 A 
BRANCH   8  11
ATOM     11  O   UNL     1       0.492  11.664  21.664  0.00  0.00    +0.000 OA
BRANCH  11  12
ATOM     12  C   UNL     1      -0.838  11.938  21.905  0.00  0.00    +0.000 A 
ATOM     13  C   UNL     1      -1.568  12.397  20.796  0.00  0.00    +0.000 A 
ATOM     14  C   UNL     1      -2.926  12.720  20.913  0.00  0.00    +0.000 A 
ATOM     15  C   UNL     1      -3.567  12.578  22.140  0.00  0.00    +0.000 A 
ATOM     16  C   UNL     1      -2.862  12.077  23.234  0.00  0.00    +0.000 A 
ATOM     17  C   UNL     1      -1.509  11.734  23.110  0.00  0.00    +0.000 A 
ENDBRANCH  11  12
ENDBRANCH   8  11
ENDBRANCH   3   5
BRANCH   2  18
ATOM     18  C   UNL     1       2.748   4.283  19.547  0.00  0.00    +0.000 A 
ATOM     19  C   UNL     1       2.147   3.034  19.405  0.00  0.00    +0.000 A 
ATOM     20  N   UNL     1       3.053   2.060  19.164  0.00  0.00    +0.000 NA
ATOM     21  N   UNL     1       4.235   2.629  19.130  0.00  0.00    +0.000 NA
ATOM     22  N   UNL     1       4.068   3.960  19.292  0.00  0.00    +0.000 N 
BRANCH  19  23
ATOM     23  O   UNL     1       0.821   2.802  19.513  0.00  0.00    +0.000 OA
ATOM     24  H   UNL     1       0.414   2.848  18.622  0.00  0.00    +0.000 HD
ENDBRANCH  19  23
BRANCH  22  25
ATOM     25  C   UNL     1       5.299   4.725  19.198  0.00  0.00    +0.000 C 
BRANCH  25  26
ATOM     26  C   UNL     1       6.072   4.563  17.849  0.00  0.00    +0.000 C 
ATOM     27  C   UNL     1       5.524   5.445  16.719  0.00  0.00    +0.000 C 
ATOM     28  C   UNL     1       5.638   6.925  17.065  0.00  0.00    +0.000 C 
ATOM     29  C   UNL     1       7.067   7.327  17.440  0.00  0.00    +0.000 C 
ATOM     30  C   UNL     1       7.776   6.360  18.392  0.00  0.00    +0.000 C 
ATOM     31  C   UNL     1       7.565   4.897  18.021  0.00  0.00    +0.000 C 
ENDBRANCH  25  26
ENDBRANCH  22  25
ENDBRANCH   2  18
TORSDOF 7
ENDMDL
MODEL 2
REMARK VINA RESULT:      -8.4      1.960      2.729
REMARK  Name = 
REMARK  7 active torsions:
REMARK  status: ('A' for Active; 'I' for Inactive)
REMARK    1  A    between atoms: C_2  and  C_17
REMARK    2  A    between atoms: N_3  and  C_4
REMARK    3  A    between atoms: C_7  and  O_8
REMARK    4  A    between atoms: O_8  and  C_9
REMARK    5  A    between atoms: C_18  and  O_19
REMARK    6  A    between atoms: N_22  and  C_23
REMARK    7  A    between atoms: C_23  and  C_24
REMARK                            x       y       z     vdW  Elec       q    Type
REMARK                         _______ _______ _______ _____ _____    ______ ____
ROOT
ATOM      1  O   UNL     1       1.949   5.810  18.054  0.00  0.00    +0.000 OA
ATOM      2  C   UNL     1       2.578   5.760  19.117  0.00  0.00    +0.000 C 
ATOM      3  N   UNL     1       2.689   6.899  19.916  0.00  0.00    +0.000 N 
ATOM      4  H   UNL     1       3.363   6.917  20.664  0.00  0.00    +0.000 HD
ENDROOT
BRANCH   3   5
ATOM      5  C   UNL     1       1.883   8.090  19.759  0.00  0.00    +0.000 A 
ATOM      6  C   UNL     1       1.900   8.901  18.613  0.00  0.00    +0.000 A 
ATOM      7  C   UNL     1       1.017   9.986  18.453  0.00  0.00    +0.000 A 
ATOM      8  C   UNL     1       0.087  10.304  19.438  0.00  0.00    +0.000 A 
ATOM      9  C   UNL     1       0.116   9.571  20.624  0.00  0.00    +0.000 A 
ATOM     10  C   UNL     1       0.981   8.459  20.771  0.00  0.00    +0.000 A 
BRANCH   8  11
ATOM     11  O   UNL     1      -0.716  11.396  19.186  0.00  0.00    +0.000 OA
BRANCH  11  12
ATOM     12  C   UNL     1      -2.014  11.269  18.735  0.00  0.00    +0.000 A 
ATOM     13  C   UNL     1      -2.220  10.270  17.770  0.00  0.00    +0.000 A 
ATOM     14  C   UNL     1      -3.491  10.048  17.226  0.00  0.00    +0.000 A 
ATOM     15  C   UNL     1      -4.569  10.819  17.648  0.00  0.00    +0.000 A 
ATOM     16  C   UNL     1      -4.383  11.780  18.641  0.00  0.00    +0.000 A 
ATOM     17  C   UNL     1      -3.115  11.987  19.201  0.00  0.00    +0.000 A 
ENDBRANCH  11  12
ENDBRANCH   8  11
ENDBRANCH   3   5
BRANCH   2  18
ATOM     18  C   UNL     1       3.116   4.454  19.487  0.00  0.00    +0.000 A 
ATOM     19  C   UNL     1       2.577   3.724  20.544  0.00  0.00    +0.000 A 
ATOM     20  N   UNL     1       3.250   2.571  20.758  0.00  0.00    +0.000 NA
ATOM     21  N   UNL     1       4.212   2.511  19.866  0.00  0.00    +0.000 NA
ATOM     22  N   UNL     1       4.109   3.591  19.061  0.00  0.00    +0.000 N 
BRANCH  19  23
ATOM     23  O   UNL     1       1.521   4.114  21.289  0.00  0.00    +0.000 OA
ATOM     24  H   UNL     1       0.832   3.419  21.257  0.00  0.00    +0.000 HD
ENDBRANCH  19  23
BRANCH  22  25
ATOM     25  C   UNL     1       5.072   3.611  17.975  0.00  0.00    +0.000 C 
BRANCH  25  26
ATOM     26  C   UNL     1       6.109   4.780  18.036  0.00  0.00    +0.000 C 
ATOM     27  C   UNL     1       7.397   4.497  17.252  0.00  0.00    +0.000 C 
ATOM     28  C   UNL     1       7.111   4.300  15.767  0.00  0.00    +0.000 C 
ATOM     29  C   UNL     1       6.338   5.474  15.162  0.00  0.00    +0.000 C 
ATOM     30  C   UNL     1       5.165   5.975  16.009  0.00  0.00    +0.000 C 
ATOM     31  C   UNL     1       5.506   6.086  17.490  0.00  0.00    +0.000 C 
ENDBRANCH  25  26
ENDBRANCH  22  25
ENDBRANCH   2  18
TORSDOF 7
ENDMDL
MODEL 3
REMARK VINA RESULT:      -8.4      1.930      2.586
REMARK  Name = 
REMARK  7 active torsions:
REMARK  status: ('A' for Active; 'I' for Inactive)
REMARK    1  A    between atoms: C_2  and  C_17
REMARK    2  A    between atoms: N_3  and  C_4
REMARK    3  A    between atoms: C_7  and  O_8
REMARK    4  A    between atoms: O_8  and  C_9
REMARK    5  A    between atoms: C_18  and  O_19
REMARK    6  A    between atoms: N_22  and  C_23
REMARK    7  A    between atoms: C_23  and  C_24
REMARK                            x       y       z     vdW  Elec       q    Type
REMARK                         _______ _______ _______ _____ _____    ______ ____
ROOT
ATOM      1  O   UNL     1       1.674   5.775  17.971  0.00  0.00    +0.000 OA
ATOM      2  C   UNL     1       2.424   5.798  18.954  0.00  0.00    +0.000 C 
ATOM      3  N   UNL     1       2.626   6.990  19.650  0.00  0.00    +0.000 N 
ATOM      4  H   UNL     1       3.383   7.057  20.311  0.00  0.00    +0.000 HD
ENDROOT
BRANCH   3   5
ATOM      5  C   UNL     1       1.804   8.172  19.505  0.00  0.00    +0.000 A 
ATOM      6  C   UNL     1       1.786   8.975  18.353  0.00  0.00    +0.000 A 
ATOM      7  C   UNL     1       0.888  10.050  18.207  0.00  0.00    +0.000 A 
ATOM      8  C   UNL     1      -0.022  10.365  19.212  0.00  0.00    +0.000 A 
ATOM      9  C   UNL     1       0.043   9.641  20.403  0.00  0.00    +0.000 A 
ATOM     10  C   UNL     1       0.923   8.539  20.536  0.00  0.00    +0.000 A 
BRANCH   8  11
ATOM     11  O   UNL     1      -0.842  11.447  18.972  0.00  0.00    +0.000 OA
BRANCH  11  12
ATOM     12  C   UNL     1      -2.069  11.320  18.356  0.00  0.00    +0.000 A 
ATOM     13  C   UNL     1      -3.152  11.886  19.048  0.00  0.00    +0.000 A 
ATOM     14  C   UNL     1      -4.451  11.815  18.531  0.00  0.00    +0.000 A 
ATOM     15  C   UNL     1      -4.679  11.182  17.313  0.00  0.00    +0.000 A 
ATOM     16  C   UNL     1      -3.602  10.659  16.596  0.00  0.00    +0.000 A 
ATOM     17  C   UNL     1      -2.299  10.750  17.103  0.00  0.00    +0.000 A 
ENDBRANCH  11  12
ENDBRANCH   8  11
ENDBRANCH   3   5
BRANCH   2  18
ATOM     18  C   UNL     1       3.005   4.518  19.349  0.00  0.00    +0.000 A 
ATOM     19  C   UNL     1       2.200   3.427  19.668  0.00  0.00    +0.000 A 
ATOM     20  N   UNL     1       2.927   2.357  20.061  0.00  0.00    +0.000 NA
ATOM     21  N   UNL     1       4.192   2.705  20.000  0.00  0.00    +0.000 NA
ATOM     22  N   UNL     1       4.261   3.965  19.518  0.00  0.00    +0.000 N 
BRANCH  19  23
ATOM     23  O   UNL     1       0.850   3.426  19.616  0.00  0.00    +0.000 OA
ATOM     24  H   UNL     1       0.495   3.595  20.514  0.00  0.00    +0.000 HD
ENDBRANCH  19  23
BRANCH  22  25
ATOM     25  C   UNL     1       5.616   4.450  19.327  0.00  0.00    +0.000 C 
BRANCH  25  26
ATOM     26  C   UNL     1       6.142   4.372  17.856  0.00  0.00    +0.000 C 
ATOM     27  C   UNL     1       5.341   5.237  16.873  0.00  0.00    +0.000 C 
ATOM     28  C   UNL     1       5.421   6.714  17.243  0.00  0.00    +0.000 C 
ATOM     29  C   UNL     1       6.864   7.206  17.369  0.00  0.00    +0.000 C 
ATOM     30  C   UNL     1       7.796   6.271  18.145  0.00  0.00    +0.000 C 
ATOM     31  C   UNL     1       7.616   4.805  17.768  0.00  0.00    +0.000 C 
ENDBRANCH  25  26
ENDBRANCH  22  25
ENDBRANCH   2  18
TORSDOF 7
ENDMDL
MODEL 4
REMARK VINA RESULT:      -8.4      1.790      2.601
REMARK  Name = 
REMARK  7 active torsions:
REMARK  status: ('A' for Active; 'I' for Inactive)
REMARK    1  A    between atoms: C_2  and  C_17
REMARK    2  A    between atoms: N_3  and  C_4
REMARK    3  A    between atoms: C_7  and  O_8
REMARK    4  A    between atoms: O_8  and  C_9
REMARK    5  A    between atoms: C_18  and  O_19
REMARK    6  A    between atoms: N_22  and  C_23
REMARK    7  A    between atoms: C_23  and  C_24
REMARK                            x       y       z     vdW  Elec       q    Type
REMARK                         _______ _______ _______ _____ _____    ______ ____
ROOT
ATOM      1  O   UNL     1       1.019   5.026  20.590  0.00  0.00    +0.000 OA
ATOM      2  C   UNL     1       2.180   5.203  20.201  0.00  0.00    +0.000 C 
ATOM      3  N   UNL     1       2.598   6.474  19.809  0.00  0.00    +0.000 N 
ATOM      4  H   UNL     1       3.463   6.579  19.304  0.00  0.00    +0.000 HD
ENDROOT
BRANCH   3   5
ATOM      5  C   UNL     1       1.874   7.696  20.087  0.00  0.00    +0.000 A 
ATOM      6  C   UNL     1       1.413   8.058  21.364  0.00  0.00    +0.000 A 
ATOM      7  C   UNL     1       0.814   9.309  21.614  0.00  0.00    +0.000 A 
ATOM      8  C   UNL     1       0.650  10.241  20.594  0.00  0.00    +0.000 A 
ATOM      9  C   UNL     1       1.014   9.865  19.300  0.00  0.00    +0.000 A 
ATOM     10  C   UNL     1       1.646   8.621  19.055  0.00  0.00    +0.000 A 
BRANCH   8  11
ATOM     11  O   UNL     1       0.036  11.424  20.945  0.00  0.00    +0.000 OA
BRANCH  11  12
ATOM     12  C   UNL     1       0.290  12.610  20.287  0.00  0.00    +0.000 A 
ATOM     13  C   UNL     1       1.536  13.195  20.561  0.00  0.00    +0.000 A 
ATOM     14  C   UNL     1       1.909  14.405  19.962  0.00  0.00    +0.000 A 
ATOM     15  C   UNL     1       1.039  15.037  19.078  0.00  0.00    +0.000 A 
ATOM     16  C   UNL     1      -0.180  14.438  18.763  0.00  0.00    +0.000 A 
ATOM     17  C   UNL     1      -0.543  13.216  19.346  0.00  0.00    +0.000 A 
ENDBRANCH  11  12
ENDBRANCH   8  11
ENDBRANCH   3   5
BRANCH   2  18
ATOM     18  C   UNL     1       3.058   4.037  20.244  0.00  0.00    +0.000 A 
ATOM     19  C   UNL     1       2.937   3.079  21.249  0.00  0.00    +0.000 A 
ATOM     20  N   UNL     1       3.876   2.112  21.142  0.00  0.00    +0.000 NA
ATOM     21  N   UNL     1       4.607   2.394  20.088  0.00  0.00    +0.000 NA
ATOM     22  N   UNL     1       4.096   3.501  19.505  0.00  0.00    +0.000 N 
BRANCH  19  23
ATOM     23  O   UNL     1       2.013   3.108  22.232  0.00  0.00    +0.000 OA
ATOM     24  H   UNL     1       2.092   3.953  22.722  0.00  0.00    +0.000 HD
ENDBRANCH  19  23
BRANCH  22  25
ATOM     25  C   UNL     1       4.768   3.883  18.276  0.00  0.00    +0.000 C 
BRANCH  25  26
ATOM     26  C   UNL     1       5.514   5.256  18.333  0.00  0.00    +0.000 C 
ATOM     27  C   UNL     1       7.040   5.128  18.227  0.00  0.00    +0.000 C 
ATOM     28  C   UNL     1       7.453   4.510  16.896  0.00  0.00    +0.000 C 
ATOM     29  C   UNL     1       6.873   5.265  15.698  0.00  0.00    +0.000 C 
ATOM     30  C   UNL     1       5.395   5.641  15.830  0.00  0.00    +0.000 C 
ATOM     31  C   UNL     1       5.043   6.192  17.207  0.00  0.00    +0.000 C 
ENDBRANCH  25  26
ENDBRANCH  22  25
ENDBRANCH   2  18
TORSDOF 7
ENDMDL
MODEL 5
REMARK VINA RESULT:      -8.3      1.866      2.492
REMARK  Name = 
REMARK  7 active torsions:
REMARK  status: ('A' for Active; 'I' for Inactive)
REMARK    1  A    between atoms: C_2  and  C_17
REMARK    2  A    between atoms: N_3  and  C_4
REMARK    3  A    between atoms: C_7  and  O_8
REMARK    4  A    between atoms: O_8  and  C_9
REMARK    5  A    between atoms: C_18  and  O_19
REMARK    6  A    between atoms: N_22  and  C_23
REMARK    7  A    between atoms: C_23  and  C_24
REMARK                            x       y       z     vdW  Elec       q    Type
REMARK                         _______ _______ _______ _____ _____    ______ ____
ROOT
ATOM      1  O   UNL     1       1.120   4.914  20.114  0.00  0.00    +0.000 OA
ATOM      2  C   UNL     1       2.331   5.144  20.009  0.00  0.00    +0.000 C 
ATOM      3  N   UNL     1       2.777   6.449  19.799  0.00  0.00    +0.000 N 
ATOM      4  H   UNL     1       3.729   6.608  19.511  0.00  0.00    +0.000 HD
ENDROOT
BRANCH   3   5
ATOM      5  C   UNL     1       1.962   7.631  19.978  0.00  0.00    +0.000 A 
ATOM      6  C   UNL     1       1.373   7.998  21.198  0.00  0.00    +0.000 A 
ATOM      7  C   UNL     1       0.683   9.216  21.358  0.00  0.00    +0.000 A 
ATOM      8  C   UNL     1       0.553  10.110  20.299  0.00  0.00    +0.000 A 
ATOM      9  C   UNL     1       1.048   9.723  19.054  0.00  0.00    +0.000 A 
ATOM     10  C   UNL     1       1.770   8.514  18.901  0.00  0.00    +0.000 A 
BRANCH   8  11
ATOM     11  O   UNL     1      -0.156  11.263  20.561  0.00  0.00    +0.000 OA
BRANCH  11  12
ATOM     12  C   UNL     1       0.279  12.505  20.148  0.00  0.00    +0.000 A 
ATOM     13  C   UNL     1      -0.549  13.155  19.219  0.00  0.00    +0.000 A 
ATOM     14  C   UNL     1      -0.213  14.417  18.716  0.00  0.00    +0.000 A 
ATOM     15  C   UNL     1       0.953  15.045  19.144  0.00  0.00    +0.000 A 
ATOM     16  C   UNL     1       1.756  14.428  20.103  0.00  0.00    +0.000 A 
ATOM     17  C   UNL     1       1.407  13.174  20.623  0.00  0.00    +0.000 A 
ENDBRANCH  11  12
ENDBRANCH   8  11
ENDBRANCH   3   5
BRANCH   2  18
ATOM     18  C   UNL     1       3.222   4.000  20.182  0.00  0.00    +0.000 A 
ATOM     19  C   UNL     1       2.936   2.996  21.105  0.00  0.00    +0.000 A 
ATOM     20  N   UNL     1       3.909   2.058  21.150  0.00  0.00    +0.000 NA
ATOM     21  N   UNL     1       4.824   2.405  20.276  0.00  0.00    +0.000 NA
ATOM     22  N   UNL     1       4.403   3.523  19.646  0.00  0.00    +0.000 N 
BRANCH  19  23
ATOM     23  O   UNL     1       1.834   2.957  21.884  0.00  0.00    +0.000 OA
ATOM     24  H   UNL     1       2.040   3.365  22.751  0.00  0.00    +0.000 HD
ENDBRANCH  19  23
BRANCH  22  25
ATOM     25  C   UNL     1       5.293   3.977  18.591  0.00  0.00    +0.000 C 
BRANCH  25  26
ATOM     26  C   UNL     1       4.593   4.754  17.429  0.00  0.00    +0.000 C 
ATOM     27  C   UNL     1       5.181   6.150  17.185  0.00  0.00    +0.000 C 
ATOM     28  C   UNL     1       6.649   6.071  16.780  0.00  0.00    +0.000 C 
ATOM     29  C   UNL     1       6.872   5.155  15.574  0.00  0.00    +0.000 C 
ATOM     30  C   UNL     1       6.121   3.822  15.633  0.00  0.00    +0.000 C 
ATOM     31  C   UNL     1       4.680   3.972  16.106  0.00  0.00    +0.000 C 
ENDBRANCH  25  26
ENDBRANCH  22  25
ENDBRANCH   2  18
TORSDOF 7
ENDMDL
MODEL 6
REMARK VINA RESULT:      -8.2      1.371      2.168
REMARK  Name = 
REMARK  7 active torsions:
REMARK  status: ('A' for Active; 'I' for Inactive)
REMARK    1  A    between atoms: C_2  and  C_17
REMARK    2  A    between atoms: N_3  and  C_4
REMARK    3  A    between atoms: C_7  and  O_8
REMARK    4  A    between atoms: O_8  and  C_9
REMARK    5  A    between atoms: C_18  and  O_19
REMARK    6  A    between atoms: N_22  and  C_23
REMARK    7  A    between atoms: C_23  and  C_24
REMARK                            x       y       z     vdW  Elec       q    Type
REMARK                         _______ _______ _______ _____ _____    ______ ____
ROOT
ATOM      1  O   UNL     1       1.320   5.104  19.159  0.00  0.00    +0.000 OA
ATOM      2  C   UNL     1       2.429   5.300  19.669  0.00  0.00    +0.000 C 
ATOM      3  N   UNL     1       2.814   6.591  20.028  0.00  0.00    +0.000 N 
ATOM      4  H   UNL     1       3.780   6.779  20.247  0.00  0.00    +0.000 HD
ENDROOT
BRANCH   3   5
ATOM      5  C   UNL     1       1.911   7.717  20.127  0.00  0.00    +0.000 A 
ATOM      6  C   UNL     1       1.709   8.650  19.096  0.00  0.00    +0.000 A 
ATOM      7  C   UNL     1       0.737   9.665  19.189  0.00  0.00    +0.000 A 
ATOM      8  C   UNL     1      -0.067   9.786  20.318  0.00  0.00    +0.000 A 
ATOM      9  C   UNL     1       0.181   8.930  21.391  0.00  0.00    +0.000 A 
ATOM     10  C   UNL     1       1.136   7.889  21.286  0.00  0.00    +0.000 A 
BRANCH   8  11
ATOM     11  O   UNL     1      -0.973  10.825  20.310  0.00  0.00    +0.000 OA
BRANCH  11  12
ATOM     12  C   UNL     1      -0.886  11.887  21.186  0.00  0.00    +0.000 A 
ATOM     13  C   UNL     1      -1.819  11.881  22.234  0.00  0.00    +0.000 A 
ATOM     14  C   UNL     1      -1.839  12.910  23.184  0.00  0.00    +0.000 A 
ATOM     15  C   UNL     1      -0.920  13.951  23.097  0.00  0.00    +0.000 A 
ATOM     16  C   UNL     1       0.042  13.938  22.088  0.00  0.00    +0.000 A 
ATOM     17  C   UNL     1       0.076  12.897  21.150  0.00  0.00    +0.000 A 
ENDBRANCH  11  12
ENDBRANCH   8  11
ENDBRANCH   3   5
BRANCH   2  18
ATOM     18  C   UNL     1       3.243   4.112  19.915  0.00  0.00    +0.000 A 
ATOM     19  C   UNL     1       3.022   3.303  21.027  0.00  0.00    +0.000 A 
ATOM     20  N   UNL     1       3.914   2.289  21.102  0.00  0.00    +0.000 NA
ATOM     21  N   UNL     1       4.712   2.397  20.065  0.00  0.00    +0.000 NA
ATOM     22  N   UNL     1       4.289   3.437  19.314  0.00  0.00    +0.000 N 
BRANCH  19  23
ATOM     23  O   UNL     1       2.050   3.502  21.943  0.00  0.00    +0.000 OA
ATOM     24  H   UNL     1       2.418   4.012  22.695  0.00  0.00    +0.000 HD
ENDBRANCH  19  23
BRANCH  22  25
ATOM     25  C   UNL     1       5.043   3.623  18.086  0.00  0.00    +0.000 C 
BRANCH  25  26
ATOM     26  C   UNL     1       6.093   4.781  18.128  0.00  0.00    +0.000 C 
ATOM     27  C   UNL     1       7.337   4.510  17.270  0.00  0.00    +0.000 C 
ATOM     28  C   UNL     1       6.973   4.359  15.798  0.00  0.00    +0.000 C 
ATOM     29  C   UNL     1       6.182   5.557  15.267  0.00  0.00    +0.000 C 
ATOM     30  C   UNL     1       5.059   6.043  16.187  0.00  0.00    +0.000 C 
ATOM     31  C   UNL     1       5.476   6.108  17.652  0.00  0.00    +0.000 C 
ENDBRANCH  25  26
ENDBRANCH  22  25
ENDBRANCH   2  18
TORSDOF 7
ENDMDL
MODEL 7
REMARK VINA RESULT:      -8.2      1.913      2.560
REMARK  Name = 
REMARK  7 active torsions:
REMARK  status: ('A' for Active; 'I' for Inactive)
REMARK    1  A    between atoms: C_2  and  C_17
REMARK    2  A    between atoms: N_3  and  C_4
REMARK    3  A    between atoms: C_7  and  O_8
REMARK    4  A    between atoms: O_8  and  C_9
REMARK    5  A    between atoms: C_18  and  O_19
REMARK    6  A    between atoms: N_22  and  C_23
REMARK    7  A    between atoms: C_23  and  C_24
REMARK                            x       y       z     vdW  Elec       q    Type
REMARK                         _______ _______ _______ _____ _____    ______ ____
ROOT
ATOM      1  O   UNL     1       1.056   5.044  20.481  0.00  0.00    +0.000 OA
ATOM      2  C   UNL     1       2.185   5.193  20.000  0.00  0.00    +0.000 C 
ATOM      3  N   UNL     1       2.582   6.444  19.528  0.00  0.00    +0.000 N 
ATOM      4  H   UNL     1       3.408   6.521  18.956  0.00  0.00    +0.000 HD
ENDROOT
BRANCH   3   5
ATOM      5  C   UNL     1       1.890   7.683  19.810  0.00  0.00    +0.000 A 
ATOM      6  C   UNL     1       1.432   8.050  21.086  0.00  0.00    +0.000 A 
ATOM      7  C   UNL     1       0.866   9.314  21.341  0.00  0.00    +0.000 A 
ATOM      8  C   UNL     1       0.732  10.257  20.326  0.00  0.00    +0.000 A 
ATOM      9  C   UNL     1       1.092   9.879  19.032  0.00  0.00    +0.000 A 
ATOM     10  C   UNL     1       1.692   8.620  18.782  0.00  0.00    +0.000 A 
BRANCH   8  11
ATOM     11  O   UNL     1       0.148  11.454  20.681  0.00  0.00    +0.000 OA
BRANCH  11  12
ATOM     12  C   UNL     1       0.554  12.659  20.147  0.00  0.00    +0.000 A 
ATOM     13  C   UNL     1      -0.414  13.337  19.388  0.00  0.00    +0.000 A 
ATOM     14  C   UNL     1      -0.122  14.566  18.784  0.00  0.00    +0.000 A 
ATOM     15  C   UNL     1       1.140  15.132  18.941  0.00  0.00    +0.000 A 
ATOM     16  C   UNL     1       2.091  14.489  19.733  0.00  0.00    +0.000 A 
ATOM     17  C   UNL     1       1.791  13.270  20.355  0.00  0.00    +0.000 A 
ENDBRANCH  11  12
ENDBRANCH   8  11
ENDBRANCH   3   5
BRANCH   2  18
ATOM     18  C   UNL     1       3.056   4.021  20.024  0.00  0.00    +0.000 A 
ATOM     19  C   UNL     1       3.065   3.151  21.112  0.00  0.00    +0.000 A 
ATOM     20  N   UNL     1       3.976   2.163  20.964  0.00  0.00    +0.000 NA
ATOM     21  N   UNL     1       4.563   2.347  19.804  0.00  0.00    +0.000 NA
ATOM     22  N   UNL     1       3.984   3.410  19.202  0.00  0.00    +0.000 N 
BRANCH  19  23
ATOM     23  O   UNL     1       2.278   3.274  22.203  0.00  0.00    +0.000 OA
ATOM     24  H   UNL     1       2.284   4.209  22.498  0.00  0.00    +0.000 HD
ENDBRANCH  19  23
BRANCH  22  25
ATOM     25  C   UNL     1       4.490   3.680  17.868  0.00  0.00    +0.000 C 
BRANCH  25  26
ATOM     26  C   UNL     1       5.821   4.500  17.822  0.00  0.00    +0.000 C 
ATOM     27  C   UNL     1       6.630   4.281  16.537  0.00  0.00    +0.000 C 
ATOM     28  C   UNL     1       5.849   4.727  15.306  0.00  0.00    +0.000 C 
ATOM     29  C   UNL     1       5.363   6.174  15.417  0.00  0.00    +0.000 C 
ATOM     30  C   UNL     1       4.748   6.542  16.770  0.00  0.00    +0.000 C 
ATOM     31  C   UNL     1       5.549   6.009  17.952  0.00  0.00    +0.000 C 
ENDBRANCH  25  26
ENDBRANCH  22  25
ENDBRANCH   2  18
TORSDOF 7
ENDMDL
MODEL 8
REMARK VINA RESULT:      -8.2      0.778      1.603
REMARK  Name = 
REMARK  7 active torsions:
REMARK  status: ('A' for Active; 'I' for Inactive)
REMARK    1  A    between atoms: C_2  and  C_17
REMARK    2  A    between atoms: N_3  and  C_4
REMARK    3  A    between atoms: C_7  and  O_8
REMARK    4  A    between atoms: O_8  and  C_9
REMARK    5  A    between atoms: C_18  and  O_19
REMARK    6  A    between atoms: N_22  and  C_23
REMARK    7  A    between atoms: C_23  and  C_24
REMARK                            x       y       z     vdW  Elec       q    Type
REMARK                         _______ _______ _______ _____ _____    ______ ____
ROOT
ATOM      1  O   UNL     1       1.214   5.416  20.988  0.00  0.00    +0.000 OA
ATOM      2  C   UNL     1       2.172   5.646  20.240  0.00  0.00    +0.000 C 
ATOM      3  N   UNL     1       2.385   6.937  19.757  0.00  0.00    +0.000 N 
ATOM      4  H   UNL     1       3.030   7.083  18.997  0.00  0.00    +0.000 HD
ENDROOT
BRANCH   3   5
ATOM      5  C   UNL     1       1.745   8.124  20.282  0.00  0.00    +0.000 A 
ATOM      6  C   UNL     1       1.511   8.346  21.649  0.00  0.00    +0.000 A 
ATOM      7  C   UNL     1       0.990   9.564  22.129  0.00  0.00    +0.000 A 
ATOM      8  C   UNL     1       0.679  10.603  21.257  0.00  0.00    +0.000 A 
ATOM      9  C   UNL     1       0.815  10.369  19.888  0.00  0.00    +0.000 A 
ATOM     10  C   UNL     1       1.370   9.157  19.409  0.00  0.00    +0.000 A 
BRANCH   8  11
ATOM     11  O   UNL     1       0.159  11.743  21.831  0.00  0.00    +0.000 OA
BRANCH  11  12
ATOM     12  C   UNL     1      -1.184  12.052  21.772  0.00  0.00    +0.000 A 
ATOM     13  C   UNL     1      -1.859  12.039  23.003  0.00  0.00    +0.000 A 
ATOM     14  C   UNL     1      -3.228  12.326  23.075  0.00  0.00    +0.000 A 
ATOM     15  C   UNL     1      -3.932  12.635  21.916  0.00  0.00    +0.000 A 
ATOM     16  C   UNL     1      -3.259  12.697  20.696  0.00  0.00    +0.000 A 
ATOM     17  C   UNL     1      -1.885  12.432  20.628  0.00  0.00    +0.000 A 
ENDBRANCH  11  12
ENDBRANCH   8  11
ENDBRANCH   3   5
BRANCH   2  18
ATOM     18  C   UNL     1       3.062   4.520  19.969  0.00  0.00    +0.000 A 
ATOM     19  C   UNL     1       2.640   3.206  20.154  0.00  0.00    +0.000 A 
ATOM     20  N   UNL     1       3.626   2.317  19.901  0.00  0.00    +0.000 NA
ATOM     21  N   UNL     1       4.686   3.004  19.542  0.00  0.00    +0.000 NA
ATOM     22  N   UNL     1       4.351   4.312  19.515  0.00  0.00    +0.000 N 
BRANCH  19  23
ATOM     23  O   UNL     1       1.403   2.844  20.558  0.00  0.00    +0.000 OA
ATOM     24  H   UNL     1       0.846   3.646  20.641  0.00  0.00    +0.000 HD
ENDBRANCH  19  23
BRANCH  22  25
ATOM     25  C   UNL     1       5.417   5.185  19.056  0.00  0.00    +0.000 C 
BRANCH  25  26
ATOM     26  C   UNL     1       5.068   6.046  17.799  0.00  0.00    +0.000 C 
ATOM     27  C   UNL     1       6.259   6.845  17.253  0.00  0.00    +0.000 C 
ATOM     28  C   UNL     1       7.384   5.922  16.799  0.00  0.00    +0.000 C 
ATOM     29  C   UNL     1       6.908   4.876  15.789  0.00  0.00    +0.000 C 
ATOM     30  C   UNL     1       5.586   4.192  16.149  0.00  0.00    +0.000 C 
ATOM     31  C   UNL     1       4.530   5.168  16.655  0.00  0.00    +0.000 C 
ENDBRANCH  25  26
ENDBRANCH  22  25
ENDBRANCH   2  18
TORSDOF 7
ENDMDL
MODEL 9
REMARK VINA RESULT:      -8.2      3.529      9.465
REMARK  Name = 
REMARK  7 active torsions:
REMARK  status: ('A' for Active; 'I' for Inactive)
REMARK    1  A    between atoms: C_2  and  C_17
REMARK    2  A    between atoms: N_3  and  C_4
REMARK    3  A    between atoms: C_7  and  O_8
REMARK    4  A    between atoms: O_8  and  C_9
REMARK    5  A    between atoms: C_18  and  O_19
REMARK    6  A    between atoms: N_22  and  C_23
REMARK    7  A    between atoms: C_23  and  C_24
REMARK                            x       y       z     vdW  Elec       q    Type
REMARK                         _______ _______ _______ _____ _____    ______ ____
ROOT
ATOM      1  O   UNL     1      -0.459   8.692  21.219  0.00  0.00    +0.000 OA
ATOM      2  C   UNL     1      -0.055   9.704  20.633  0.00  0.00    +0.000 C 
ATOM      3  N   UNL     1       1.128   9.657  19.896  0.00  0.00    +0.000 N 
ATOM      4  H   UNL     1       1.560  10.517  19.596  0.00  0.00    +0.000 HD
ENDROOT
BRANCH   3   5
ATOM      5  C   UNL     1       1.802   8.438  19.505  0.00  0.00    +0.000 A 
ATOM      6  C   UNL     1       1.975   7.334  20.355  0.00  0.00    +0.000 A 
ATOM      7  C   UNL     1       2.534   6.123  19.901  0.00  0.00    +0.000 A 
ATOM      8  C   UNL     1       2.947   5.975  18.580  0.00  0.00    +0.000 A 
ATOM      9  C   UNL     1       2.872   7.090  17.744  0.00  0.00    +0.000 A 
ATOM     10  C   UNL     1       2.279   8.296  18.192  0.00  0.00    +0.000 A 
BRANCH   8  11
ATOM     11  O   UNL     1       3.496   4.756  18.248  0.00  0.00    +0.000 OA
BRANCH  11  12
ATOM     12  C   UNL     1       4.732   4.643  17.646  0.00  0.00    +0.000 A 
ATOM     13  C   UNL     1       4.715   4.195  16.315  0.00  0.00    +0.000 A 
ATOM     14  C   UNL     1       5.905   4.030  15.597  0.00  0.00    +0.000 A 
ATOM     15  C   UNL     1       7.125   4.319  16.202  0.00  0.00    +0.000 A 
ATOM     16  C   UNL     1       7.148   4.811  17.507  0.00  0.00    +0.000 A 
ATOM     17  C   UNL     1       5.955   4.997  18.218  0.00  0.00    +0.000 A 
ENDBRANCH  11  12
ENDBRANCH   8  11
ENDBRANCH   3   5
BRANCH   2  18
ATOM     18  C   UNL     1      -0.914  10.882  20.716  0.00  0.00    +0.000 A 
ATOM     19  C   UNL     1      -1.053  11.591  21.907  0.00  0.00    +0.000 A 
ATOM     20  N   UNL     1      -1.932  12.611  21.790  0.00  0.00    +0.000 NA
ATOM     21  N   UNL     1      -2.371  12.606  20.552  0.00  0.00    +0.000 NA
ATOM     22  N   UNL     1      -1.729  11.624  19.882  0.00  0.00    +0.000 N 
BRANCH  19  23
ATOM     23  O   UNL     1      -0.410  11.297  23.057  0.00  0.00    +0.000 OA
ATOM     24  H   UNL     1      -0.775  10.466  23.426  0.00  0.00    +0.000 HD
ENDBRANCH  19  23
BRANCH  22  25
ATOM     25  C   UNL     1      -2.066  11.556  18.471  0.00  0.00    +0.000 C 
BRANCH  25  26
ATOM     26  C   UNL     1      -2.756  10.226  18.022  0.00  0.00    +0.000 C 
ATOM     27  C   UNL     1      -4.284  10.329  17.930  0.00  0.00    +0.000 C 
ATOM     28  C   UNL     1      -4.708  11.363  16.894  0.00  0.00    +0.000 C 
ATOM     29  C   UNL     1      -4.086  11.101  15.521  0.00  0.00    +0.000 C 
ATOM     30  C   UNL     1      -2.594  10.755  15.548  0.00  0.00    +0.000 C 
ATOM     31  C   UNL     1      -2.234   9.765  16.650  0.00  0.00    +0.000 C 
ENDBRANCH  25  26
ENDBRANCH  22  25
ENDBRANCH   2  18
TORSDOF 7
ENDMDL
