MODEL 1
REMARK VINA RESULT:      -7.8      0.000      0.000
REMARK  Name = 
REMARK  4 active torsions:
REMARK  status: ('A' for Active; 'I' for Inactive)
REMARK    1  A    between atoms: C_2  and  C_4
REMARK    2  A    between atoms: C_8  and  C_10
REMARK    3  A    between atoms: C_10  and  O_11
REMARK    4  A    between atoms: O_11  and  C_12
REMARK                            x       y       z     vdW  Elec       q    Type
REMARK                         _______ _______ _______ _____ _____    ______ ____
ROOT
ATOM      1  C   UNL     1       1.442   3.362  18.967  0.00  0.00    +0.000 C 
ATOM      2  C   UNL     1       1.920   4.287  17.839  0.00  0.00    +0.000 C 
ATOM      3  C   UNL     1       2.936   5.312  18.340  0.00  0.00    +0.000 C 
ATOM      4  N   UNL     1       2.377   6.064  19.457  0.00  0.00    +0.000 N 
ATOM      5  C   UNL     1       2.268   7.450  19.355  0.00  0.00    +0.000 C 
ATOM      6  O   UNL     1       2.658   8.059  18.354  0.00  0.00    +0.000 OA
ATOM      7  C   UNL     1       2.001   5.242  20.609  0.00  0.00    +0.000 C 
ATOM      8  C   UNL     1       0.981   4.177  20.190  0.00  0.00    +0.000 C 
ENDROOT
BRANCH   1  10
ATOM      9  N   UNL     1       2.896   1.490  18.350  0.00  0.00    +0.000 N 
ATOM     10  C   UNL     1       2.500   2.329  19.346  0.00  0.00    +0.000 C 
ATOM     11  O   UNL     1       2.961   2.205  20.476  0.00  0.00    +0.000 OA
ATOM     12  H   UNL     1       3.583   0.781  18.579  0.00  0.00    +0.000 HD
ATOM     13  H   UNL     1       2.554   1.535  17.401  0.00  0.00    +0.000 HD
ENDBRANCH   1  10
BRANCH   5  14
ATOM     14  C   UNL     1       1.571   8.218  20.481  0.00  0.00    +0.000 C 
BRANCH  14  15
ATOM     15  O   UNL     1       1.126   9.511  20.074  0.00  0.00    +0.000 OA
BRANCH  15  16
ATOM     16  C   UNL     1       0.206  10.094  20.914  0.00  0.00    +0.000 A 
ATOM     17  C   UNL     1       0.093   9.696  22.246  0.00  0.00    +0.000 A 
ATOM     18  C   UNL     1      -0.819  10.308  23.097  0.00  0.00    +0.000 A 
ATOM     19  C   UNL     1      -1.617  11.365  22.659  0.00  0.00    +0.000 A 
ATOM     20  C   UNL     1      -2.513  11.956  23.564  0.00  0.00    +0.000 A 
ATOM     21  C   UNL     1      -3.308  13.031  23.187  0.00  0.00    +0.000 A 
ATOM     22  C   UNL     1      -3.214  13.530  21.896  0.00  0.00    +0.000 A 
ATOM     23  C   UNL     1      -2.333  12.941  20.980  0.00  0.00    +0.000 A 
ATOM     24  C   UNL     1      -1.511  11.836  21.326  0.00  0.00    +0.000 A 
ATOM     25  C   UNL     1      -0.588  11.170  20.456  0.00  0.00    +0.000 A 
ATOM     26 BR   UNL     1      -0.430  11.703  18.624  0.00  0.00    +0.000 Br
ENDBRANCH  15  16
ENDBRANCH  14  15
ENDBRANCH   5  14
TORSDOF 4
ENDMDL
MODEL 2
REMARK VINA RESULT:      -7.7      3.188      8.644
REMARK  Name = 
REMARK  4 active torsions:
REMARK  status: ('A' for Active; 'I' for Inactive)
REMARK    1  A    between atoms: C_2  and  C_4
REMARK    2  A    between atoms: C_8  and  C_10
REMARK    3  A    between atoms: C_10  and  O_11
REMARK    4  A    between atoms: O_11  and  C_12
REMARK                            x       y       z     vdW  Elec       q    Type
REMARK                         _______ _______ _______ _____ _____    ______ ____
ROOT
ATOM      1  C   UNL     1      -1.476  11.993  19.642  0.00  0.00    +0.000 C 
ATOM      2  C   UNL     1      -0.882  12.229  21.037  0.00  0.00    +0.000 C 
ATOM      3  C   UNL     1       0.564  11.744  21.127  0.00  0.00    +0.000 C 
ATOM      4  N   UNL     1       0.645  10.342  20.733  0.00  0.00    +0.000 N 
ATOM      5  C   UNL     1       1.147   9.412  21.641  0.00  0.00    +0.000 C 
ATOM      6  O   UNL     1       1.549   9.748  22.760  0.00  0.00    +0.000 OA
ATOM      7  C   UNL     1       0.190  10.072  19.368  0.00  0.00    +0.000 C 
ATOM      8  C   UNL     1      -1.259  10.536  19.190  0.00  0.00    +0.000 C 
ENDROOT
BRANCH   1  10
ATOM      9  N   UNL     1      -1.148  12.665  17.310  0.00  0.00    +0.000 N 
ATOM     10  C   UNL     1      -0.937  12.986  18.615  0.00  0.00    +0.000 C 
ATOM     11  O   UNL     1      -0.314  14.002  18.907  0.00  0.00    +0.000 OA
ATOM     12  H   UNL     1      -0.783  13.297  16.606  0.00  0.00    +0.000 HD
ATOM     13  H   UNL     1      -1.648  11.844  17.001  0.00  0.00    +0.000 HD
ENDBRANCH   1  10
BRANCH   5  14
ATOM     14  C   UNL     1       1.117   7.927  21.266  0.00  0.00    +0.000 C 
BRANCH  14  15
ATOM     15  O   UNL     1       1.985   7.614  20.178  0.00  0.00    +0.000 OA
BRANCH  15  16
ATOM     16  C   UNL     1       2.179   6.269  19.965  0.00  0.00    +0.000 A 
ATOM     17  C   UNL     1       1.606   5.317  20.807  0.00  0.00    +0.000 A 
ATOM     18  C   UNL     1       1.784   3.959  20.570  0.00  0.00    +0.000 A 
ATOM     19  C   UNL     1       2.501   3.508  19.462  0.00  0.00    +0.000 A 
ATOM     20  C   UNL     1       2.638   2.125  19.262  0.00  0.00    +0.000 A 
ATOM     21  C   UNL     1       3.316   1.624  18.158  0.00  0.00    +0.000 A 
ATOM     22  C   UNL     1       3.865   2.503  17.237  0.00  0.00    +0.000 A 
ATOM     23  C   UNL     1       3.746   3.886  17.431  0.00  0.00    +0.000 A 
ATOM     24  C   UNL     1       3.067   4.435  18.551  0.00  0.00    +0.000 A 
ATOM     25  C   UNL     1       2.901   5.830  18.832  0.00  0.00    +0.000 A 
ATOM     26 BR   UNL     1       3.689   7.147  17.687  0.00  0.00    +0.000 Br
ENDBRANCH  15  16
ENDBRANCH  14  15
ENDBRANCH   5  14
TORSDOF 4
ENDMDL
MODEL 3
REMARK VINA RESULT:      -7.7      2.815      3.803
REMARK  Name = 
REMARK  4 active torsions:
REMARK  status: ('A' for Active; 'I' for Inactive)
REMARK    1  A    between atoms: C_2  and  C_4
REMARK    2  A    between atoms: C_8  and  C_10
REMARK    3  A    between atoms: C_10  and  O_11
REMARK    4  A    between atoms: O_11  and  C_12
REMARK                            x       y       z     vdW  Elec       q    Type
REMARK                         _______ _______ _______ _____ _____    ______ ____
ROOT
ATOM      1  C   UNL     1       6.930   6.213  17.587  0.00  0.00    +0.000 C 
ATOM      2  C   UNL     1       6.667   5.579  18.960  0.00  0.00    +0.000 C 
ATOM      3  C   UNL     1       5.401   4.723  18.955  0.00  0.00    +0.000 C 
ATOM      4  N   UNL     1       4.265   5.515  18.497  0.00  0.00    +0.000 N 
ATOM      5  C   UNL     1       3.164   5.669  19.336  0.00  0.00    +0.000 C 
ATOM      6  O   UNL     1       3.113   5.131  20.447  0.00  0.00    +0.000 OA
ATOM      7  C   UNL     1       4.415   6.058  17.146  0.00  0.00    +0.000 C 
ATOM      8  C   UNL     1       5.672   6.931  17.061  0.00  0.00    +0.000 C 
ENDROOT
BRANCH   1  10
ATOM      9  N   UNL     1       7.306   5.522  15.268  0.00  0.00    +0.000 N 
ATOM     10  C   UNL     1       7.459   5.195  16.579  0.00  0.00    +0.000 C 
ATOM     11  O   UNL     1       7.963   4.121  16.892  0.00  0.00    +0.000 OA
ATOM     12  H   UNL     1       7.630   4.856  14.577  0.00  0.00    +0.000 HD
ATOM     13  H   UNL     1       6.897   6.387  14.943  0.00  0.00    +0.000 HD
ENDBRANCH   1  10
BRANCH   5  14
ATOM     14  C   UNL     1       2.028   6.599  18.898  0.00  0.00    +0.000 C 
BRANCH  14  15
ATOM     15  O   UNL     1       2.312   7.974  19.150  0.00  0.00    +0.000 OA
BRANCH  15  16
ATOM     16  C   UNL     1       1.489   8.572  20.075  0.00  0.00    +0.000 A 
ATOM     17  C   UNL     1       1.097   7.899  21.232  0.00  0.00    +0.000 A 
ATOM     18  C   UNL     1       0.287   8.518  22.176  0.00  0.00    +0.000 A 
ATOM     19  C   UNL     1      -0.122   9.842  22.018  0.00  0.00    +0.000 A 
ATOM     20  C   UNL     1      -0.928  10.423  23.009  0.00  0.00    +0.000 A 
ATOM     21  C   UNL     1      -1.337  11.748  22.915  0.00  0.00    +0.000 A 
ATOM     22  C   UNL     1      -0.941  12.509  21.826  0.00  0.00    +0.000 A 
ATOM     23  C   UNL     1      -0.146  11.937  20.824  0.00  0.00    +0.000 A 
ATOM     24  C   UNL     1       0.284  10.585  20.881  0.00  0.00    +0.000 A 
ATOM     25  C   UNL     1       1.092   9.917  19.904  0.00  0.00    +0.000 A 
ATOM     26 BR   UNL     1       1.630  10.830  18.309  0.00  0.00    +0.000 Br
ENDBRANCH  15  16
ENDBRANCH  14  15
ENDBRANCH   5  14
TORSDOF 4
ENDMDL
MODEL 4
REMARK VINA RESULT:      -7.7      1.706      2.480
REMARK  Name = 
REMARK  4 active torsions:
REMARK  status: ('A' for Active; 'I' for Inactive)
REMARK    1  A    between atoms: C_2  and  C_4
REMARK    2  A    between atoms: C_8  and  C_10
REMARK    3  A    between atoms: C_10  and  O_11
REMARK    4  A    between atoms: O_11  and  C_12
REMARK                            x       y       z     vdW  Elec       q    Type
REMARK                         _______ _______ _______ _____ _____    ______ ____
ROOT
ATOM      1  C   UNL     1       2.588   2.951  17.435  0.00  0.00    +0.000 C 
ATOM      2  C   UNL     1       3.844   3.703  16.976  0.00  0.00    +0.000 C 
ATOM      3  C   UNL     1       4.245   4.794  17.967  0.00  0.00    +0.000 C 
ATOM      4  N   UNL     1       3.124   5.699  18.192  0.00  0.00    +0.000 N 
ATOM      5  C   UNL     1       3.279   7.054  17.907  0.00  0.00    +0.000 C 
ATOM      6  O   UNL     1       4.349   7.513  17.493  0.00  0.00    +0.000 OA
ATOM      7  C   UNL     1       1.927   5.053  18.734  0.00  0.00    +0.000 C 
ATOM      8  C   UNL     1       1.459   3.934  17.797  0.00  0.00    +0.000 C 
ENDROOT
BRANCH   1  10
ATOM      9  N   UNL     1       4.019   1.246  18.458  0.00  0.00    +0.000 N 
ATOM     10  C   UNL     1       2.885   1.988  18.583  0.00  0.00    +0.000 C 
ATOM     11  O   UNL     1       2.153   1.836  19.555  0.00  0.00    +0.000 OA
ATOM     12  H   UNL     1       4.230   0.584  19.196  0.00  0.00    +0.000 HD
ATOM     13  H   UNL     1       4.662   1.319  17.682  0.00  0.00    +0.000 HD
ENDBRANCH   1  10
BRANCH   5  14
ATOM     14  C   UNL     1       2.062   7.977  18.032  0.00  0.00    +0.000 C 
BRANCH  14  15
ATOM     15  O   UNL     1       1.891   8.489  19.353  0.00  0.00    +0.000 OA
BRANCH  15  16
ATOM     16  C   UNL     1       0.928   9.464  19.471  0.00  0.00    +0.000 A 
ATOM     17  C   UNL     1       0.314  10.010  18.344  0.00  0.00    +0.000 A 
ATOM     18  C   UNL     1      -0.678  10.975  18.472  0.00  0.00    +0.000 A 
ATOM     19  C   UNL     1      -1.118  11.395  19.727  0.00  0.00    +0.000 A 
ATOM     20  C   UNL     1      -2.133  12.363  19.798  0.00  0.00    +0.000 A 
ATOM     21  C   UNL     1      -2.629  12.793  21.023  0.00  0.00    +0.000 A 
ATOM     22  C   UNL     1      -2.115  12.255  22.194  0.00  0.00    +0.000 A 
ATOM     23  C   UNL     1      -1.094  11.297  22.137  0.00  0.00    +0.000 A 
ATOM     24  C   UNL     1      -0.557  10.840  20.904  0.00  0.00    +0.000 A 
ATOM     25  C   UNL     1       0.487   9.871  20.750  0.00  0.00    +0.000 A 
ATOM     26 BR   UNL     1       1.343   9.120  22.290  0.00  0.00    +0.000 Br
ENDBRANCH  15  16
ENDBRANCH  14  15
ENDBRANCH   5  14
TORSDOF 4
ENDMDL
MODEL 5
REMARK VINA RESULT:      -7.4      4.042      6.354
REMARK  Name = 
REMARK  4 active torsions:
REMARK  status: ('A' for Active; 'I' for Inactive)
REMARK    1  A    between atoms: C_2  and  C_4
REMARK    2  A    between atoms: C_8  and  C_10
REMARK    3  A    between atoms: C_10  and  O_11
REMARK    4  A    between atoms: O_11  and  C_12
REMARK                            x       y       z     vdW  Elec       q    Type
REMARK                         _______ _______ _______ _____ _____    ______ ____
ROOT
ATOM      1  C   UNL     1       5.880   5.420  14.801  0.00  0.00    +0.000 C 
ATOM      2  C   UNL     1       6.497   6.230  15.950  0.00  0.00    +0.000 C 
ATOM      3  C   UNL     1       7.100   5.324  17.022  0.00  0.00    +0.000 C 
ATOM      4  N   UNL     1       6.096   4.382  17.501  0.00  0.00    +0.000 N 
ATOM      5  C   UNL     1       5.765   4.373  18.855  0.00  0.00    +0.000 C 
ATOM      6  O   UNL     1       6.319   5.126  19.663  0.00  0.00    +0.000 OA
ATOM      7  C   UNL     1       5.548   3.505  16.465  0.00  0.00    +0.000 C 
ATOM      8  C   UNL     1       4.924   4.339  15.340  0.00  0.00    +0.000 C 
ENDROOT
BRANCH   1  10
ATOM      9  N   UNL     1       8.105   5.528  13.782  0.00  0.00    +0.000 N 
ATOM     10  C   UNL     1       6.947   4.821  13.887  0.00  0.00    +0.000 C 
ATOM     11  O   UNL     1       6.794   3.790  13.240  0.00  0.00    +0.000 OA
ATOM     12  H   UNL     1       8.823   5.164  13.166  0.00  0.00    +0.000 HD
ATOM     13  H   UNL     1       8.294   6.384  14.283  0.00  0.00    +0.000 HD
ENDBRANCH   1  10
BRANCH   5  14
ATOM     14  C   UNL     1       4.626   3.466  19.329  0.00  0.00    +0.000 C 
BRANCH  14  15
ATOM     15  O   UNL     1       3.379   3.775  18.709  0.00  0.00    +0.000 OA
BRANCH  15  16
ATOM     16  C   UNL     1       2.970   5.080  18.858  0.00  0.00    +0.000 A 
ATOM     17  C   UNL     1       3.137   6.008  17.830  0.00  0.00    +0.000 A 
ATOM     18  C   UNL     1       2.697   7.318  17.976  0.00  0.00    +0.000 A 
ATOM     19  C   UNL     1       2.038   7.733  19.133  0.00  0.00    +0.000 A 
ATOM     20  C   UNL     1       1.602   9.064  19.222  0.00  0.00    +0.000 A 
ATOM     21  C   UNL     1       0.914   9.520  20.340  0.00  0.00    +0.000 A 
ATOM     22  C   UNL     1       0.651   8.645  21.384  0.00  0.00    +0.000 A 
ATOM     23  C   UNL     1       1.092   7.317  21.312  0.00  0.00    +0.000 A 
ATOM     24  C   UNL     1       1.805   6.818  20.190  0.00  0.00    +0.000 A 
ATOM     25  C   UNL     1       2.296   5.481  20.033  0.00  0.00    +0.000 A 
ATOM     26 BR   UNL     1       2.078   4.200  21.439  0.00  0.00    +0.000 Br
ENDBRANCH  15  16
ENDBRANCH  14  15
ENDBRANCH   5  14
TORSDOF 4
ENDMDL
MODEL 6
REMARK VINA RESULT:      -7.4      1.359      1.950
REMARK  Name = 
REMARK  4 active torsions:
REMARK  status: ('A' for Active; 'I' for Inactive)
REMARK    1  A    between atoms: C_2  and  C_4
REMARK    2  A    between atoms: C_8  and  C_10
REMARK    3  A    between atoms: C_10  and  O_11
REMARK    4  A    between atoms: O_11  and  C_12
REMARK                            x       y       z     vdW  Elec       q    Type
REMARK                         _______ _______ _______ _____ _____    ______ ____
ROOT
ATOM      1  C   UNL     1       1.322   3.415  19.111  0.00  0.00    +0.000 C 
ATOM      2  C   UNL     1       1.524   4.299  17.873  0.00  0.00    +0.000 C 
ATOM      3  C   UNL     1       2.629   5.332  18.090  0.00  0.00    +0.000 C 
ATOM      4  N   UNL     1       2.346   6.123  19.282  0.00  0.00    +0.000 N 
ATOM      5  C   UNL     1       2.217   7.506  19.163  0.00  0.00    +0.000 C 
ATOM      6  O   UNL     1       2.362   8.080  18.079  0.00  0.00    +0.000 OA
ATOM      7  C   UNL     1       2.248   5.341  20.515  0.00  0.00    +0.000 C 
ATOM      8  C   UNL     1       1.159   4.272  20.380  0.00  0.00    +0.000 C 
ENDROOT
BRANCH   1  10
ATOM      9  N   UNL     1       2.613   1.534  18.219  0.00  0.00    +0.000 N 
ATOM     10  C   UNL     1       2.439   2.385  19.267  0.00  0.00    +0.000 C 
ATOM     11  O   UNL     1       3.133   2.275  20.273  0.00  0.00    +0.000 OA
ATOM     12  H   UNL     1       3.335   0.828  18.304  0.00  0.00    +0.000 HD
ATOM     13  H   UNL     1       2.075   1.568  17.366  0.00  0.00    +0.000 HD
ENDBRANCH   1  10
BRANCH   5  14
ATOM     14  C   UNL     1       1.801   8.315  20.395  0.00  0.00    +0.000 C 
BRANCH  14  15
ATOM     15  O   UNL     1       0.386   8.394  20.552  0.00  0.00    +0.000 OA
BRANCH  15  16
ATOM     16  C   UNL     1      -0.129   9.668  20.498  0.00  0.00    +0.000 A 
ATOM     17  C   UNL     1      -0.412  10.279  19.277  0.00  0.00    +0.000 A 
ATOM     18  C   UNL     1      -0.958  11.557  19.230  0.00  0.00    +0.000 A 
ATOM     19  C   UNL     1      -1.280  12.247  20.399  0.00  0.00    +0.000 A 
ATOM     20  C   UNL     1      -1.842  13.529  20.293  0.00  0.00    +0.000 A 
ATOM     21  C   UNL     1      -2.209  14.246  21.426  0.00  0.00    +0.000 A 
ATOM     22  C   UNL     1      -2.018  13.686  22.680  0.00  0.00    +0.000 A 
ATOM     23  C   UNL     1      -1.447  12.412  22.799  0.00  0.00    +0.000 A 
ATOM     24  C   UNL     1      -1.052  11.653  21.665  0.00  0.00    +0.000 A 
ATOM     25  C   UNL     1      -0.458  10.349  21.692  0.00  0.00    +0.000 A 
ATOM     26 BR   UNL     1      -0.059   9.503  23.362  0.00  0.00    +0.000 Br
ENDBRANCH  15  16
ENDBRANCH  14  15
ENDBRANCH   5  14
TORSDOF 4
ENDMDL
MODEL 7
REMARK VINA RESULT:      -7.3      3.125      4.385
REMARK  Name = 
REMARK  4 active torsions:
REMARK  status: ('A' for Active; 'I' for Inactive)
REMARK    1  A    between atoms: C_2  and  C_4
REMARK    2  A    between atoms: C_8  and  C_10
REMARK    3  A    between atoms: C_10  and  O_11
REMARK    4  A    between atoms: O_11  and  C_12
REMARK                            x       y       z     vdW  Elec       q    Type
REMARK                         _______ _______ _______ _____ _____    ______ ____
ROOT
ATOM      1  C   UNL     1       6.918   6.228  17.796  0.00  0.00    +0.000 C 
ATOM      2  C   UNL     1       6.667   5.494  19.120  0.00  0.00    +0.000 C 
ATOM      3  C   UNL     1       5.402   4.639  19.063  0.00  0.00    +0.000 C 
ATOM      4  N   UNL     1       4.262   5.461  18.675  0.00  0.00    +0.000 N 
ATOM      5  C   UNL     1       3.167   5.551  19.532  0.00  0.00    +0.000 C 
ATOM      6  O   UNL     1       3.127   4.932  20.601  0.00  0.00    +0.000 OA
ATOM      7  C   UNL     1       4.399   6.103  17.366  0.00  0.00    +0.000 C 
ATOM      8  C   UNL     1       5.655   6.981  17.335  0.00  0.00    +0.000 C 
ENDROOT
BRANCH   1  10
ATOM      9  N   UNL     1       7.221   5.683  15.427  0.00  0.00    +0.000 N 
ATOM     10  C   UNL     1       7.439   5.288  16.711  0.00  0.00    +0.000 C 
ATOM     11  O   UNL     1       7.991   4.217  16.941  0.00  0.00    +0.000 OA
ATOM     12  H   UNL     1       7.539   5.068  14.687  0.00  0.00    +0.000 HD
ATOM     13  H   UNL     1       6.770   6.549  15.169  0.00  0.00    +0.000 HD
ENDBRANCH   1  10
BRANCH   5  14
ATOM     14  C   UNL     1       2.028   6.509  19.174  0.00  0.00    +0.000 C 
BRANCH  14  15
ATOM     15  O   UNL     1       1.735   7.435  20.219  0.00  0.00    +0.000 OA
BRANCH  15  16
ATOM     16  C   UNL     1       1.421   8.705  19.792  0.00  0.00    +0.000 A 
ATOM     17  C   UNL     1       1.948   9.217  18.606  0.00  0.00    +0.000 A 
ATOM     18  C   UNL     1       1.605  10.489  18.166  0.00  0.00    +0.000 A 
ATOM     19  C   UNL     1       0.692  11.274  18.871  0.00  0.00    +0.000 A 
ATOM     20  C   UNL     1       0.370  12.547  18.374  0.00  0.00    +0.000 A 
ATOM     21  C   UNL     1      -0.557  13.356  19.020  0.00  0.00    +0.000 A 
ATOM     22  C   UNL     1      -1.175  12.898  20.174  0.00  0.00    +0.000 A 
ATOM     23  C   UNL     1      -0.854  11.634  20.687  0.00  0.00    +0.000 A 
ATOM     24  C   UNL     1       0.094  10.783  20.058  0.00  0.00    +0.000 A 
ATOM     25  C   UNL     1       0.487   9.482  20.512  0.00  0.00    +0.000 A 
ATOM     26 BR   UNL     1      -0.226   8.771  22.141  0.00  0.00    +0.000 Br
ENDBRANCH  15  16
ENDBRANCH  14  15
ENDBRANCH   5  14
TORSDOF 4
ENDMDL
MODEL 8
REMARK VINA RESULT:      -7.3      1.518      2.144
REMARK  Name = 
REMARK  4 active torsions:
REMARK  status: ('A' for Active; 'I' for Inactive)
REMARK    1  A    between atoms: C_2  and  C_4
REMARK    2  A    between atoms: C_8  and  C_10
REMARK    3  A    between atoms: C_10  and  O_11
REMARK    4  A    between atoms: O_11  and  C_12
REMARK                            x       y       z     vdW  Elec       q    Type
REMARK                         _______ _______ _______ _____ _____    ______ ____
ROOT
ATOM      1  C   UNL     1       3.263   3.047  18.044  0.00  0.00    +0.000 C 
ATOM      2  C   UNL     1       4.462   3.864  17.543  0.00  0.00    +0.000 C 
ATOM      3  C   UNL     1       4.649   5.148  18.350  0.00  0.00    +0.000 C 
ATOM      4  N   UNL     1       3.417   5.929  18.337  0.00  0.00    +0.000 N 
ATOM      5  C   UNL     1       3.442   7.226  17.828  0.00  0.00    +0.000 C 
ATOM      6  O   UNL     1       4.485   7.740  17.411  0.00  0.00    +0.000 OA
ATOM      7  C   UNL     1       2.259   5.237  18.905  0.00  0.00    +0.000 C 
ATOM      8  C   UNL     1       2.003   3.926  18.152  0.00  0.00    +0.000 C 
ENDROOT
BRANCH   1  10
ATOM      9  N   UNL     1       4.826   1.840  19.493  0.00  0.00    +0.000 N 
ATOM     10  C   UNL     1       3.566   2.336  19.361  0.00  0.00    +0.000 C 
ATOM     11  O   UNL     1       2.741   2.167  20.254  0.00  0.00    +0.000 OA
ATOM     12  H   UNL     1       5.049   1.345  20.349  0.00  0.00    +0.000 HD
ATOM     13  H   UNL     1       5.551   1.940  18.796  0.00  0.00    +0.000 HD
ENDBRANCH   1  10
BRANCH   5  14
ATOM     14  C   UNL     1       2.123   7.995  17.707  0.00  0.00    +0.000 C 
BRANCH  14  15
ATOM     15  O   UNL     1       2.196   9.307  18.261  0.00  0.00    +0.000 OA
BRANCH  15  16
ATOM     16  C   UNL     1       1.422   9.505  19.380  0.00  0.00    +0.000 A 
ATOM     17  C   UNL     1       1.121   8.450  20.242  0.00  0.00    +0.000 A 
ATOM     18  C   UNL     1       0.360   8.662  21.386  0.00  0.00    +0.000 A 
ATOM     19  C   UNL     1      -0.087   9.938  21.729  0.00  0.00    +0.000 A 
ATOM     20  C   UNL     1      -0.841  10.097  22.903  0.00  0.00    +0.000 A 
ATOM     21  C   UNL     1      -1.284  11.350  23.305  0.00  0.00    +0.000 A 
ATOM     22  C   UNL     1      -0.977  12.463  22.537  0.00  0.00    +0.000 A 
ATOM     23  C   UNL     1      -0.236  12.316  21.356  0.00  0.00    +0.000 A 
ATOM     24  C   UNL     1       0.227  11.050  20.909  0.00  0.00    +0.000 A 
ATOM     25  C   UNL     1       0.984  10.805  19.717  0.00  0.00    +0.000 A 
ATOM     26 BR   UNL     1       1.397  12.243  18.522  0.00  0.00    +0.000 Br
ENDBRANCH  15  16
ENDBRANCH  14  15
ENDBRANCH   5  14
TORSDOF 4
ENDMDL
MODEL 9
REMARK VINA RESULT:      -7.3      2.124      3.192
REMARK  Name = 
REMARK  4 active torsions:
REMARK  status: ('A' for Active; 'I' for Inactive)
REMARK    1  A    between atoms: C_2  and  C_4
REMARK    2  A    between atoms: C_8  and  C_10
REMARK    3  A    between atoms: C_10  and  O_11
REMARK    4  A    between atoms: O_11  and  C_12
REMARK                            x       y       z     vdW  Elec       q    Type
REMARK                         _______ _______ _______ _____ _____    ______ ____
ROOT
ATOM      1  C   UNL     1       5.587   5.827  17.660  0.00  0.00    +0.000 C 
ATOM      2  C   UNL     1       5.604   4.910  18.890  0.00  0.00    +0.000 C 
ATOM      3  C   UNL     1       4.259   4.216  19.098  0.00  0.00    +0.000 C 
ATOM      4  N   UNL     1       3.192   5.208  19.175  0.00  0.00    +0.000 N 
ATOM      5  C   UNL     1       2.403   5.267  20.322  0.00  0.00    +0.000 C 
ATOM      6  O   UNL     1       2.567   4.484  21.264  0.00  0.00    +0.000 OA
ATOM      7  C   UNL     1       3.058   6.044  17.981  0.00  0.00    +0.000 C 
ATOM      8  C   UNL     1       4.374   6.776  17.696  0.00  0.00    +0.000 C 
ENDROOT
BRANCH   1  10
ATOM      9  N   UNL     1       6.202   3.797  16.435  0.00  0.00    +0.000 N 
ATOM     10  C   UNL     1       5.642   5.035  16.355  0.00  0.00    +0.000 C 
ATOM     11  O   UNL     1       5.251   5.467  15.275  0.00  0.00    +0.000 OA
ATOM     12  H   UNL     1       6.269   3.257  15.580  0.00  0.00    +0.000 HD
ATOM     13  H   UNL     1       6.546   3.384  17.289  0.00  0.00    +0.000 HD
ENDBRANCH   1  10
BRANCH   5  14
ATOM     14  C   UNL     1       1.366   6.387  20.446  0.00  0.00    +0.000 C 
BRANCH  14  15
ATOM     15  O   UNL     1       1.957   7.685  20.478  0.00  0.00    +0.000 OA
BRANCH  15  16
ATOM     16  C   UNL     1       1.124   8.686  20.923  0.00  0.00    +0.000 A 
ATOM     17  C   UNL     1       0.782   8.792  22.272  0.00  0.00    +0.000 A 
ATOM     18  C   UNL     1      -0.038   9.820  22.719  0.00  0.00    +0.000 A 
ATOM     19  C   UNL     1      -0.507  10.801  21.845  0.00  0.00    +0.000 A 
ATOM     20  C   UNL     1      -1.321  11.826  22.352  0.00  0.00    +0.000 A 
ATOM     21  C   UNL     1      -1.789  12.843  21.530  0.00  0.00    +0.000 A 
ATOM     22  C   UNL     1      -1.446  12.847  20.186  0.00  0.00    +0.000 A 
ATOM     23  C   UNL     1      -0.644  11.823  19.665  0.00  0.00    +0.000 A 
ATOM     24  C   UNL     1      -0.154  10.763  20.473  0.00  0.00    +0.000 A 
ATOM     25  C   UNL     1       0.665   9.675  20.026  0.00  0.00    +0.000 A 
ATOM     26 BR   UNL     1       1.134   9.516  18.176  0.00  0.00    +0.000 Br
ENDBRANCH  15  16
ENDBRANCH  14  15
ENDBRANCH   5  14
TORSDOF 4
ENDMDL
