MODEL 1
REMARK VINA RESULT:      -8.3      0.000      0.000
REMARK  Name = 
REMARK  12 active torsions:
REMARK  status: ('A' for Active; 'I' for Inactive)
REMARK    1  A    between atoms: C_1  and  C_2
REMARK    2  A    between atoms: C_2  and  C_3
REMARK    3  A    between atoms: C_3  and  C_4
REMARK    4  A    between atoms: C_3  and  C_5
REMARK    5  A    between atoms: C_5  and  N_6
REMARK    6  A    between atoms: C_5  and  C_17
REMARK    7  A    between atoms: N_9  and  C_10
REMARK    8  A    between atoms: N_19  and  C_20
REMARK    9  A    between atoms: C_20  and  C_21
REMARK   10  A    between atoms: C_20  and  C_31
REMARK   11  A    between atoms: C_21  and  C_22
REMARK   12  A    between atoms: N_33  and  O_34
REMARK                            x       y       z     vdW  Elec       q    Type
REMARK                         _______ _______ _______ _____ _____    ______ ____
ROOT
ATOM      1  C   UNL     1       4.459   6.427  17.561  0.00  0.00    +0.000 C 
ATOM      2  O   UNL     1       4.652   7.145  16.583  0.00  0.00    +0.000 OA
ATOM      3  N   UNL     1       5.488   5.739  18.165  0.00  0.00    +0.000 N 
ATOM      4  H   UNL     1       5.282   5.237  19.021  0.00  0.00    +0.000 HD
ENDROOT
BRANCH   1   5
ATOM      5  C   UNL     1       3.034   6.092  18.090  0.00  0.00    +0.000 C 
BRANCH   5   6
ATOM      6  N   UNL     1       2.647   7.001  19.178  0.00  0.00    +0.000 N 
ATOM      7  C   UNL     1       1.839   8.085  18.888  0.00  0.00    +0.000 C 
ATOM      8  O   UNL     1       1.507   8.392  17.753  0.00  0.00    +0.000 OA
ATOM      9  N   UNL     1       1.556   8.783  20.044  0.00  0.00    +0.000 N 
ATOM     10  H   UNL     1       2.329   6.547  20.023  0.00  0.00    +0.000 HD
ATOM     11  H   UNL     1       2.324   8.763  20.704  0.00  0.00    +0.000 HD
BRANCH   9  12
ATOM     12  C   UNL     1       0.845  10.008  20.022  0.00  0.00    +0.000 A 
ATOM     13  C   UNL     1       1.099  10.977  19.047  0.00  0.00    +0.000 A 
ATOM     14  C   UNL     1       0.378  12.175  19.050  0.00  0.00    +0.000 A 
ATOM     15  C   UNL     1      -0.579  12.418  20.036  0.00  0.00    +0.000 A 
ATOM     16  C   UNL     1      -0.838  11.453  21.010  0.00  0.00    +0.000 A 
ATOM     17  C   UNL     1      -0.144  10.244  20.991  0.00  0.00    +0.000 A 
ATOM     18 CL   UNL     1      -0.467   9.079  22.228  0.00  0.00    +0.000 Cl
ENDBRANCH   9  12
ENDBRANCH   5   6
BRANCH   5  19
ATOM     19  C   UNL     1       2.964   4.602  18.539  0.00  0.00    +0.000 C 
ATOM     20  C   UNL     1       2.747   4.436  20.056  0.00  0.00    +0.000 C 
BRANCH  19  22
ATOM     21  C   UNL     1       1.707   2.364  18.296  0.00  0.00    +0.000 C 
ATOM     22  C   UNL     1       1.861   3.798  17.813  0.00  0.00    +0.000 C 
ENDBRANCH  19  22
ENDBRANCH   5  19
ENDBRANCH   1   5
BRANCH   3  23
ATOM     23  C   UNL     1       6.886   5.853  17.738  0.00  0.00    +0.000 C 
BRANCH  23  24
ATOM     24  C   UNL     1       7.757   6.088  18.983  0.00  0.00    +0.000 C 
ATOM     25  O   UNL     1       8.486   7.069  19.136  0.00  0.00    +0.000 OA
ATOM     26  N   UNL     1       7.613   5.148  19.978  0.00  0.00    +0.000 N 
ATOM     27  H   UNL     1       7.217   4.223  19.824  0.00  0.00    +0.000 HD
BRANCH  26  28
ATOM     28  O   UNL     1       8.459   5.313  21.100  0.00  0.00    +0.000 OA
ATOM     29  H   UNL     1       7.847   5.160  21.854  0.00  0.00    +0.000 HD
ENDBRANCH  26  28
ENDBRANCH  23  24
BRANCH  23  30
ATOM     30  C   UNL     1       7.377   4.596  16.994  0.00  0.00    +0.000 C 
BRANCH  30  31
ATOM     31  C   UNL     1       6.874   4.405  15.590  0.00  0.00    +0.000 A 
ATOM     32  C   UNL     1       5.687   3.838  15.163  0.00  0.00    +0.000 A 
ATOM     33  C   UNL     1       5.706   3.777  13.744  0.00  0.00    +0.000 A 
ATOM     34  C   UNL     1       4.808   3.292  12.770  0.00  0.00    +0.000 A 
ATOM     35  C   UNL     1       5.157   3.360  11.418  0.00  0.00    +0.000 A 
ATOM     36  C   UNL     1       6.381   3.898  11.031  0.00  0.00    +0.000 A 
ATOM     37  C   UNL     1       7.287   4.391  11.978  0.00  0.00    +0.000 A 
ATOM     38  C   UNL     1       6.919   4.320  13.327  0.00  0.00    +0.000 A 
ATOM     39  N   UNL     1       7.600   4.708  14.461  0.00  0.00    +0.000 N 
ATOM     40  H   UNL     1       8.518   5.133  14.445  0.00  0.00    +0.000 HD
ENDBRANCH  30  31
ENDBRANCH  23  30
ENDBRANCH   3  23
TORSDOF 10
ENDMDL
MODEL 2
REMARK VINA RESULT:      -8.3      0.992      1.089
REMARK  Name = 
REMARK  12 active torsions:
REMARK  status: ('A' for Active; 'I' for Inactive)
REMARK    1  A    between atoms: C_1  and  C_2
REMARK    2  A    between atoms: C_2  and  C_3
REMARK    3  A    between atoms: C_3  and  C_4
REMARK    4  A    between atoms: C_3  and  C_5
REMARK    5  A    between atoms: C_5  and  N_6
REMARK    6  A    between atoms: C_5  and  C_17
REMARK    7  A    between atoms: N_9  and  C_10
REMARK    8  A    between atoms: N_19  and  C_20
REMARK    9  A    between atoms: C_20  and  C_21
REMARK   10  A    between atoms: C_20  and  C_31
REMARK   11  A    between atoms: C_21  and  C_22
REMARK   12  A    between atoms: N_33  and  O_34
REMARK                            x       y       z     vdW  Elec       q    Type
REMARK                         _______ _______ _______ _____ _____    ______ ____
ROOT
ATOM      1  C   UNL     1       3.868   6.514  18.408  0.00  0.00    +0.000 C 
ATOM      2  O   UNL     1       3.989   7.394  17.559  0.00  0.00    +0.000 OA
ATOM      3  N   UNL     1       4.871   5.602  18.648  0.00  0.00    +0.000 N 
ATOM      4  H   UNL     1       4.748   4.958  19.422  0.00  0.00    +0.000 HD
ENDROOT
BRANCH   1   5
ATOM      5  C   UNL     1       2.528   6.243  19.151  0.00  0.00    +0.000 C 
BRANCH   5   6
ATOM      6  N   UNL     1       2.334   7.193  20.255  0.00  0.00    +0.000 N 
ATOM      7  C   UNL     1       1.579   8.331  20.033  0.00  0.00    +0.000 C 
ATOM      8  O   UNL     1       1.143   8.644  18.935  0.00  0.00    +0.000 OA
ATOM      9  N   UNL     1       1.480   9.065  21.196  0.00  0.00    +0.000 N 
ATOM     10  H   UNL     1       2.081   6.777  21.141  0.00  0.00    +0.000 HD
ATOM     11  H   UNL     1       2.314   8.997  21.767  0.00  0.00    +0.000 HD
BRANCH   9  12
ATOM     12  C   UNL     1       0.862  10.338  21.227  0.00  0.00    +0.000 A 
ATOM     13  C   UNL     1       1.180  11.322  20.286  0.00  0.00    +0.000 A 
ATOM     14  C   UNL     1       0.551  12.569  20.340  0.00  0.00    +0.000 A 
ATOM     15  C   UNL     1      -0.380  12.845  21.342  0.00  0.00    +0.000 A 
ATOM     16  C   UNL     1      -0.703  11.866  22.282  0.00  0.00    +0.000 A 
ATOM     17  C   UNL     1      -0.100  10.611  22.212  0.00  0.00    +0.000 A 
ATOM     18 CL   UNL     1      -0.502   9.427  23.408  0.00  0.00    +0.000 Cl
ENDBRANCH   9  12
ENDBRANCH   5   6
BRANCH   5  19
ATOM     19  C   UNL     1       2.482   4.768  19.653  0.00  0.00    +0.000 C 
ATOM     20  C   UNL     1       2.075   4.646  21.135  0.00  0.00    +0.000 C 
BRANCH  19  22
ATOM     21  C   UNL     1       2.228   3.005  17.790  0.00  0.00    +0.000 C 
ATOM     22  C   UNL     1       1.531   3.873  18.827  0.00  0.00    +0.000 C 
ENDBRANCH  19  22
ENDBRANCH   5  19
ENDBRANCH   1   5
BRANCH   3  23
ATOM     23  C   UNL     1       6.169   5.641  17.968  0.00  0.00    +0.000 C 
BRANCH  23  24
ATOM     24  C   UNL     1       7.255   5.958  19.009  0.00  0.00    +0.000 C 
ATOM     25  O   UNL     1       8.076   6.869  18.891  0.00  0.00    +0.000 OA
ATOM     26  N   UNL     1       7.207   5.190  20.150  0.00  0.00    +0.000 N 
ATOM     27  H   UNL     1       6.719   4.299  20.207  0.00  0.00    +0.000 HD
BRANCH  26  28
ATOM     28  O   UNL     1       8.242   5.423  21.087  0.00  0.00    +0.000 OA
ATOM     29  H   UNL     1       9.047   5.162  20.585  0.00  0.00    +0.000 HD
ENDBRANCH  26  28
ENDBRANCH  23  24
BRANCH  23  30
ATOM     30  C   UNL     1       6.503   4.312  17.263  0.00  0.00    +0.000 C 
BRANCH  30  31
ATOM     31  C   UNL     1       6.537   4.337  15.760  0.00  0.00    +0.000 A 
ATOM     32  C   UNL     1       5.866   3.526  14.863  0.00  0.00    +0.000 A 
ATOM     33  C   UNL     1       6.301   3.855  13.551  0.00  0.00    +0.000 A 
ATOM     34  C   UNL     1       5.997   3.364  12.264  0.00  0.00    +0.000 A 
ATOM     35  C   UNL     1       6.644   3.907  11.150  0.00  0.00    +0.000 A 
ATOM     36  C   UNL     1       7.584   4.922  11.304  0.00  0.00    +0.000 A 
ATOM     37  C   UNL     1       7.898   5.430  12.571  0.00  0.00    +0.000 A 
ATOM     38  C   UNL     1       7.237   4.879  13.674  0.00  0.00    +0.000 A 
ATOM     39  N   UNL     1       7.350   5.165  15.018  0.00  0.00    +0.000 N 
ATOM     40  H   UNL     1       7.969   5.872  15.391  0.00  0.00    +0.000 HD
ENDBRANCH  30  31
ENDBRANCH  23  30
ENDBRANCH   3  23
TORSDOF 10
ENDMDL
MODEL 3
REMARK VINA RESULT:      -8.1      1.228      1.611
REMARK  Name = 
REMARK  12 active torsions:
REMARK  status: ('A' for Active; 'I' for Inactive)
REMARK    1  A    between atoms: C_1  and  C_2
REMARK    2  A    between atoms: C_2  and  C_3
REMARK    3  A    between atoms: C_3  and  C_4
REMARK    4  A    between atoms: C_3  and  C_5
REMARK    5  A    between atoms: C_5  and  N_6
REMARK    6  A    between atoms: C_5  and  C_17
REMARK    7  A    between atoms: N_9  and  C_10
REMARK    8  A    between atoms: N_19  and  C_20
REMARK    9  A    between atoms: C_20  and  C_21
REMARK   10  A    between atoms: C_20  and  C_31
REMARK   11  A    between atoms: C_21  and  C_22
REMARK   12  A    between atoms: N_33  and  O_34
REMARK                            x       y       z     vdW  Elec       q    Type
REMARK                         _______ _______ _______ _____ _____    ______ ____
ROOT
ATOM      1  C   UNL     1       3.994   6.609  17.702  0.00  0.00    +0.000 C 
ATOM      2  O   UNL     1       4.166   7.098  16.588  0.00  0.00    +0.000 OA
ATOM      3  N   UNL     1       4.998   5.927  18.353  0.00  0.00    +0.000 N 
ATOM      4  H   UNL     1       4.824   5.627  19.305  0.00  0.00    +0.000 HD
ENDROOT
BRANCH   1   5
ATOM      5  C   UNL     1       2.600   6.561  18.392  0.00  0.00    +0.000 C 
BRANCH   5   6
ATOM      6  N   UNL     1       2.350   7.786  19.164  0.00  0.00    +0.000 N 
ATOM      7  C   UNL     1       1.773   8.871  18.528  0.00  0.00    +0.000 C 
ATOM      8  O   UNL     1       1.550   8.906  17.328  0.00  0.00    +0.000 OA
ATOM      9  N   UNL     1       1.583   9.897  19.430  0.00  0.00    +0.000 N 
ATOM     10  H   UNL     1       1.918   7.643  20.067  0.00  0.00    +0.000 HD
ATOM     11  H   UNL     1       2.306   9.928  20.138  0.00  0.00    +0.000 HD
BRANCH   9  12
ATOM     12  C   UNL     1       1.118  11.172  19.024  0.00  0.00    +0.000 A 
ATOM     13  C   UNL     1       2.005  12.227  18.792  0.00  0.00    +0.000 A 
ATOM     14  C   UNL     1       1.516  13.473  18.388  0.00  0.00    +0.000 A 
ATOM     15  C   UNL     1       0.144  13.676  18.237  0.00  0.00    +0.000 A 
ATOM     16  C   UNL     1      -0.746  12.625  18.465  0.00  0.00    +0.000 A 
ATOM     17  C   UNL     1      -0.259  11.373  18.836  0.00  0.00    +0.000 A 
ATOM     18 CL   UNL     1      -1.389  10.097  19.137  0.00  0.00    +0.000 Cl
ENDBRANCH   9  12
ENDBRANCH   5   6
BRANCH   5  19
ATOM     19  C   UNL     1       2.487   5.290  19.286  0.00  0.00    +0.000 C 
ATOM     20  C   UNL     1       1.809   5.563  20.643  0.00  0.00    +0.000 C 
BRANCH  19  22
ATOM     21  C   UNL     1       0.952   3.237  19.560  0.00  0.00    +0.000 C 
ATOM     22  C   UNL     1       1.727   4.130  18.603  0.00  0.00    +0.000 C 
ENDBRANCH  19  22
ENDBRANCH   5  19
ENDBRANCH   1   5
BRANCH   3  23
ATOM     23  C   UNL     1       6.352   5.783  17.808  0.00  0.00    +0.000 C 
BRANCH  23  24
ATOM     24  C   UNL     1       7.361   6.027  18.943  0.00  0.00    +0.000 C 
ATOM     25  O   UNL     1       8.181   6.945  18.947  0.00  0.00    +0.000 OA
ATOM     26  N   UNL     1       7.239   5.178  20.020  0.00  0.00    +0.000 N 
ATOM     27  H   UNL     1       6.753   4.285  19.979  0.00  0.00    +0.000 HD
BRANCH  26  28
ATOM     28  O   UNL     1       8.205   5.345  21.040  0.00  0.00    +0.000 OA
ATOM     29  H   UNL     1       7.650   5.476  21.841  0.00  0.00    +0.000 HD
ENDBRANCH  26  28
ENDBRANCH  23  24
BRANCH  23  30
ATOM     30  C   UNL     1       6.593   4.391  17.194  0.00  0.00    +0.000 C 
BRANCH  30  31
ATOM     31  C   UNL     1       6.740   4.332  15.699  0.00  0.00    +0.000 A 
ATOM     32  C   UNL     1       7.491   5.143  14.867  0.00  0.00    +0.000 A 
ATOM     33  C   UNL     1       7.226   4.772  13.522  0.00  0.00    +0.000 A 
ATOM     34  C   UNL     1       7.668   5.244  12.268  0.00  0.00    +0.000 A 
ATOM     35  C   UNL     1       7.174   4.656  11.099  0.00  0.00    +0.000 A 
ATOM     36  C   UNL     1       6.251   3.617  11.166  0.00  0.00    +0.000 A 
ATOM     37  C   UNL     1       5.802   3.127  12.399  0.00  0.00    +0.000 A 
ATOM     38  C   UNL     1       6.310   3.722  13.559  0.00  0.00    +0.000 A 
ATOM     39  N   UNL     1       6.046   3.463  14.887  0.00  0.00    +0.000 N 
ATOM     40  H   UNL     1       5.406   2.746  15.201  0.00  0.00    +0.000 HD
ENDBRANCH  30  31
ENDBRANCH  23  30
ENDBRANCH   3  23
TORSDOF 10
ENDMDL
MODEL 4
REMARK VINA RESULT:      -8.1      2.857      5.131
REMARK  Name = 
REMARK  12 active torsions:
REMARK  status: ('A' for Active; 'I' for Inactive)
REMARK    1  A    between atoms: C_1  and  C_2
REMARK    2  A    between atoms: C_2  and  C_3
REMARK    3  A    between atoms: C_3  and  C_4
REMARK    4  A    between atoms: C_3  and  C_5
REMARK    5  A    between atoms: C_5  and  N_6
REMARK    6  A    between atoms: C_5  and  C_17
REMARK    7  A    between atoms: N_9  and  C_10
REMARK    8  A    between atoms: N_19  and  C_20
REMARK    9  A    between atoms: C_20  and  C_21
REMARK   10  A    between atoms: C_20  and  C_31
REMARK   11  A    between atoms: C_21  and  C_22
REMARK   12  A    between atoms: N_33  and  O_34
REMARK                            x       y       z     vdW  Elec       q    Type
REMARK                         _______ _______ _______ _____ _____    ______ ____
ROOT
ATOM      1  C   UNL     1       4.869   4.961  19.199  0.00  0.00    +0.000 C 
ATOM      2  O   UNL     1       5.728   4.458  19.920  0.00  0.00    +0.000 OA
ATOM      3  N   UNL     1       5.204   5.773  18.138  0.00  0.00    +0.000 N 
ATOM      4  H   UNL     1       4.457   6.084  17.528  0.00  0.00    +0.000 HD
ENDROOT
BRANCH   1   5
ATOM      5  C   UNL     1       3.348   4.874  19.518  0.00  0.00    +0.000 C 
BRANCH   5   6
ATOM      6  N   UNL     1       2.904   6.039  20.296  0.00  0.00    +0.000 N 
ATOM      7  C   UNL     1       2.143   7.009  19.672  0.00  0.00    +0.000 C 
ATOM      8  O   UNL     1       1.899   7.006  18.475  0.00  0.00    +0.000 OA
ATOM      9  N   UNL     1       1.793   7.988  20.578  0.00  0.00    +0.000 N 
ATOM     10  H   UNL     1       2.517   5.824  21.205  0.00  0.00    +0.000 HD
ATOM     11  H   UNL     1       2.511   8.142  21.276  0.00  0.00    +0.000 HD
BRANCH   9  12
ATOM     12  C   UNL     1       1.112   9.165  20.183  0.00  0.00    +0.000 A 
ATOM     13  C   UNL     1       1.510   9.889  19.055  0.00  0.00    +0.000 A 
ATOM     14  C   UNL     1       0.816  11.046  18.688  0.00  0.00    +0.000 A 
ATOM     15  C   UNL     1      -0.261  11.494  19.454  0.00  0.00    +0.000 A 
ATOM     16  C   UNL     1      -0.664  10.773  20.578  0.00  0.00    +0.000 A 
ATOM     17  C   UNL     1       0.006   9.602  20.929  0.00  0.00    +0.000 A 
ATOM     18 CL   UNL     1      -0.501   8.746  22.344  0.00  0.00    +0.000 Cl
ENDBRANCH   9  12
ENDBRANCH   5   6
BRANCH   5  19
ATOM     19  C   UNL     1       3.029   3.539  20.255  0.00  0.00    +0.000 C 
ATOM     20  C   UNL     1       2.275   3.747  21.584  0.00  0.00    +0.000 C 
BRANCH  19  22
ATOM     21  C   UNL     1       1.592   3.161  18.148  0.00  0.00    +0.000 C 
ATOM     22  C   UNL     1       2.210   2.549  19.396  0.00  0.00    +0.000 C 
ENDBRANCH  19  22
ENDBRANCH   5  19
ENDBRANCH   1   5
BRANCH   3  23
ATOM     23  C   UNL     1       6.590   6.051  17.749  0.00  0.00    +0.000 C 
BRANCH  23  24
ATOM     24  C   UNL     1       7.094   4.885  16.883  0.00  0.00    +0.000 C 
ATOM     25  O   UNL     1       8.135   4.264  17.105  0.00  0.00    +0.000 OA
ATOM     26  N   UNL     1       6.252   4.515  15.859  0.00  0.00    +0.000 N 
ATOM     27  H   UNL     1       5.517   5.116  15.492  0.00  0.00    +0.000 HD
BRANCH  26  28
ATOM     28  O   UNL     1       6.735   3.490  15.012  0.00  0.00    +0.000 OA
ATOM     29  H   UNL     1       6.861   2.740  15.634  0.00  0.00    +0.000 HD
ENDBRANCH  26  28
ENDBRANCH  23  24
BRANCH  23  30
ATOM     30  C   UNL     1       6.727   7.371  16.966  0.00  0.00    +0.000 C 
BRANCH  30  31
ATOM     31  C   UNL     1       7.605   8.428  17.577  0.00  0.00    +0.000 A 
ATOM     32  C   UNL     1       8.414   8.344  18.696  0.00  0.00    +0.000 A 
ATOM     33  C   UNL     1       8.963   9.629  18.948  0.00  0.00    +0.000 A 
ATOM     34  C   UNL     1       9.820  10.154  19.938  0.00  0.00    +0.000 A 
ATOM     35  C   UNL     1      10.152  11.512  19.912  0.00  0.00    +0.000 A 
ATOM     36  C   UNL     1       9.640  12.345  18.920  0.00  0.00    +0.000 A 
ATOM     37  C   UNL     1       8.793  11.846  17.923  0.00  0.00    +0.000 A 
ATOM     38  C   UNL     1       8.476  10.484  17.961  0.00  0.00    +0.000 A 
ATOM     39  N   UNL     1       7.670   9.730  17.135  0.00  0.00    +0.000 N 
ATOM     40  H   UNL     1       7.183  10.105  16.332  0.00  0.00    +0.000 HD
ENDBRANCH  30  31
ENDBRANCH  23  30
ENDBRANCH   3  23
TORSDOF 10
ENDMDL
MODEL 5
REMARK VINA RESULT:      -8.0      3.760      8.040
REMARK  Name = 
REMARK  12 active torsions:
REMARK  status: ('A' for Active; 'I' for Inactive)
REMARK    1  A    between atoms: C_1  and  C_2
REMARK    2  A    between atoms: C_2  and  C_3
REMARK    3  A    between atoms: C_3  and  C_4
REMARK    4  A    between atoms: C_3  and  C_5
REMARK    5  A    between atoms: C_5  and  N_6
REMARK    6  A    between atoms: C_5  and  C_17
REMARK    7  A    between atoms: N_9  and  C_10
REMARK    8  A    between atoms: N_19  and  C_20
REMARK    9  A    between atoms: C_20  and  C_21
REMARK   10  A    between atoms: C_20  and  C_31
REMARK   11  A    between atoms: C_21  and  C_22
REMARK   12  A    between atoms: N_33  and  O_34
REMARK                            x       y       z     vdW  Elec       q    Type
REMARK                         _______ _______ _______ _____ _____    ______ ____
ROOT
ATOM      1  C   UNL     1       5.203   6.378  17.575  0.00  0.00    +0.000 C 
ATOM      2  O   UNL     1       4.434   7.039  16.882  0.00  0.00    +0.000 OA
ATOM      3  N   UNL     1       4.740   5.439  18.470  0.00  0.00    +0.000 N 
ATOM      4  H   UNL     1       5.425   4.863  18.947  0.00  0.00    +0.000 HD
ENDROOT
BRANCH   1   5
ATOM      5  C   UNL     1       6.732   6.658  17.635  0.00  0.00    +0.000 C 
BRANCH   5   6
ATOM      6  N   UNL     1       7.027   8.057  17.296  0.00  0.00    +0.000 N 
ATOM      7  C   UNL     1       8.030   8.715  17.984  0.00  0.00    +0.000 C 
ATOM      8  O   UNL     1       8.624   8.228  18.935  0.00  0.00    +0.000 OA
ATOM      9  N   UNL     1       8.179   9.994  17.491  0.00  0.00    +0.000 N 
ATOM     10  H   UNL     1       7.099   8.253  16.307  0.00  0.00    +0.000 HD
ATOM     11  H   UNL     1       7.301  10.392  17.179  0.00  0.00    +0.000 HD
BRANCH   9  12
ATOM     12  C   UNL     1       9.056  10.930  18.091  0.00  0.00    +0.000 A 
ATOM     13  C   UNL     1      10.170  10.514  18.825  0.00  0.00    +0.000 A 
ATOM     14  C   UNL     1      11.019  11.462  19.403  0.00  0.00    +0.000 A 
ATOM     15  C   UNL     1      10.748  12.825  19.269  0.00  0.00    +0.000 A 
ATOM     16  C   UNL     1       9.638  13.246  18.535  0.00  0.00    +0.000 A 
ATOM     17  C   UNL     1       8.808  12.303  17.930  0.00  0.00    +0.000 A 
ATOM     18 CL   UNL     1       7.426  12.856  17.049  0.00  0.00    +0.000 Cl
ENDBRANCH   9  12
ENDBRANCH   5   6
BRANCH   5  19
ATOM     19  C   UNL     1       7.496   5.671  16.702  0.00  0.00    +0.000 C 
ATOM     20  C   UNL     1       7.794   4.315  17.370  0.00  0.00    +0.000 C 
BRANCH  19  22
ATOM     21  C   UNL     1       6.344   3.941  15.177  0.00  0.00    +0.000 C 
ATOM     22  C   UNL     1       6.757   5.392  15.374  0.00  0.00    +0.000 C 
ENDBRANCH  19  22
ENDBRANCH   5  19
ENDBRANCH   1   5
BRANCH   3  23
ATOM     23  C   UNL     1       3.319   5.112  18.624  0.00  0.00    +0.000 C 
BRANCH  23  24
ATOM     24  C   UNL     1       3.156   3.587  18.510  0.00  0.00    +0.000 C 
ATOM     25  O   UNL     1       2.123   2.982  18.797  0.00  0.00    +0.000 OA
ATOM     26  N   UNL     1       4.241   2.926  17.979  0.00  0.00    +0.000 N 
ATOM     27  H   UNL     1       5.177   3.324  17.940  0.00  0.00    +0.000 HD
BRANCH  26  28
ATOM     28  O   UNL     1       4.134   1.516  17.933  0.00  0.00    +0.000 OA
ATOM     29  H   UNL     1       3.313   1.347  18.447  0.00  0.00    +0.000 HD
ENDBRANCH  26  28
ENDBRANCH  23  24
BRANCH  23  30
ATOM     30  C   UNL     1       2.748   5.592  19.972  0.00  0.00    +0.000 C 
BRANCH  30  31
ATOM     31  C   UNL     1       2.102   6.949  19.985  0.00  0.00    +0.000 A 
ATOM     32  C   UNL     1       2.007   7.875  18.961  0.00  0.00    +0.000 A 
ATOM     33  C   UNL     1       1.407   9.054  19.479  0.00  0.00    +0.000 A 
ATOM     34  C   UNL     1       1.081  10.312  18.931  0.00  0.00    +0.000 A 
ATOM     35  C   UNL     1       0.508  11.291  19.748  0.00  0.00    +0.000 A 
ATOM     36  C   UNL     1       0.263  11.033  21.094  0.00  0.00    +0.000 A 
ATOM     37  C   UNL     1       0.572   9.790  21.660  0.00  0.00    +0.000 A 
ATOM     38  C   UNL     1       1.140   8.820  20.827  0.00  0.00    +0.000 A 
ATOM     39  N   UNL     1       1.553   7.534  21.104  0.00  0.00    +0.000 N 
ATOM     40  H   UNL     1       1.478   7.106  22.017  0.00  0.00    +0.000 HD
ENDBRANCH  30  31
ENDBRANCH  23  30
ENDBRANCH   3  23
TORSDOF 10
ENDMDL
MODEL 6
REMARK VINA RESULT:      -8.0      1.105      1.446
REMARK  Name = 
REMARK  12 active torsions:
REMARK  status: ('A' for Active; 'I' for Inactive)
REMARK    1  A    between atoms: C_1  and  C_2
REMARK    2  A    between atoms: C_2  and  C_3
REMARK    3  A    between atoms: C_3  and  C_4
REMARK    4  A    between atoms: C_3  and  C_5
REMARK    5  A    between atoms: C_5  and  N_6
REMARK    6  A    between atoms: C_5  and  C_17
REMARK    7  A    between atoms: N_9  and  C_10
REMARK    8  A    between atoms: N_19  and  C_20
REMARK    9  A    between atoms: C_20  and  C_21
REMARK   10  A    between atoms: C_20  and  C_31
REMARK   11  A    between atoms: C_21  and  C_22
REMARK   12  A    between atoms: N_33  and  O_34
REMARK                            x       y       z     vdW  Elec       q    Type
REMARK                         _______ _______ _______ _____ _____    ______ ____
ROOT
ATOM      1  C   UNL     1       3.758   6.507  18.300  0.00  0.00    +0.000 C 
ATOM      2  O   UNL     1       3.860   7.277  17.348  0.00  0.00    +0.000 OA
ATOM      3  N   UNL     1       4.773   5.639  18.636  0.00  0.00    +0.000 N 
ATOM      4  H   UNL     1       4.666   5.094  19.484  0.00  0.00    +0.000 HD
ENDROOT
BRANCH   1   5
ATOM      5  C   UNL     1       2.431   6.317  19.089  0.00  0.00    +0.000 C 
BRANCH   5   6
ATOM      6  N   UNL     1       2.338   7.269  20.204  0.00  0.00    +0.000 N 
ATOM      7  C   UNL     1       1.541   8.390  20.061  0.00  0.00    +0.000 C 
ATOM      8  O   UNL     1       0.984   8.690  19.016  0.00  0.00    +0.000 OA
ATOM      9  N   UNL     1       1.554   9.128  21.227  0.00  0.00    +0.000 N 
ATOM     10  H   UNL     1       2.190   6.852  21.113  0.00  0.00    +0.000 HD
ATOM     11  H   UNL     1       2.446   9.079  21.704  0.00  0.00    +0.000 HD
BRANCH   9  12
ATOM     12  C   UNL     1       0.918  10.390  21.320  0.00  0.00    +0.000 A 
ATOM     13  C   UNL     1       1.318  11.464  20.521  0.00  0.00    +0.000 A 
ATOM     14  C   UNL     1       0.668  12.697  20.633  0.00  0.00    +0.000 A 
ATOM     15  C   UNL     1      -0.365  12.867  21.556  0.00  0.00    +0.000 A 
ATOM     16  C   UNL     1      -0.770  11.797  22.355  0.00  0.00    +0.000 A 
ATOM     17  C   UNL     1      -0.145  10.557  22.222  0.00  0.00    +0.000 A 
ATOM     18 CL   UNL     1      -0.652   9.257  23.245  0.00  0.00    +0.000 Cl
ENDBRANCH   9  12
ENDBRANCH   5   6
BRANCH   5  19
ATOM     19  C   UNL     1       2.306   4.844  19.583  0.00  0.00    +0.000 C 
ATOM     20  C   UNL     1       1.299   4.677  20.739  0.00  0.00    +0.000 C 
BRANCH  19  22
ATOM     21  C   UNL     1       0.916   2.786  18.893  0.00  0.00    +0.000 C 
ATOM     22  C   UNL     1       1.907   3.857  18.463  0.00  0.00    +0.000 C 
ENDBRANCH  19  22
ENDBRANCH   5  19
ENDBRANCH   1   5
BRANCH   3  23
ATOM     23  C   UNL     1       6.062   5.605  17.938  0.00  0.00    +0.000 C 
BRANCH  23  24
ATOM     24  C   UNL     1       7.174   5.911  18.955  0.00  0.00    +0.000 C 
ATOM     25  O   UNL     1       8.014   6.800  18.809  0.00  0.00    +0.000 OA
ATOM     26  N   UNL     1       7.128   5.161  20.109  0.00  0.00    +0.000 N 
ATOM     27  H   UNL     1       6.619   4.283  20.187  0.00  0.00    +0.000 HD
BRANCH  26  28
ATOM     28  O   UNL     1       8.185   5.382  21.023  0.00  0.00    +0.000 OA
ATOM     29  H   UNL     1       7.981   6.277  21.373  0.00  0.00    +0.000 HD
ENDBRANCH  26  28
ENDBRANCH  23  24
BRANCH  23  30
ATOM     30  C   UNL     1       6.334   4.243  17.271  0.00  0.00    +0.000 C 
BRANCH  30  31
ATOM     31  C   UNL     1       6.605   4.260  15.792  0.00  0.00    +0.000 A 
ATOM     32  C   UNL     1       7.396   5.131  15.064  0.00  0.00    +0.000 A 
ATOM     33  C   UNL     1       7.254   4.818  13.686  0.00  0.00    +0.000 A 
ATOM     34  C   UNL     1       7.782   5.362  12.496  0.00  0.00    +0.000 A 
ATOM     35  C   UNL     1       7.404   4.819  11.264  0.00  0.00    +0.000 A 
ATOM     36  C   UNL     1       6.509   3.754  11.207  0.00  0.00    +0.000 A 
ATOM     37  C   UNL     1       5.976   3.194  12.374  0.00  0.00    +0.000 A 
ATOM     38  C   UNL     1       6.370   3.745  13.598  0.00  0.00    +0.000 A 
ATOM     39  N   UNL     1       6.005   3.415  14.886  0.00  0.00    +0.000 N 
ATOM     40  H   UNL     1       5.364   2.667  15.113  0.00  0.00    +0.000 HD
ENDBRANCH  30  31
ENDBRANCH  23  30
ENDBRANCH   3  23
TORSDOF 10
ENDMDL
MODEL 7
REMARK VINA RESULT:      -7.9      3.296      5.553
REMARK  Name = 
REMARK  12 active torsions:
REMARK  status: ('A' for Active; 'I' for Inactive)
REMARK    1  A    between atoms: C_1  and  C_2
REMARK    2  A    between atoms: C_2  and  C_3
REMARK    3  A    between atoms: C_3  and  C_4
REMARK    4  A    between atoms: C_3  and  C_5
REMARK    5  A    between atoms: C_5  and  N_6
REMARK    6  A    between atoms: C_5  and  C_17
REMARK    7  A    between atoms: N_9  and  C_10
REMARK    8  A    between atoms: N_19  and  C_20
REMARK    9  A    between atoms: C_20  and  C_21
REMARK   10  A    between atoms: C_20  and  C_31
REMARK   11  A    between atoms: C_21  and  C_22
REMARK   12  A    between atoms: N_33  and  O_34
REMARK                            x       y       z     vdW  Elec       q    Type
REMARK                         _______ _______ _______ _____ _____    ______ ____
ROOT
ATOM      1  C   UNL     1       4.432   6.326  18.498  0.00  0.00    +0.000 C 
ATOM      2  O   UNL     1       4.737   5.785  19.559  0.00  0.00    +0.000 OA
ATOM      3  N   UNL     1       5.365   6.987  17.731  0.00  0.00    +0.000 N 
ATOM      4  H   UNL     1       5.071   7.333  16.825  0.00  0.00    +0.000 HD
ENDROOT
BRANCH   1   5
ATOM      5  C   UNL     1       2.957   6.465  18.021  0.00  0.00    +0.000 C 
BRANCH   5   6
ATOM      6  N   UNL     1       2.229   7.449  18.834  0.00  0.00    +0.000 N 
ATOM      7  C   UNL     1       1.907   8.672  18.274  0.00  0.00    +0.000 C 
ATOM      8  O   UNL     1       2.283   9.024  17.167  0.00  0.00    +0.000 OA
ATOM      9  N   UNL     1       1.192   9.429  19.178  0.00  0.00    +0.000 N 
ATOM     10  H   UNL     1       1.438   7.082  19.345  0.00  0.00    +0.000 HD
ATOM     11  H   UNL     1       1.479   9.261  20.135  0.00  0.00    +0.000 HD
BRANCH   9  12
ATOM     12  C   UNL     1       0.835  10.774  18.911  0.00  0.00    +0.000 A 
ATOM     13  C   UNL     1       1.783  11.799  18.963  0.00  0.00    +0.000 A 
ATOM     14  C   UNL     1       1.402  13.116  18.690  0.00  0.00    +0.000 A 
ATOM     15  C   UNL     1       0.073  13.416  18.387  0.00  0.00    +0.000 A 
ATOM     16  C   UNL     1      -0.877  12.395  18.331  0.00  0.00    +0.000 A 
ATOM     17  C   UNL     1      -0.493  11.077  18.571  0.00  0.00    +0.000 A 
ATOM     18 CL   UNL     1      -1.699   9.837  18.521  0.00  0.00    +0.000 Cl
ENDBRANCH   9  12
ENDBRANCH   5   6
BRANCH   5  19
ATOM     19  C   UNL     1       2.252   5.076  18.040  0.00  0.00    +0.000 C 
ATOM     20  C   UNL     1       3.137   3.941  17.485  0.00  0.00    +0.000 C 
BRANCH  19  22
ATOM     21  C   UNL     1       1.096   3.293  19.499  0.00  0.00    +0.000 C 
ATOM     22  C   UNL     1       1.772   4.655  19.447  0.00  0.00    +0.000 C 
ENDBRANCH  19  22
ENDBRANCH   5  19
ENDBRANCH   1   5
BRANCH   3  23
ATOM     23  C   UNL     1       6.788   7.047  18.077  0.00  0.00    +0.000 C 
BRANCH  23  24
ATOM     24  C   UNL     1       7.392   5.644  17.898  0.00  0.00    +0.000 C 
ATOM     25  O   UNL     1       7.845   4.968  18.822  0.00  0.00    +0.000 OA
ATOM     26  N   UNL     1       7.326   5.143  16.618  0.00  0.00    +0.000 N 
ATOM     27  H   UNL     1       7.181   5.723  15.794  0.00  0.00    +0.000 HD
BRANCH  26  28
ATOM     28  O   UNL     1       7.939   3.883  16.423  0.00  0.00    +0.000 OA
ATOM     29  H   UNL     1       8.413   4.005  15.570  0.00  0.00    +0.000 HD
ENDBRANCH  26  28
ENDBRANCH  23  24
BRANCH  23  30
ATOM     30  C   UNL     1       7.562   8.056  17.207  0.00  0.00    +0.000 C 
BRANCH  30  31
ATOM     31  C   UNL     1       8.255   9.177  17.932  0.00  0.00    +0.000 A 
ATOM     32  C   UNL     1       8.915   9.149  19.147  0.00  0.00    +0.000 A 
ATOM     33  C   UNL     1       9.309  10.474  19.473  0.00  0.00    +0.000 A 
ATOM     34  C   UNL     1       9.978  11.057  20.569  0.00  0.00    +0.000 A 
ATOM     35  C   UNL     1      10.187  12.440  20.590  0.00  0.00    +0.000 A 
ATOM     36  C   UNL     1       9.738  13.239  19.543  0.00  0.00    +0.000 A 
ATOM     37  C   UNL     1       9.076  12.682  18.441  0.00  0.00    +0.000 A 
ATOM     38  C   UNL     1       8.880  11.296  18.433  0.00  0.00    +0.000 A 
ATOM     39  N   UNL     1       8.261  10.486  17.505  0.00  0.00    +0.000 N 
ATOM     40  H   UNL     1       7.851  10.829  16.647  0.00  0.00    +0.000 HD
ENDBRANCH  30  31
ENDBRANCH  23  30
ENDBRANCH   3  23
TORSDOF 10
ENDMDL
MODEL 8
REMARK VINA RESULT:      -7.8      4.217      7.422
REMARK  Name = 
REMARK  12 active torsions:
REMARK  status: ('A' for Active; 'I' for Inactive)
REMARK    1  A    between atoms: C_1  and  C_2
REMARK    2  A    between atoms: C_2  and  C_3
REMARK    3  A    between atoms: C_3  and  C_4
REMARK    4  A    between atoms: C_3  and  C_5
REMARK    5  A    between atoms: C_5  and  N_6
REMARK    6  A    between atoms: C_5  and  C_17
REMARK    7  A    between atoms: N_9  and  C_10
REMARK    8  A    between atoms: N_19  and  C_20
REMARK    9  A    between atoms: C_20  and  C_21
REMARK   10  A    between atoms: C_20  and  C_31
REMARK   11  A    between atoms: C_21  and  C_22
REMARK   12  A    between atoms: N_33  and  O_34
REMARK                            x       y       z     vdW  Elec       q    Type
REMARK                         _______ _______ _______ _____ _____    ______ ____
ROOT
ATOM      1  C   UNL     1       6.481   5.763  16.341  0.00  0.00    +0.000 C 
ATOM      2  O   UNL     1       7.560   5.207  16.533  0.00  0.00    +0.000 OA
ATOM      3  N   UNL     1       6.065   6.818  17.124  0.00  0.00    +0.000 N 
ATOM      4  H   UNL     1       5.209   7.293  16.859  0.00  0.00    +0.000 HD
ENDROOT
BRANCH   1   5
ATOM      5  C   UNL     1       5.426   5.226  15.332  0.00  0.00    +0.000 C 
BRANCH   5   6
ATOM      6  N   UNL     1       4.705   4.071  15.886  0.00  0.00    +0.000 N 
ATOM      7  C   UNL     1       3.897   4.256  16.993  0.00  0.00    +0.000 C 
ATOM      8  O   UNL     1       3.825   5.312  17.604  0.00  0.00    +0.000 OA
ATOM      9  N   UNL     1       3.279   3.070  17.329  0.00  0.00    +0.000 N 
ATOM     10  H   UNL     1       4.233   3.493  15.205  0.00  0.00    +0.000 HD
ATOM     11  H   UNL     1       3.862   2.264  17.135  0.00  0.00    +0.000 HD
BRANCH   9  12
ATOM     12  C   UNL     1       2.487   2.942  18.496  0.00  0.00    +0.000 A 
ATOM     13  C   UNL     1       1.100   3.104  18.452  0.00  0.00    +0.000 A 
ATOM     14  C   UNL     1       0.344   2.969  19.620  0.00  0.00    +0.000 A 
ATOM     15  C   UNL     1       0.971   2.693  20.836  0.00  0.00    +0.000 A 
ATOM     16  C   UNL     1       2.356   2.527  20.885  0.00  0.00    +0.000 A 
ATOM     17  C   UNL     1       3.108   2.630  19.715  0.00  0.00    +0.000 A 
ATOM     18 CL   UNL     1       4.826   2.447  19.813  0.00  0.00    +0.000 Cl
ENDBRANCH   9  12
ENDBRANCH   5   6
BRANCH   5  19
ATOM     19  C   UNL     1       6.109   4.875  13.976  0.00  0.00    +0.000 C 
ATOM     20  C   UNL     1       7.606   5.243  13.940  0.00  0.00    +0.000 C 
BRANCH  19  22
ATOM     21  C   UNL     1       5.580   3.134  12.150  0.00  0.00    +0.000 C 
ATOM     22  C   UNL     1       5.980   3.382  13.597  0.00  0.00    +0.000 C 
ENDBRANCH  19  22
ENDBRANCH   5  19
ENDBRANCH   1   5
BRANCH   3  23
ATOM     23  C   UNL     1       6.887   7.395  18.192  0.00  0.00    +0.000 C 
BRANCH  23  24
ATOM     24  C   UNL     1       7.219   6.286  19.203  0.00  0.00    +0.000 C 
ATOM     25  O   UNL     1       6.375   5.558  19.728  0.00  0.00    +0.000 OA
ATOM     26  N   UNL     1       8.563   6.098  19.438  0.00  0.00    +0.000 N 
ATOM     27  H   UNL     1       9.273   6.794  19.222  0.00  0.00    +0.000 HD
BRANCH  26  28
ATOM     28  O   UNL     1       8.881   5.128  20.418  0.00  0.00    +0.000 OA
ATOM     29  H   UNL     1       8.014   4.693  20.577  0.00  0.00    +0.000 HD
ENDBRANCH  26  28
ENDBRANCH  23  24
BRANCH  23  30
ATOM     30  C   UNL     1       8.192   8.017  17.660  0.00  0.00    +0.000 C 
BRANCH  30  31
ATOM     31  C   UNL     1       8.577   9.358  18.220  0.00  0.00    +0.000 A 
ATOM     32  C   UNL     1       8.505  10.602  17.620  0.00  0.00    +0.000 A 
ATOM     33  C   UNL     1       9.085  11.556  18.498  0.00  0.00    +0.000 A 
ATOM     34  C   UNL     1       9.313  12.946  18.426  0.00  0.00    +0.000 A 
ATOM     35  C   UNL     1       9.954  13.595  19.486  0.00  0.00    +0.000 A 
ATOM     36  C   UNL     1      10.369  12.878  20.605  0.00  0.00    +0.000 A 
ATOM     37  C   UNL     1      10.148  11.498  20.703  0.00  0.00    +0.000 A 
ATOM     38  C   UNL     1       9.500  10.866  19.636  0.00  0.00    +0.000 A 
ATOM     39  N   UNL     1       9.166   9.542  19.450  0.00  0.00    +0.000 N 
ATOM     40  H   UNL     1       9.359   8.815  20.126  0.00  0.00    +0.000 HD
ENDBRANCH  30  31
ENDBRANCH  23  30
ENDBRANCH   3  23
TORSDOF 10
ENDMDL
MODEL 9
REMARK VINA RESULT:      -7.7      1.242      1.463
REMARK  Name = 
REMARK  12 active torsions:
REMARK  status: ('A' for Active; 'I' for Inactive)
REMARK    1  A    between atoms: C_1  and  C_2
REMARK    2  A    between atoms: C_2  and  C_3
REMARK    3  A    between atoms: C_3  and  C_4
REMARK    4  A    between atoms: C_3  and  C_5
REMARK    5  A    between atoms: C_5  and  N_6
REMARK    6  A    between atoms: C_5  and  C_17
REMARK    7  A    between atoms: N_9  and  C_10
REMARK    8  A    between atoms: N_19  and  C_20
REMARK    9  A    between atoms: C_20  and  C_21
REMARK   10  A    between atoms: C_20  and  C_31
REMARK   11  A    between atoms: C_21  and  C_22
REMARK   12  A    between atoms: N_33  and  O_34
REMARK                            x       y       z     vdW  Elec       q    Type
REMARK                         _______ _______ _______ _____ _____    ______ ____
ROOT
ATOM      1  C   UNL     1       4.347   6.613  17.734  0.00  0.00    +0.000 C 
ATOM      2  O   UNL     1       4.521   7.087  16.614  0.00  0.00    +0.000 OA
ATOM      3  N   UNL     1       5.369   6.000  18.424  0.00  0.00    +0.000 N 
ATOM      4  H   UNL     1       5.187   5.710  19.378  0.00  0.00    +0.000 HD
ENDROOT
BRANCH   1   5
ATOM      5  C   UNL     1       2.941   6.503  18.391  0.00  0.00    +0.000 C 
BRANCH   5   6
ATOM      6  N   UNL     1       2.564   7.764  19.046  0.00  0.00    +0.000 N 
ATOM      7  C   UNL     1       1.545   8.523  18.499  0.00  0.00    +0.000 C 
ATOM      8  O   UNL     1       1.003   8.255  17.437  0.00  0.00    +0.000 OA
ATOM      9  N   UNL     1       1.316   9.636  19.280  0.00  0.00    +0.000 N 
ATOM     10  H   UNL     1       2.456   7.710  20.050  0.00  0.00    +0.000 HD
ATOM     11  H   UNL     1       2.163   9.985  19.712  0.00  0.00    +0.000 HD
BRANCH   9  12
ATOM     12  C   UNL     1       0.407  10.649  18.890  0.00  0.00    +0.000 A 
ATOM     13  C   UNL     1      -0.813  10.336  18.284  0.00  0.00    +0.000 A 
ATOM     14  C   UNL     1      -1.691  11.359  17.914  0.00  0.00    +0.000 A 
ATOM     15  C   UNL     1      -1.346  12.694  18.126  0.00  0.00    +0.000 A 
ATOM     16  C   UNL     1      -0.131  13.012  18.733  0.00  0.00    +0.000 A 
ATOM     17  C   UNL     1       0.733  11.993  19.133  0.00  0.00    +0.000 A 
ATOM     18 CL   UNL     1       2.244  12.421  19.858  0.00  0.00    +0.000 Cl
ENDBRANCH   9  12
ENDBRANCH   5   6
BRANCH   5  19
ATOM     19  C   UNL     1       2.906   5.308  19.391  0.00  0.00    +0.000 C 
ATOM     20  C   UNL     1       1.878   5.496  20.524  0.00  0.00    +0.000 C 
BRANCH  19  22
ATOM     21  C   UNL     1       1.377   3.943  17.828  0.00  0.00    +0.000 C 
ATOM     22  C   UNL     1       2.617   3.952  18.710  0.00  0.00    +0.000 C 
ENDBRANCH  19  22
ENDBRANCH   5  19
ENDBRANCH   1   5
BRANCH   3  23
ATOM     23  C   UNL     1       6.742   5.917  17.915  0.00  0.00    +0.000 C 
BRANCH  23  24
ATOM     24  C   UNL     1       7.709   6.145  19.089  0.00  0.00    +0.000 C 
ATOM     25  O   UNL     1       8.500   7.088  19.155  0.00  0.00    +0.000 OA
ATOM     26  N   UNL     1       7.585   5.249  20.126  0.00  0.00    +0.000 N 
ATOM     27  H   UNL     1       7.130   4.343  20.034  0.00  0.00    +0.000 HD
BRANCH  26  28
ATOM     28  O   UNL     1       8.515   5.403  21.181  0.00  0.00    +0.000 OA
ATOM     29  H   UNL     1       8.033   5.989  21.807  0.00  0.00    +0.000 HD
ENDBRANCH  26  28
ENDBRANCH  23  24
BRANCH  23  30
ATOM     30  C   UNL     1       7.044   4.559  17.254  0.00  0.00    +0.000 C 
BRANCH  30  31
ATOM     31  C   UNL     1       6.828   4.471  15.768  0.00  0.00    +0.000 A 
ATOM     32  C   UNL     1       5.949   3.668  15.064  0.00  0.00    +0.000 A 
ATOM     33  C   UNL     1       6.186   3.856  13.676  0.00  0.00    +0.000 A 
ATOM     34  C   UNL     1       5.630   3.305  12.503  0.00  0.00    +0.000 A 
ATOM     35  C   UNL     1       6.128   3.698  11.256  0.00  0.00    +0.000 A 
ATOM     36  C   UNL     1       7.166   4.621  11.169  0.00  0.00    +0.000 A 
ATOM     37  C   UNL     1       7.730   5.186  12.320  0.00  0.00    +0.000 A 
ATOM     38  C   UNL     1       7.216   4.786  13.558  0.00  0.00    +0.000 A 
ATOM     39  N   UNL     1       7.576   5.156  14.837  0.00  0.00    +0.000 N 
ATOM     40  H   UNL     1       8.308   5.822  15.042  0.00  0.00    +0.000 HD
ENDBRANCH  30  31
ENDBRANCH  23  30
ENDBRANCH   3  23
TORSDOF 10
ENDMDL
