MODEL 1
REMARK VINA RESULT:      -8.9      0.000      0.000
REMARK  Name = 
REMARK  4 active torsions:
REMARK  status: ('A' for Active; 'I' for Inactive)
REMARK    1  A    between atoms: C_2  and  C_12
REMARK    2  A    between atoms: N_3  and  C_4
REMARK    3  A    between atoms: C_16  and  C_17
REMARK    4  A    between atoms: N_19  and  C_20
REMARK                            x       y       z     vdW  Elec       q    Type
REMARK                         _______ _______ _______ _____ _____    ______ ____
ROOT
ATOM      1  C   UNL     1       2.963   5.201  19.645  0.00  0.00    +0.000 A 
ATOM      2  C   UNL     1       3.407   4.028  20.251  0.00  0.00    +0.000 A 
ATOM      3  C   UNL     1       4.342   3.262  19.568  0.00  0.00    +0.000 A 
ATOM      4  N   UNL     1       4.849   3.590  18.359  0.00  0.00    +0.000 NA
ATOM      5  C   UNL     1       4.391   4.743  17.799  0.00  0.00    +0.000 A 
ATOM      6  C   UNL     1       3.446   5.565  18.392  0.00  0.00    +0.000 A 
ENDROOT
BRANCH   1   8
ATOM      7  O   UNL     1       0.982   5.551  20.809  0.00  0.00    +0.000 OA
ATOM      8  C   UNL     1       1.955   6.081  20.291  0.00  0.00    +0.000 C 
ATOM      9  N   UNL     1       2.201   7.437  20.174  0.00  0.00    +0.000 N 
ATOM     10  H   UNL     1       2.947   7.722  19.553  0.00  0.00    +0.000 HD
BRANCH   9  11
ATOM     11  C   UNL     1       1.377   8.473  20.669  0.00  0.00    +0.000 A 
ATOM     12  C   UNL     1       1.049   8.625  22.018  0.00  0.00    +0.000 A 
ATOM     13  C   UNL     1       0.188   9.646  22.417  0.00  0.00    +0.000 A 
ATOM     14  F   UNL     1      -0.120   9.776  23.714  0.00  0.00    +0.000 F 
ATOM     15  C   UNL     1      -0.358  10.528  21.498  0.00  0.00    +0.000 A 
ATOM     16  C   UNL     1      -0.009  10.391  20.164  0.00  0.00    +0.000 A 
ATOM     17  F   UNL     1      -0.524  11.233  19.259  0.00  0.00    +0.000 F 
ATOM     18  C   UNL     1       0.859   9.385  19.742  0.00  0.00    +0.000 A 
ENDBRANCH   9  11
ENDBRANCH   1   8
BRANCH   5  19
ATOM     19  C   UNL     1       4.975   5.134  16.478  0.00  0.00    +0.000 C 
ATOM     20  O   UNL     1       4.863   6.293  16.096  0.00  0.00    +0.000 OA
ATOM     21  N   UNL     1       5.583   4.096  15.792  0.00  0.00    +0.000 N 
ATOM     22  H   UNL     1       5.484   3.181  16.225  0.00  0.00    +0.000 HD
BRANCH  21  23
ATOM     23  C   UNL     1       6.203   4.184  14.529  0.00  0.00    +0.000 A 
ATOM     24  C   UNL     1       7.260   5.057  14.254  0.00  0.00    +0.000 A 
ATOM     25  C   UNL     1       7.795   5.129  12.970  0.00  0.00    +0.000 A 
ATOM     26  F   UNL     1       8.808   5.973  12.726  0.00  0.00    +0.000 F 
ATOM     27  C   UNL     1       7.300   4.347  11.940  0.00  0.00    +0.000 A 
ATOM     28  C   UNL     1       6.270   3.463  12.221  0.00  0.00    +0.000 A 
ATOM     29  F   UNL     1       5.777   2.698  11.238  0.00  0.00    +0.000 F 
ATOM     30  C   UNL     1       5.728   3.361  13.504  0.00  0.00    +0.000 A 
ENDBRANCH  21  23
ENDBRANCH   5  19
TORSDOF 4
ENDMDL
MODEL 2
REMARK VINA RESULT:      -8.8      0.546      9.618
REMARK  Name = 
REMARK  4 active torsions:
REMARK  status: ('A' for Active; 'I' for Inactive)
REMARK    1  A    between atoms: C_2  and  C_12
REMARK    2  A    between atoms: N_3  and  C_4
REMARK    3  A    between atoms: C_16  and  C_17
REMARK    4  A    between atoms: N_19  and  C_20
REMARK                            x       y       z     vdW  Elec       q    Type
REMARK                         _______ _______ _______ _____ _____    ______ ____
ROOT
ATOM      1  C   UNL     1       4.378   4.643  17.795  0.00  0.00    +0.000 A 
ATOM      2  C   UNL     1       4.670   3.418  18.390  0.00  0.00    +0.000 A 
ATOM      3  C   UNL     1       4.061   3.127  19.602  0.00  0.00    +0.000 A 
ATOM      4  N   UNL     1       3.199   3.956  20.232  0.00  0.00    +0.000 NA
ATOM      5  C   UNL     1       2.939   5.143  19.620  0.00  0.00    +0.000 A 
ATOM      6  C   UNL     1       3.512   5.534  18.420  0.00  0.00    +0.000 A 
ENDROOT
BRANCH   1   8
ATOM      7  O   UNL     1       4.864   6.215  16.153  0.00  0.00    +0.000 OA
ATOM      8  C   UNL     1       4.991   5.051  16.504  0.00  0.00    +0.000 C 
ATOM      9  N   UNL     1       5.594   4.029  15.794  0.00  0.00    +0.000 N 
ATOM     10  H   UNL     1       5.450   3.084  16.127  0.00  0.00    +0.000 HD
BRANCH   9  11
ATOM     11  C   UNL     1       6.213   4.152  14.529  0.00  0.00    +0.000 A 
ATOM     12  C   UNL     1       7.260   5.037  14.262  0.00  0.00    +0.000 A 
ATOM     13  C   UNL     1       7.781   5.133  12.972  0.00  0.00    +0.000 A 
ATOM     14  F   UNL     1       8.782   5.989  12.730  0.00  0.00    +0.000 F 
ATOM     15  C   UNL     1       7.282   4.361  11.934  0.00  0.00    +0.000 A 
ATOM     16  C   UNL     1       6.262   3.465  12.209  0.00  0.00    +0.000 A 
ATOM     17  F   UNL     1       5.765   2.709  11.222  0.00  0.00    +0.000 F 
ATOM     18  C   UNL     1       5.732   3.343  13.493  0.00  0.00    +0.000 A 
ENDBRANCH   9  11
ENDBRANCH   1   8
BRANCH   5  19
ATOM     19  C   UNL     1       1.957   6.051  20.292  0.00  0.00    +0.000 C 
ATOM     20  O   UNL     1       1.052   5.562  20.958  0.00  0.00    +0.000 OA
ATOM     21  N   UNL     1       2.173   7.399  20.058  0.00  0.00    +0.000 N 
ATOM     22  H   UNL     1       2.914   7.606  19.393  0.00  0.00    +0.000 HD
BRANCH  21  23
ATOM     23  C   UNL     1       1.398   8.465  20.559  0.00  0.00    +0.000 A 
ATOM     24  C   UNL     1       1.109   8.629  21.918  0.00  0.00    +0.000 A 
ATOM     25  C   UNL     1       0.295   9.677  22.341  0.00  0.00    +0.000 A 
ATOM     26  F   UNL     1       0.028   9.816  23.647  0.00  0.00    +0.000 F 
ATOM     27  C   UNL     1      -0.246  10.577  21.438  0.00  0.00    +0.000 A 
ATOM     28  C   UNL     1       0.064  10.428  20.095  0.00  0.00    +0.000 A 
ATOM     29  F   UNL     1      -0.451  11.288  19.205  0.00  0.00    +0.000 F 
ATOM     30  C   UNL     1       0.889   9.395  19.648  0.00  0.00    +0.000 A 
ENDBRANCH  21  23
ENDBRANCH   5  19
TORSDOF 4
ENDMDL
MODEL 3
REMARK VINA RESULT:      -8.8      1.171      1.891
REMARK  Name = 
REMARK  4 active torsions:
REMARK  status: ('A' for Active; 'I' for Inactive)
REMARK    1  A    between atoms: C_2  and  C_12
REMARK    2  A    between atoms: N_3  and  C_4
REMARK    3  A    between atoms: C_16  and  C_17
REMARK    4  A    between atoms: N_19  and  C_20
REMARK                            x       y       z     vdW  Elec       q    Type
REMARK                         _______ _______ _______ _____ _____    ______ ____
ROOT
ATOM      1  C   UNL     1       3.002   6.107  19.211  0.00  0.00    +0.000 A 
ATOM      2  C   UNL     1       2.819   5.099  20.155  0.00  0.00    +0.000 A 
ATOM      3  C   UNL     1       3.571   3.941  20.018  0.00  0.00    +0.000 A 
ATOM      4  N   UNL     1       4.473   3.739  19.032  0.00  0.00    +0.000 NA
ATOM      5  C   UNL     1       4.623   4.746  18.129  0.00  0.00    +0.000 A 
ATOM      6  C   UNL     1       3.906   5.930  18.168  0.00  0.00    +0.000 A 
ENDROOT
BRANCH   1   8
ATOM      7  O   UNL     1       2.110   8.016  18.230  0.00  0.00    +0.000 OA
ATOM      8  C   UNL     1       2.234   7.377  19.266  0.00  0.00    +0.000 C 
ATOM      9  N   UNL     1       1.789   7.739  20.524  0.00  0.00    +0.000 N 
ATOM     10  H   UNL     1       2.135   7.204  21.310  0.00  0.00    +0.000 HD
BRANCH   9  11
ATOM     11  C   UNL     1       1.072   8.914  20.843  0.00  0.00    +0.000 A 
ATOM     12  C   UNL     1       1.119  10.082  20.078  0.00  0.00    +0.000 A 
ATOM     13  C   UNL     1       0.421  11.216  20.491  0.00  0.00    +0.000 A 
ATOM     14  F   UNL     1       0.479  12.330  19.750  0.00  0.00    +0.000 F 
ATOM     15  C   UNL     1      -0.333  11.214  21.654  0.00  0.00    +0.000 A 
ATOM     16  C   UNL     1      -0.400  10.045  22.396  0.00  0.00    +0.000 A 
ATOM     17  F   UNL     1      -1.122  10.021  23.523  0.00  0.00    +0.000 F 
ATOM     18  C   UNL     1       0.281   8.896  21.998  0.00  0.00    +0.000 A 
ENDBRANCH   9  11
ENDBRANCH   1   8
BRANCH   5  19
ATOM     19  C   UNL     1       5.646   4.546  17.055  0.00  0.00    +0.000 C 
ATOM     20  O   UNL     1       6.816   4.361  17.372  0.00  0.00    +0.000 OA
ATOM     21  N   UNL     1       5.144   4.617  15.767  0.00  0.00    +0.000 N 
ATOM     22  H   UNL     1       4.164   4.882  15.703  0.00  0.00    +0.000 HD
BRANCH  21  23
ATOM     23  C   UNL     1       5.885   4.475  14.575  0.00  0.00    +0.000 A 
ATOM     24  C   UNL     1       7.045   5.206  14.304  0.00  0.00    +0.000 A 
ATOM     25  C   UNL     1       7.703   5.052  13.085  0.00  0.00    +0.000 A 
ATOM     26  F   UNL     1       8.813   5.763  12.843  0.00  0.00    +0.000 F 
ATOM     27  C   UNL     1       7.229   4.181  12.118  0.00  0.00    +0.000 A 
ATOM     28  C   UNL     1       6.094   3.438  12.400  0.00  0.00    +0.000 A 
ATOM     29  F   UNL     1       5.620   2.591  11.477  0.00  0.00    +0.000 F 
ATOM     30  C   UNL     1       5.427   3.563  13.620  0.00  0.00    +0.000 A 
ENDBRANCH  21  23
ENDBRANCH   5  19
TORSDOF 4
ENDMDL
MODEL 4
REMARK VINA RESULT:      -8.8      1.237      9.735
REMARK  Name = 
REMARK  4 active torsions:
REMARK  status: ('A' for Active; 'I' for Inactive)
REMARK    1  A    between atoms: C_2  and  C_12
REMARK    2  A    between atoms: N_3  and  C_4
REMARK    3  A    between atoms: C_16  and  C_17
REMARK    4  A    between atoms: N_19  and  C_20
REMARK                            x       y       z     vdW  Elec       q    Type
REMARK                         _______ _______ _______ _____ _____    ______ ____
ROOT
ATOM      1  C   UNL     1       4.697   4.698  18.075  0.00  0.00    +0.000 A 
ATOM      2  C   UNL     1       4.440   3.713  19.027  0.00  0.00    +0.000 A 
ATOM      3  C   UNL     1       3.501   3.994  20.009  0.00  0.00    +0.000 A 
ATOM      4  N   UNL     1       2.820   5.158  20.092  0.00  0.00    +0.000 NA
ATOM      5  C   UNL     1       3.098   6.095  19.145  0.00  0.00    +0.000 A 
ATOM      6  C   UNL     1       4.031   5.918  18.136  0.00  0.00    +0.000 A 
ENDROOT
BRANCH   1   8
ATOM      7  O   UNL     1       6.864   4.344  17.313  0.00  0.00    +0.000 OA
ATOM      8  C   UNL     1       5.694   4.496  16.992  0.00  0.00    +0.000 C 
ATOM      9  N   UNL     1       5.186   4.571  15.707  0.00  0.00    +0.000 N 
ATOM     10  H   UNL     1       4.232   4.892  15.604  0.00  0.00    +0.000 HD
BRANCH   9  11
ATOM     11  C   UNL     1       5.933   4.450  14.514  0.00  0.00    +0.000 A 
ATOM     12  C   UNL     1       7.073   5.207  14.233  0.00  0.00    +0.000 A 
ATOM     13  C   UNL     1       7.723   5.063  13.008  0.00  0.00    +0.000 A 
ATOM     14  F   UNL     1       8.813   5.798  12.752  0.00  0.00    +0.000 F 
ATOM     15  C   UNL     1       7.263   4.174  12.049  0.00  0.00    +0.000 A 
ATOM     16  C   UNL     1       6.148   3.406  12.341  0.00  0.00    +0.000 A 
ATOM     17  F   UNL     1       5.686   2.541  11.430  0.00  0.00    +0.000 F 
ATOM     18  C   UNL     1       5.487   3.524  13.563  0.00  0.00    +0.000 A 
ENDBRANCH   9  11
ENDBRANCH   1   8
BRANCH   5  19
ATOM     19  C   UNL     1       2.321   7.373  19.206  0.00  0.00    +0.000 C 
ATOM     20  O   UNL     1       2.193   8.042  18.187  0.00  0.00    +0.000 OA
ATOM     21  N   UNL     1       1.831   7.684  20.463  0.00  0.00    +0.000 N 
ATOM     22  H   UNL     1       2.130   7.058  21.206  0.00  0.00    +0.000 HD
BRANCH  21  23
ATOM     23  C   UNL     1       1.077   8.826  20.803  0.00  0.00    +0.000 A 
ATOM     24  C   UNL     1       0.906   9.914  19.942  0.00  0.00    +0.000 A 
ATOM     25  C   UNL     1       0.189  11.034  20.359  0.00  0.00    +0.000 A 
ATOM     26  F   UNL     1       0.037  12.068  19.519  0.00  0.00    +0.000 F 
ATOM     27  C   UNL     1      -0.368  11.099  21.625  0.00  0.00    +0.000 A 
ATOM     28  C   UNL     1      -0.220  10.008  22.467  0.00  0.00    +0.000 A 
ATOM     29  F   UNL     1      -0.751  10.053  23.696  0.00  0.00    +0.000 F 
ATOM     30  C   UNL     1       0.481   8.869  22.066  0.00  0.00    +0.000 A 
ENDBRANCH  21  23
ENDBRANCH   5  19
TORSDOF 4
ENDMDL
MODEL 5
REMARK VINA RESULT:      -8.8      0.164      1.554
REMARK  Name = 
REMARK  4 active torsions:
REMARK  status: ('A' for Active; 'I' for Inactive)
REMARK    1  A    between atoms: C_2  and  C_12
REMARK    2  A    between atoms: N_3  and  C_4
REMARK    3  A    between atoms: C_16  and  C_17
REMARK    4  A    between atoms: N_19  and  C_20
REMARK                            x       y       z     vdW  Elec       q    Type
REMARK                         _______ _______ _______ _____ _____    ______ ____
ROOT
ATOM      1  C   UNL     1       2.879   5.250  19.667  0.00  0.00    +0.000 A 
ATOM      2  C   UNL     1       3.314   4.083  20.291  0.00  0.00    +0.000 A 
ATOM      3  C   UNL     1       4.261   3.313  19.632  0.00  0.00    +0.000 A 
ATOM      4  N   UNL     1       4.790   3.631  18.429  0.00  0.00    +0.000 NA
ATOM      5  C   UNL     1       4.340   4.778  17.851  0.00  0.00    +0.000 A 
ATOM      6  C   UNL     1       3.383   5.604  18.419  0.00  0.00    +0.000 A 
ENDROOT
BRANCH   1   8
ATOM      7  O   UNL     1       0.866   5.608  20.773  0.00  0.00    +0.000 OA
ATOM      8  C   UNL     1       1.858   6.133  20.286  0.00  0.00    +0.000 C 
ATOM      9  N   UNL     1       2.116   7.488  20.184  0.00  0.00    +0.000 N 
ATOM     10  H   UNL     1       2.881   7.771  19.586  0.00  0.00    +0.000 HD
BRANCH   9  11
ATOM     11  C   UNL     1       1.284   8.528  20.659  0.00  0.00    +0.000 A 
ATOM     12  C   UNL     1       0.746   9.524  19.841  0.00  0.00    +0.000 A 
ATOM     13  C   UNL     1      -0.023  10.545  20.397  0.00  0.00    +0.000 A 
ATOM     14  F   UNL     1      -0.529  11.495  19.601  0.00  0.00    +0.000 F 
ATOM     15  C   UNL     1      -0.275  10.596  21.760  0.00  0.00    +0.000 A 
ATOM     16  C   UNL     1       0.238   9.591  22.564  0.00  0.00    +0.000 A 
ATOM     17  F   UNL     1       0.007   9.620  23.882  0.00  0.00    +0.000 F 
ATOM     18  C   UNL     1       1.001   8.554  22.029  0.00  0.00    +0.000 A 
ENDBRANCH   9  11
ENDBRANCH   1   8
BRANCH   5  19
ATOM     19  C   UNL     1       4.947   5.159  16.537  0.00  0.00    +0.000 C 
ATOM     20  O   UNL     1       4.914   6.331  16.182  0.00  0.00    +0.000 OA
ATOM     21  N   UNL     1       5.480   4.097  15.825  0.00  0.00    +0.000 N 
ATOM     22  H   UNL     1       5.319   3.181  16.237  0.00  0.00    +0.000 HD
BRANCH  21  23
ATOM     23  C   UNL     1       6.102   4.171  14.562  0.00  0.00    +0.000 A 
ATOM     24  C   UNL     1       7.196   5.000  14.295  0.00  0.00    +0.000 A 
ATOM     25  C   UNL     1       7.733   5.063  13.011  0.00  0.00    +0.000 A 
ATOM     26  F   UNL     1       8.780   5.865  12.775  0.00  0.00    +0.000 F 
ATOM     27  C   UNL     1       7.203   4.314  11.974  0.00  0.00    +0.000 A 
ATOM     28  C   UNL     1       6.136   3.473  12.247  0.00  0.00    +0.000 A 
ATOM     29  F   UNL     1       5.609   2.740  11.256  0.00  0.00    +0.000 F 
ATOM     30  C   UNL     1       5.591   3.381  13.529  0.00  0.00    +0.000 A 
ENDBRANCH  21  23
ENDBRANCH   5  19
TORSDOF 4
ENDMDL
MODEL 6
REMARK VINA RESULT:      -8.8      0.569      9.685
REMARK  Name = 
REMARK  4 active torsions:
REMARK  status: ('A' for Active; 'I' for Inactive)
REMARK    1  A    between atoms: C_2  and  C_12
REMARK    2  A    between atoms: N_3  and  C_4
REMARK    3  A    between atoms: C_16  and  C_17
REMARK    4  A    between atoms: N_19  and  C_20
REMARK                            x       y       z     vdW  Elec       q    Type
REMARK                         _______ _______ _______ _____ _____    ______ ____
ROOT
ATOM      1  C   UNL     1       4.416   4.791  17.891  0.00  0.00    +0.000 A 
ATOM      2  C   UNL     1       4.804   3.637  18.569  0.00  0.00    +0.000 A 
ATOM      3  C   UNL     1       4.209   3.378  19.796  0.00  0.00    +0.000 A 
ATOM      4  N   UNL     1       3.275   4.172  20.365  0.00  0.00    +0.000 NA
ATOM      5  C   UNL     1       2.922   5.289  19.673  0.00  0.00    +0.000 A 
ATOM      6  C   UNL     1       3.471   5.645  18.451  0.00  0.00    +0.000 A 
ENDROOT
BRANCH   1   8
ATOM      7  O   UNL     1       4.910   6.326  16.217  0.00  0.00    +0.000 OA
ATOM      8  C   UNL     1       5.004   5.161  16.579  0.00  0.00    +0.000 C 
ATOM      9  N   UNL     1       5.548   4.109  15.863  0.00  0.00    +0.000 N 
ATOM     10  H   UNL     1       5.379   3.175  16.212  0.00  0.00    +0.000 HD
BRANCH   9  11
ATOM     11  C   UNL     1       6.133   4.195  14.580  0.00  0.00    +0.000 A 
ATOM     12  C   UNL     1       7.217   5.023  14.276  0.00  0.00    +0.000 A 
ATOM     13  C   UNL     1       7.702   5.087  12.971  0.00  0.00    +0.000 A 
ATOM     14  F   UNL     1       8.740   5.888  12.694  0.00  0.00    +0.000 F 
ATOM     15  C   UNL     1       7.131   4.339  11.952  0.00  0.00    +0.000 A 
ATOM     16  C   UNL     1       6.074   3.500  12.262  0.00  0.00    +0.000 A 
ATOM     17  F   UNL     1       5.508   2.768  11.295  0.00  0.00    +0.000 F 
ATOM     18  C   UNL     1       5.578   3.410  13.562  0.00  0.00    +0.000 A 
ENDBRANCH   9  11
ENDBRANCH   1   8
BRANCH   5  19
ATOM     19  C   UNL     1       1.860   6.153  20.277  0.00  0.00    +0.000 C 
ATOM     20  O   UNL     1       0.869   5.626  20.768  0.00  0.00    +0.000 OA
ATOM     21  N   UNL     1       2.112   7.512  20.191  0.00  0.00    +0.000 N 
ATOM     22  H   UNL     1       2.939   7.762  19.654  0.00  0.00    +0.000 HD
BRANCH  21  23
ATOM     23  C   UNL     1       1.280   8.545  20.669  0.00  0.00    +0.000 A 
ATOM     24  C   UNL     1       0.736   9.534  19.843  0.00  0.00    +0.000 A 
ATOM     25  C   UNL     1      -0.039  10.556  20.387  0.00  0.00    +0.000 A 
ATOM     26  F   UNL     1      -0.550  11.495  19.579  0.00  0.00    +0.000 F 
ATOM     27  C   UNL     1      -0.289  10.620  21.748  0.00  0.00    +0.000 A 
ATOM     28  C   UNL     1       0.228   9.624  22.561  0.00  0.00    +0.000 A 
ATOM     29  F   UNL     1      -0.003   9.670  23.879  0.00  0.00    +0.000 F 
ATOM     30  C   UNL     1       0.994   8.582  22.037  0.00  0.00    +0.000 A 
ENDBRANCH  21  23
ENDBRANCH   5  19
TORSDOF 4
ENDMDL
MODEL 7
REMARK VINA RESULT:      -8.8      0.540      9.675
REMARK  Name = 
REMARK  4 active torsions:
REMARK  status: ('A' for Active; 'I' for Inactive)
REMARK    1  A    between atoms: C_2  and  C_12
REMARK    2  A    between atoms: N_3  and  C_4
REMARK    3  A    between atoms: C_16  and  C_17
REMARK    4  A    between atoms: N_19  and  C_20
REMARK                            x       y       z     vdW  Elec       q    Type
REMARK                         _______ _______ _______ _____ _____    ______ ____
ROOT
ATOM      1  C   UNL     1       4.418   4.680  17.810  0.00  0.00    +0.000 A 
ATOM      2  C   UNL     1       4.817   3.519  18.468  0.00  0.00    +0.000 A 
ATOM      3  C   UNL     1       4.258   3.256  19.710  0.00  0.00    +0.000 A 
ATOM      4  N   UNL     1       3.348   4.053  20.313  0.00  0.00    +0.000 NA
ATOM      5  C   UNL     1       2.984   5.178  19.639  0.00  0.00    +0.000 A 
ATOM      6  C   UNL     1       3.498   5.538  18.404  0.00  0.00    +0.000 A 
ENDROOT
BRANCH   1   8
ATOM      7  O   UNL     1       4.834   6.212  16.112  0.00  0.00    +0.000 OA
ATOM      8  C   UNL     1       4.970   5.054  16.482  0.00  0.00    +0.000 C 
ATOM      9  N   UNL     1       5.530   4.012  15.766  0.00  0.00    +0.000 N 
ATOM     10  H   UNL     1       5.396   3.076  16.127  0.00  0.00    +0.000 HD
BRANCH   9  11
ATOM     11  C   UNL     1       6.086   4.103  14.470  0.00  0.00    +0.000 A 
ATOM     12  C   UNL     1       5.626   3.365  13.376  0.00  0.00    +0.000 A 
ATOM     13  C   UNL     1       6.265   3.475  12.142  0.00  0.00    +0.000 A 
ATOM     14  F   UNL     1       5.814   2.759  11.103  0.00  0.00    +0.000 F 
ATOM     15  C   UNL     1       7.357   4.311  11.968  0.00  0.00    +0.000 A 
ATOM     16  C   UNL     1       7.794   5.060  13.048  0.00  0.00    +0.000 A 
ATOM     17  F   UNL     1       8.847   5.874  12.902  0.00  0.00    +0.000 F 
ATOM     18  C   UNL     1       7.166   4.976  14.289  0.00  0.00    +0.000 A 
ENDBRANCH   9  11
ENDBRANCH   1   8
BRANCH   5  19
ATOM     19  C   UNL     1       1.948   6.047  20.281  0.00  0.00    +0.000 C 
ATOM     20  O   UNL     1       0.983   5.523  20.825  0.00  0.00    +0.000 OA
ATOM     21  N   UNL     1       2.191   7.406  20.166  0.00  0.00    +0.000 N 
ATOM     22  H   UNL     1       2.991   7.650  19.588  0.00  0.00    +0.000 HD
BRANCH  21  23
ATOM     23  C   UNL     1       1.378   8.442  20.669  0.00  0.00    +0.000 A 
ATOM     24  C   UNL     1       1.084   8.593  22.028  0.00  0.00    +0.000 A 
ATOM     25  C   UNL     1       0.233   9.610  22.453  0.00  0.00    +0.000 A 
ATOM     26  F   UNL     1      -0.038   9.738  23.760  0.00  0.00    +0.000 F 
ATOM     27  C   UNL     1      -0.341  10.491  21.552  0.00  0.00    +0.000 A 
ATOM     28  C   UNL     1      -0.027  10.356  20.209  0.00  0.00    +0.000 A 
ATOM     29  F   UNL     1      -0.572  11.198  19.321  0.00  0.00    +0.000 F 
ATOM     30  C   UNL     1       0.836   9.355  19.760  0.00  0.00    +0.000 A 
ENDBRANCH  21  23
ENDBRANCH   5  19
TORSDOF 4
ENDMDL
MODEL 8
REMARK VINA RESULT:      -8.7      1.102      1.129
REMARK  Name = 
REMARK  4 active torsions:
REMARK  status: ('A' for Active; 'I' for Inactive)
REMARK    1  A    between atoms: C_2  and  C_12
REMARK    2  A    between atoms: N_3  and  C_4
REMARK    3  A    between atoms: C_16  and  C_17
REMARK    4  A    between atoms: N_19  and  C_20
REMARK                            x       y       z     vdW  Elec       q    Type
REMARK                         _______ _______ _______ _____ _____    ______ ____
ROOT
ATOM      1  C   UNL     1       3.030   5.985  19.258  0.00  0.00    +0.000 A 
ATOM      2  C   UNL     1       2.851   4.949  20.173  0.00  0.00    +0.000 A 
ATOM      3  C   UNL     1       3.604   3.797  20.000  0.00  0.00    +0.000 A 
ATOM      4  N   UNL     1       4.502   3.624  19.005  0.00  0.00    +0.000 NA
ATOM      5  C   UNL     1       4.648   4.657  18.131  0.00  0.00    +0.000 A 
ATOM      6  C   UNL     1       3.930   5.839  18.207  0.00  0.00    +0.000 A 
ENDROOT
BRANCH   1   8
ATOM      7  O   UNL     1       2.143   7.926  18.338  0.00  0.00    +0.000 OA
ATOM      8  C   UNL     1       2.261   7.252  19.352  0.00  0.00    +0.000 C 
ATOM      9  N   UNL     1       1.808   7.570  20.620  0.00  0.00    +0.000 N 
ATOM     10  H   UNL     1       2.149   7.007  21.389  0.00  0.00    +0.000 HD
BRANCH   9  11
ATOM     11  C   UNL     1       1.088   8.733  20.975  0.00  0.00    +0.000 A 
ATOM     12  C   UNL     1       0.396   8.877  22.180  0.00  0.00    +0.000 A 
ATOM     13  C   UNL     1      -0.333  10.039  22.431  0.00  0.00    +0.000 A 
ATOM     14  F   UNL     1      -0.995  10.162  23.589  0.00  0.00    +0.000 F 
ATOM     15  C   UNL     1      -0.388  11.069  21.506  0.00  0.00    +0.000 A 
ATOM     16  C   UNL     1       0.322  10.934  20.323  0.00  0.00    +0.000 A 
ATOM     17  F   UNL     1       0.283  11.917  19.416  0.00  0.00    +0.000 F 
ATOM     18  C   UNL     1       1.066   9.786  20.054  0.00  0.00    +0.000 A 
ENDBRANCH   9  11
ENDBRANCH   1   8
BRANCH   5  19
ATOM     19  C   UNL     1       5.668   4.490  17.048  0.00  0.00    +0.000 C 
ATOM     20  O   UNL     1       6.846   4.346  17.355  0.00  0.00    +0.000 OA
ATOM     21  N   UNL     1       5.152   4.542  15.764  0.00  0.00    +0.000 N 
ATOM     22  H   UNL     1       4.163   4.773  15.709  0.00  0.00    +0.000 HD
BRANCH  21  23
ATOM     23  C   UNL     1       5.887   4.421  14.566  0.00  0.00    +0.000 A 
ATOM     24  C   UNL     1       7.025   5.183  14.287  0.00  0.00    +0.000 A 
ATOM     25  C   UNL     1       7.676   5.050  13.063  0.00  0.00    +0.000 A 
ATOM     26  F   UNL     1       8.765   5.791  12.813  0.00  0.00    +0.000 F 
ATOM     27  C   UNL     1       7.218   4.170  12.097  0.00  0.00    +0.000 A 
ATOM     28  C   UNL     1       6.105   3.396  12.387  0.00  0.00    +0.000 A 
ATOM     29  F   UNL     1       5.646   2.539  11.465  0.00  0.00    +0.000 F 
ATOM     30  C   UNL     1       5.445   3.500  13.613  0.00  0.00    +0.000 A 
ENDBRANCH  21  23
ENDBRANCH   5  19
TORSDOF 4
ENDMDL
MODEL 9
REMARK VINA RESULT:      -8.7      1.922      9.637
REMARK  Name = 
REMARK  4 active torsions:
REMARK  status: ('A' for Active; 'I' for Inactive)
REMARK    1  A    between atoms: C_2  and  C_12
REMARK    2  A    between atoms: N_3  and  C_4
REMARK    3  A    between atoms: C_16  and  C_17
REMARK    4  A    between atoms: N_19  and  C_20
REMARK                            x       y       z     vdW  Elec       q    Type
REMARK                         _______ _______ _______ _____ _____    ______ ____
ROOT
ATOM      1  C   UNL     1       4.155   5.893  17.557  0.00  0.00    +0.000 A 
ATOM      2  C   UNL     1       4.172   4.765  18.374  0.00  0.00    +0.000 A 
ATOM      3  C   UNL     1       3.420   4.801  19.540  0.00  0.00    +0.000 A 
ATOM      4  N   UNL     1       2.670   5.858  19.923  0.00  0.00    +0.000 NA
ATOM      5  C   UNL     1       2.680   6.941  19.099  0.00  0.00    +0.000 A 
ATOM      6  C   UNL     1       3.412   7.010  17.924  0.00  0.00    +0.000 A 
ENDROOT
BRANCH   1   8
ATOM      7  O   UNL     1       5.192   7.059  15.834  0.00  0.00    +0.000 OA
ATOM      8  C   UNL     1       4.938   5.955  16.296  0.00  0.00    +0.000 C 
ATOM      9  N   UNL     1       5.243   4.728  15.734  0.00  0.00    +0.000 N 
ATOM     10  H   UNL     1       4.799   3.912  16.135  0.00  0.00    +0.000 HD
BRANCH   9  11
ATOM     11  C   UNL     1       5.943   4.522  14.524  0.00  0.00    +0.000 A 
ATOM     12  C   UNL     1       7.118   5.198  14.184  0.00  0.00    +0.000 A 
ATOM     13  C   UNL     1       7.719   4.973  12.946  0.00  0.00    +0.000 A 
ATOM     14  F   UNL     1       8.842   5.631  12.633  0.00  0.00    +0.000 F 
ATOM     15  C   UNL     1       7.176   4.083  12.033  0.00  0.00    +0.000 A 
ATOM     16  C   UNL     1       6.026   3.394  12.385  0.00  0.00    +0.000 A 
ATOM     17  F   UNL     1       5.485   2.529  11.518  0.00  0.00    +0.000 F 
ATOM     18  C   UNL     1       5.413   3.594  13.621  0.00  0.00    +0.000 A 
ENDBRANCH   9  11
ENDBRANCH   1   8
BRANCH   5  19
ATOM     19  C   UNL     1       1.823   8.102  19.495  0.00  0.00    +0.000 C 
ATOM     20  O   UNL     1       1.340   8.130  20.621  0.00  0.00    +0.000 OA
ATOM     21  N   UNL     1       1.641   9.046  18.498  0.00  0.00    +0.000 N 
ATOM     22  H   UNL     1       2.037   8.796  17.595  0.00  0.00    +0.000 HD
BRANCH  21  23
ATOM     23  C   UNL     1       0.878  10.227  18.598  0.00  0.00    +0.000 A 
ATOM     24  C   UNL     1      -0.520  10.234  18.632  0.00  0.00    +0.000 A 
ATOM     25  C   UNL     1      -1.215  11.440  18.682  0.00  0.00    +0.000 A 
ATOM     26  F   UNL     1      -2.555  11.426  18.712  0.00  0.00    +0.000 F 
ATOM     27  C   UNL     1      -0.548  12.654  18.699  0.00  0.00    +0.000 A 
ATOM     28  C   UNL     1       0.838  12.643  18.693  0.00  0.00    +0.000 A 
ATOM     29  F   UNL     1       1.502  13.807  18.708  0.00  0.00    +0.000 F 
ATOM     30  C   UNL     1       1.557  11.447  18.658  0.00  0.00    +0.000 A 
ENDBRANCH  21  23
ENDBRANCH   5  19
TORSDOF 4
ENDMDL
