MODEL 1
REMARK VINA RESULT:      -8.4      0.000      0.000
REMARK  Name = 
REMARK  3 active torsions:
REMARK  status: ('A' for Active; 'I' for Inactive)
REMARK    1  A    between atoms: C_1  and  C_2
REMARK    2  A    between atoms: C_13  and  C_15
REMARK    3  A    between atoms: C_22  and  N_23
REMARK                            x       y       z     vdW  Elec       q    Type
REMARK                         _______ _______ _______ _____ _____    ______ ____
ROOT
ATOM      1  C   UNL     1       2.534   6.273  18.362  0.00  0.00    +0.000 C 
ATOM      2  C   UNL     1       3.432   5.090  18.761  0.00  0.00    +0.000 C 
ATOM      3  C   UNL     1       2.681   4.182  19.720  0.00  0.00    +0.000 A 
ATOM      4  C   UNL     1       2.475   4.625  21.042  0.00  0.00    +0.000 A 
ATOM      5  C   UNL     1       1.773   3.839  21.950  0.00  0.00    +0.000 A 
ATOM      6  C   UNL     1       1.271   2.613  21.539  0.00  0.00    +0.000 A 
ATOM      7  F   UNL     1       0.591   1.856  22.411  0.00  0.00    +0.000 F 
ATOM      8  C   UNL     1       1.470   2.153  20.240  0.00  0.00    +0.000 A 
ATOM      9  C   UNL     1       2.184   2.930  19.312  0.00  0.00    +0.000 A 
ATOM     10  C   UNL     1       2.477   2.398  17.933  0.00  0.00    +0.000 C 
ATOM     11  C   UNL     1       2.946   3.482  16.955  0.00  0.00    +0.000 C 
ATOM     12  N   UNL     1       3.930   4.384  17.567  0.00  0.00    +0.000 N 
ATOM     13  C   UNL     1       5.252   4.360  17.097  0.00  0.00    +0.000 C 
ATOM     14  O   UNL     1       5.617   3.536  16.255  0.00  0.00    +0.000 OA
ENDROOT
BRANCH  13  15
ATOM     15  C   UNL     1       6.262   5.358  17.656  0.00  0.00    +0.000 A 
ATOM     16  N   UNL     1       6.957   5.032  18.794  0.00  0.00    +0.000 N 
ATOM     17  C   UNL     1       8.017   5.719  19.287  0.00  0.00    +0.000 A 
ATOM     18  O   UNL     1       8.662   5.288  20.236  0.00  0.00    +0.000 OA
ATOM     19  N   UNL     1       8.317   6.875  18.651  0.00  0.00    +0.000 N 
ATOM     20  C   UNL     1       7.592   7.391  17.618  0.00  0.00    +0.000 A 
ATOM     21  O   UNL     1       7.881   8.476  17.119  0.00  0.00    +0.000 OA
ATOM     22  C   UNL     1       6.451   6.559  17.070  0.00  0.00    +0.000 A 
ATOM     23  H   UNL     1       6.699   4.218  19.322  0.00  0.00    +0.000 HD
ATOM     24  H   UNL     1       9.088   7.419  19.007  0.00  0.00    +0.000 HD
BRANCH  22  25
ATOM     25  N   UNL     1       5.751   7.131  16.032  0.00  0.00    +0.000 N 
ATOM     26  H   UNL     1       6.271   7.792  15.458  0.00  0.00    +0.000 HD
ATOM     27  H   UNL     1       5.009   6.578  15.605  0.00  0.00    +0.000 HD
ENDBRANCH  22  25
ENDBRANCH  13  15
TORSDOF 2
ENDMDL
MODEL 2
REMARK VINA RESULT:      -7.9      2.459      3.872
REMARK  Name = 
REMARK  3 active torsions:
REMARK  status: ('A' for Active; 'I' for Inactive)
REMARK    1  A    between atoms: C_1  and  C_2
REMARK    2  A    between atoms: C_13  and  C_15
REMARK    3  A    between atoms: C_22  and  N_23
REMARK                            x       y       z     vdW  Elec       q    Type
REMARK                         _______ _______ _______ _____ _____    ______ ____
ROOT
ATOM      1  C   UNL     1       1.825   5.013  17.235  0.00  0.00    +0.000 C 
ATOM      2  C   UNL     1       2.877   5.480  18.255  0.00  0.00    +0.000 C 
ATOM      3  C   UNL     1       2.260   6.508  19.188  0.00  0.00    +0.000 A 
ATOM      4  C   UNL     1       2.002   7.800  18.687  0.00  0.00    +0.000 A 
ATOM      5  C   UNL     1       1.416   8.768  19.496  0.00  0.00    +0.000 A 
ATOM      6  C   UNL     1       1.084   8.448  20.804  0.00  0.00    +0.000 A 
ATOM      7  F   UNL     1       0.517   9.378  21.584  0.00  0.00    +0.000 F 
ATOM      8  C   UNL     1       1.339   7.180  21.322  0.00  0.00    +0.000 A 
ATOM      9  C   UNL     1       1.936   6.193  20.521  0.00  0.00    +0.000 A 
ATOM     10  C   UNL     1       2.294   4.849  21.103  0.00  0.00    +0.000 C 
ATOM     11  C   UNL     1       2.607   3.794  20.035  0.00  0.00    +0.000 C 
ATOM     12  N   UNL     1       3.462   4.330  18.969  0.00  0.00    +0.000 N 
ATOM     13  C   UNL     1       4.773   3.845  18.846  0.00  0.00    +0.000 C 
ATOM     14  O   UNL     1       5.243   3.056  19.669  0.00  0.00    +0.000 OA
ENDROOT
BRANCH  13  15
ATOM     15  C   UNL     1       5.640   4.321  17.684  0.00  0.00    +0.000 A 
ATOM     16  N   UNL     1       5.565   3.658  16.484  0.00  0.00    +0.000 N 
ATOM     17  C   UNL     1       6.114   4.083  15.319  0.00  0.00    +0.000 A 
ATOM     18  O   UNL     1       5.892   3.496  14.266  0.00  0.00    +0.000 OA
ATOM     19  N   UNL     1       6.886   5.191  15.402  0.00  0.00    +0.000 N 
ATOM     20  C   UNL     1       7.176   5.836  16.568  0.00  0.00    +0.000 A 
ATOM     21  O   UNL     1       7.933   6.806  16.586  0.00  0.00    +0.000 OA
ATOM     22  C   UNL     1       6.495   5.355  17.832  0.00  0.00    +0.000 A 
ATOM     23  H   UNL     1       5.059   2.792  16.421  0.00  0.00    +0.000 HD
ATOM     24  H   UNL     1       7.326   5.520  14.556  0.00  0.00    +0.000 HD
BRANCH  22  25
ATOM     25  N   UNL     1       6.829   6.039  18.978  0.00  0.00    +0.000 N 
ATOM     26  H   UNL     1       7.572   5.627  19.539  0.00  0.00    +0.000 HD
ATOM     27  H   UNL     1       6.715   7.051  18.971  0.00  0.00    +0.000 HD
ENDBRANCH  22  25
ENDBRANCH  13  15
TORSDOF 2
ENDMDL
MODEL 3
REMARK VINA RESULT:      -7.7      3.847      6.574
REMARK  Name = 
REMARK  3 active torsions:
REMARK  status: ('A' for Active; 'I' for Inactive)
REMARK    1  A    between atoms: C_1  and  C_2
REMARK    2  A    between atoms: C_13  and  C_15
REMARK    3  A    between atoms: C_22  and  N_23
REMARK                            x       y       z     vdW  Elec       q    Type
REMARK                         _______ _______ _______ _____ _____    ______ ____
ROOT
ATOM      1  C   UNL     1       4.245   6.995  16.474  0.00  0.00    +0.000 C 
ATOM      2  C   UNL     1       4.886   5.635  16.802  0.00  0.00    +0.000 C 
ATOM      3  C   UNL     1       5.504   5.048  15.544  0.00  0.00    +0.000 A 
ATOM      4  C   UNL     1       4.646   4.536  14.550  0.00  0.00    +0.000 A 
ATOM      5  C   UNL     1       5.164   4.010  13.371  0.00  0.00    +0.000 A 
ATOM      6  C   UNL     1       6.538   3.997  13.181  0.00  0.00    +0.000 A 
ATOM      7  F   UNL     1       7.038   3.494  12.045  0.00  0.00    +0.000 F 
ATOM      8  C   UNL     1       7.404   4.490  14.154  0.00  0.00    +0.000 A 
ATOM      9  C   UNL     1       6.898   5.018  15.354  0.00  0.00    +0.000 A 
ATOM     10  C   UNL     1       7.834   5.470  16.445  0.00  0.00    +0.000 C 
ATOM     11  C   UNL     1       7.144   6.324  17.515  0.00  0.00    +0.000 C 
ATOM     12  N   UNL     1       5.847   5.763  17.912  0.00  0.00    +0.000 N 
ATOM     13  C   UNL     1       5.700   5.251  19.211  0.00  0.00    +0.000 C 
ATOM     14  O   UNL     1       6.661   5.178  19.981  0.00  0.00    +0.000 OA
ENDROOT
BRANCH  13  15
ATOM     15  C   UNL     1       4.333   4.754  19.668  0.00  0.00    +0.000 A 
ATOM     16  N   UNL     1       3.422   5.662  20.148  0.00  0.00    +0.000 N 
ATOM     17  C   UNL     1       2.115   5.403  20.397  0.00  0.00    +0.000 A 
ATOM     18  O   UNL     1       1.340   6.302  20.701  0.00  0.00    +0.000 OA
ATOM     19  N   UNL     1       1.735   4.111  20.263  0.00  0.00    +0.000 N 
ATOM     20  C   UNL     1       2.587   3.090  19.962  0.00  0.00    +0.000 A 
ATOM     21  O   UNL     1       2.191   1.927  19.911  0.00  0.00    +0.000 OA
ATOM     22  C   UNL     1       4.025   3.440  19.640  0.00  0.00    +0.000 A 
ATOM     23  H   UNL     1       3.705   6.609  20.326  0.00  0.00    +0.000 HD
ATOM     24  H   UNL     1       0.772   3.882  20.461  0.00  0.00    +0.000 HD
BRANCH  22  25
ATOM     25  N   UNL     1       4.840   2.370  19.349  0.00  0.00    +0.000 N 
ATOM     26  H   UNL     1       5.299   2.397  18.440  0.00  0.00    +0.000 HD
ATOM     27  H   UNL     1       5.309   1.911  20.128  0.00  0.00    +0.000 HD
ENDBRANCH  22  25
ENDBRANCH  13  15
TORSDOF 2
ENDMDL
MODEL 4
REMARK VINA RESULT:      -7.6      2.642      3.996
REMARK  Name = 
REMARK  3 active torsions:
REMARK  status: ('A' for Active; 'I' for Inactive)
REMARK    1  A    between atoms: C_1  and  C_2
REMARK    2  A    between atoms: C_13  and  C_15
REMARK    3  A    between atoms: C_22  and  N_23
REMARK                            x       y       z     vdW  Elec       q    Type
REMARK                         _______ _______ _______ _____ _____    ______ ____
ROOT
ATOM      1  C   UNL     1       1.895   5.436  17.307  0.00  0.00    +0.000 C 
ATOM      2  C   UNL     1       2.899   6.037  18.307  0.00  0.00    +0.000 C 
ATOM      3  C   UNL     1       2.192   7.054  19.187  0.00  0.00    +0.000 A 
ATOM      4  C   UNL     1       1.830   8.294  18.624  0.00  0.00    +0.000 A 
ATOM      5  C   UNL     1       1.160   9.248  19.383  0.00  0.00    +0.000 A 
ATOM      6  C   UNL     1       0.848   8.964  20.705  0.00  0.00    +0.000 A 
ATOM      7  F   UNL     1       0.200   9.880  21.438  0.00  0.00    +0.000 F 
ATOM      8  C   UNL     1       1.204   7.748  21.284  0.00  0.00    +0.000 A 
ATOM      9  C   UNL     1       1.887   6.777  20.533  0.00  0.00    +0.000 A 
ATOM     10  C   UNL     1       2.351   5.497  21.180  0.00  0.00    +0.000 C 
ATOM     11  C   UNL     1       2.758   4.422  20.165  0.00  0.00    +0.000 C 
ATOM     12  N   UNL     1       3.572   4.976  19.076  0.00  0.00    +0.000 N 
ATOM     13  C   UNL     1       4.920   4.596  18.979  0.00  0.00    +0.000 C 
ATOM     14  O   UNL     1       5.449   3.890  19.841  0.00  0.00    +0.000 OA
ENDROOT
BRANCH  13  15
ATOM     15  C   UNL     1       5.751   5.088  17.798  0.00  0.00    +0.000 A 
ATOM     16  N   UNL     1       6.352   6.320  17.875  0.00  0.00    +0.000 N 
ATOM     17  C   UNL     1       7.273   6.798  17.004  0.00  0.00    +0.000 A 
ATOM     18  O   UNL     1       7.855   7.855  17.217  0.00  0.00    +0.000 OA
ATOM     19  N   UNL     1       7.514   6.024  15.920  0.00  0.00    +0.000 N 
ATOM     20  C   UNL     1       6.853   4.864  15.645  0.00  0.00    +0.000 A 
ATOM     21  O   UNL     1       7.077   4.235  14.612  0.00  0.00    +0.000 OA
ATOM     22  C   UNL     1       5.873   4.347  16.677  0.00  0.00    +0.000 A 
ATOM     23  H   UNL     1       6.127   6.940  18.634  0.00  0.00    +0.000 HD
ATOM     24  H   UNL     1       8.181   6.362  15.241  0.00  0.00    +0.000 HD
BRANCH  22  25
ATOM     25  N   UNL     1       5.231   3.175  16.344  0.00  0.00    +0.000 N 
ATOM     26  H   UNL     1       4.494   3.258  15.647  0.00  0.00    +0.000 HD
ATOM     27  H   UNL     1       5.770   2.313  16.398  0.00  0.00    +0.000 HD
ENDBRANCH  22  25
ENDBRANCH  13  15
TORSDOF 2
ENDMDL
MODEL 5
REMARK VINA RESULT:      -7.5      9.900     11.557
REMARK  Name = 
REMARK  3 active torsions:
REMARK  status: ('A' for Active; 'I' for Inactive)
REMARK    1  A    between atoms: C_1  and  C_2
REMARK    2  A    between atoms: C_13  and  C_15
REMARK    3  A    between atoms: C_22  and  N_23
REMARK                            x       y       z     vdW  Elec       q    Type
REMARK                         _______ _______ _______ _____ _____    ______ ____
ROOT
ATOM      1  C   UNL     1      -1.016  13.804  19.789  0.00  0.00    +0.000 C 
ATOM      2  C   UNL     1      -1.660  12.503  20.300  0.00  0.00    +0.000 C 
ATOM      3  C   UNL     1      -2.050  11.632  19.118  0.00  0.00    +0.000 A 
ATOM      4  C   UNL     1      -3.161  12.014  18.338  0.00  0.00    +0.000 A 
ATOM      5  C   UNL     1      -3.542  11.261  17.233  0.00  0.00    +0.000 A 
ATOM      6  C   UNL     1      -2.814  10.127  16.901  0.00  0.00    +0.000 A 
ATOM      7  F   UNL     1      -3.178   9.402  15.835  0.00  0.00    +0.000 F 
ATOM      8  C   UNL     1      -1.719   9.726  17.663  0.00  0.00    +0.000 A 
ATOM      9  C   UNL     1      -1.325  10.471  18.787  0.00  0.00    +0.000 A 
ATOM     10  C   UNL     1      -0.197   9.993  19.665  0.00  0.00    +0.000 C 
ATOM     11  C   UNL     1       0.324  11.074  20.620  0.00  0.00    +0.000 C 
ATOM     12  N   UNL     1      -0.772  11.818  21.255  0.00  0.00    +0.000 N 
ATOM     13  C   UNL     1      -0.977  11.671  22.635  0.00  0.00    +0.000 C 
ATOM     14  O   UNL     1      -0.322  10.863  23.297  0.00  0.00    +0.000 OA
ENDROOT
BRANCH  13  15
ATOM     15  C   UNL     1      -2.048  12.511  23.324  0.00  0.00    +0.000 A 
ATOM     16  N   UNL     1      -3.270  11.943  23.588  0.00  0.00    +0.000 N 
ATOM     17  C   UNL     1      -4.237  12.491  24.364  0.00  0.00    +0.000 A 
ATOM     18  O   UNL     1      -5.247  11.860  24.653  0.00  0.00    +0.000 OA
ATOM     19  N   UNL     1      -3.996  13.747  24.806  0.00  0.00    +0.000 N 
ATOM     20  C   UNL     1      -2.897  14.480  24.467  0.00  0.00    +0.000 A 
ATOM     21  O   UNL     1      -2.762  15.639  24.854  0.00  0.00    +0.000 OA
ATOM     22  C   UNL     1      -1.822  13.803  23.642  0.00  0.00    +0.000 A 
ATOM     23  H   UNL     1      -3.497  11.043  23.205  0.00  0.00    +0.000 HD
ATOM     24  H   UNL     1      -4.706  14.191  25.370  0.00  0.00    +0.000 HD
BRANCH  22  25
ATOM     25  N   UNL     1      -0.739  14.591  23.325  0.00  0.00    +0.000 N 
ATOM     26  H   UNL     1       0.057  14.525  23.957  0.00  0.00    +0.000 HD
ATOM     27  H   UNL     1      -0.576  14.791  22.340  0.00  0.00    +0.000 HD
ENDBRANCH  22  25
ENDBRANCH  13  15
TORSDOF 2
ENDMDL
MODEL 6
REMARK VINA RESULT:      -7.2      0.860      2.046
REMARK  Name = 
REMARK  3 active torsions:
REMARK  status: ('A' for Active; 'I' for Inactive)
REMARK    1  A    between atoms: C_1  and  C_2
REMARK    2  A    between atoms: C_13  and  C_15
REMARK    3  A    between atoms: C_22  and  N_23
REMARK                            x       y       z     vdW  Elec       q    Type
REMARK                         _______ _______ _______ _____ _____    ______ ____
ROOT
ATOM      1  C   UNL     1       2.780   7.030  19.277  0.00  0.00    +0.000 C 
ATOM      2  C   UNL     1       3.427   5.645  19.100  0.00  0.00    +0.000 C 
ATOM      3  C   UNL     1       2.650   4.615  19.900  0.00  0.00    +0.000 A 
ATOM      4  C   UNL     1       2.773   4.622  21.305  0.00  0.00    +0.000 A 
ATOM      5  C   UNL     1       2.063   3.713  22.082  0.00  0.00    +0.000 A 
ATOM      6  C   UNL     1       1.226   2.798  21.460  0.00  0.00    +0.000 A 
ATOM      7  F   UNL     1       0.539   1.924  22.207  0.00  0.00    +0.000 F 
ATOM      8  C   UNL     1       1.097   2.767  20.074  0.00  0.00    +0.000 A 
ATOM      9  C   UNL     1       1.812   3.673  19.273  0.00  0.00    +0.000 A 
ATOM     10  C   UNL     1       1.743   3.586  17.770  0.00  0.00    +0.000 C 
ATOM     11  C   UNL     1       2.288   4.835  17.068  0.00  0.00    +0.000 C 
ATOM     12  N   UNL     1       3.543   5.300  17.671  0.00  0.00    +0.000 N 
ATOM     13  C   UNL     1       4.727   5.207  16.924  0.00  0.00    +0.000 C 
ATOM     14  O   UNL     1       4.745   4.658  15.820  0.00  0.00    +0.000 OA
ENDROOT
BRANCH  13  15
ATOM     15  C   UNL     1       6.021   5.774  17.501  0.00  0.00    +0.000 A 
ATOM     16  N   UNL     1       6.497   6.967  17.015  0.00  0.00    +0.000 N 
ATOM     17  C   UNL     1       7.508   7.686  17.561  0.00  0.00    +0.000 A 
ATOM     18  O   UNL     1       7.787   8.803  17.141  0.00  0.00    +0.000 OA
ATOM     19  N   UNL     1       8.155   7.101  18.596  0.00  0.00    +0.000 N 
ATOM     20  C   UNL     1       7.886   5.845  19.055  0.00  0.00    +0.000 A 
ATOM     21  O   UNL     1       8.548   5.346  19.963  0.00  0.00    +0.000 OA
ATOM     22  C   UNL     1       6.713   5.106  18.448  0.00  0.00    +0.000 A 
ATOM     23  H   UNL     1       6.078   7.379  16.201  0.00  0.00    +0.000 HD
ATOM     24  H   UNL     1       8.926   7.603  19.012  0.00  0.00    +0.000 HD
BRANCH  22  25
ATOM     25  N   UNL     1       6.491   3.842  18.945  0.00  0.00    +0.000 N 
ATOM     26  H   UNL     1       7.173   3.508  19.623  0.00  0.00    +0.000 HD
ATOM     27  H   UNL     1       5.525   3.527  19.014  0.00  0.00    +0.000 HD
ENDBRANCH  22  25
ENDBRANCH  13  15
TORSDOF 2
ENDMDL
MODEL 7
REMARK VINA RESULT:      -6.8      4.110      6.287
REMARK  Name = 
REMARK  3 active torsions:
REMARK  status: ('A' for Active; 'I' for Inactive)
REMARK    1  A    between atoms: C_1  and  C_2
REMARK    2  A    between atoms: C_13  and  C_15
REMARK    3  A    between atoms: C_22  and  N_23
REMARK                            x       y       z     vdW  Elec       q    Type
REMARK                         _______ _______ _______ _____ _____    ______ ____
ROOT
ATOM      1  C   UNL     1       5.863   5.225  19.217  0.00  0.00    +0.000 C 
ATOM      2  C   UNL     1       4.867   5.420  18.061  0.00  0.00    +0.000 C 
ATOM      3  C   UNL     1       5.567   5.162  16.738  0.00  0.00    +0.000 A 
ATOM      4  C   UNL     1       6.484   6.122  16.265  0.00  0.00    +0.000 A 
ATOM      5  C   UNL     1       7.167   5.919  15.071  0.00  0.00    +0.000 A 
ATOM      6  C   UNL     1       6.939   4.757  14.348  0.00  0.00    +0.000 A 
ATOM      7  F   UNL     1       7.598   4.559  13.199  0.00  0.00    +0.000 F 
ATOM      8  C   UNL     1       6.030   3.800  14.792  0.00  0.00    +0.000 A 
ATOM      9  C   UNL     1       5.326   3.993  15.993  0.00  0.00    +0.000 A 
ATOM     10  C   UNL     1       4.278   3.002  16.432  0.00  0.00    +0.000 C 
ATOM     11  C   UNL     1       3.867   3.172  17.900  0.00  0.00    +0.000 C 
ATOM     12  N   UNL     1       3.669   4.583  18.254  0.00  0.00    +0.000 N 
ATOM     13  C   UNL     1       2.374   5.029  18.557  0.00  0.00    +0.000 C 
ATOM     14  O   UNL     1       1.397   4.286  18.437  0.00  0.00    +0.000 OA
ENDROOT
BRANCH  13  15
ATOM     15  C   UNL     1       2.168   6.468  19.021  0.00  0.00    +0.000 A 
ATOM     16  N   UNL     1       2.261   7.482  18.100  0.00  0.00    +0.000 N 
ATOM     17  C   UNL     1       1.908   8.772  18.319  0.00  0.00    +0.000 A 
ATOM     18  O   UNL     1       1.901   9.588  17.404  0.00  0.00    +0.000 OA
ATOM     19  N   UNL     1       1.549   9.078  19.587  0.00  0.00    +0.000 N 
ATOM     20  C   UNL     1       1.585   8.195  20.627  0.00  0.00    +0.000 A 
ATOM     21  O   UNL     1       1.302   8.549  21.770  0.00  0.00    +0.000 OA
ATOM     22  C   UNL     1       1.934   6.754  20.319  0.00  0.00    +0.000 A 
ATOM     23  H   UNL     1       2.598   7.288  17.174  0.00  0.00    +0.000 HD
ATOM     24  H   UNL     1       1.300  10.035  19.787  0.00  0.00    +0.000 HD
BRANCH  22  25
ATOM     25  N   UNL     1       1.961   5.910  21.406  0.00  0.00    +0.000 N 
ATOM     26  H   UNL     1       1.162   5.287  21.502  0.00  0.00    +0.000 HD
ATOM     27  H   UNL     1       2.873   5.604  21.740  0.00  0.00    +0.000 HD
ENDBRANCH  22  25
ENDBRANCH  13  15
TORSDOF 2
ENDMDL
MODEL 8
REMARK VINA RESULT:      -6.6      3.905      6.511
REMARK  Name = 
REMARK  3 active torsions:
REMARK  status: ('A' for Active; 'I' for Inactive)
REMARK    1  A    between atoms: C_1  and  C_2
REMARK    2  A    between atoms: C_13  and  C_15
REMARK    3  A    between atoms: C_22  and  N_23
REMARK                            x       y       z     vdW  Elec       q    Type
REMARK                         _______ _______ _______ _____ _____    ______ ____
ROOT
ATOM      1  C   UNL     1       3.876   6.414  16.507  0.00  0.00    +0.000 C 
ATOM      2  C   UNL     1       4.965   5.357  16.762  0.00  0.00    +0.000 C 
ATOM      3  C   UNL     1       5.678   5.038  15.460  0.00  0.00    +0.000 A 
ATOM      4  C   UNL     1       4.998   4.273  14.490  0.00  0.00    +0.000 A 
ATOM      5  C   UNL     1       5.602   3.976  13.273  0.00  0.00    +0.000 A 
ATOM      6  C   UNL     1       6.883   4.444  13.019  0.00  0.00    +0.000 A 
ATOM      7  F   UNL     1       7.465   4.161  11.846  0.00  0.00    +0.000 F 
ATOM      8  C   UNL     1       7.576   5.193  13.966  0.00  0.00    +0.000 A 
ATOM      9  C   UNL     1       6.985   5.497  15.204  0.00  0.00    +0.000 A 
ATOM     10  C   UNL     1       7.764   6.231  16.265  0.00  0.00    +0.000 C 
ATOM     11  C   UNL     1       6.879   6.778  17.392  0.00  0.00    +0.000 C 
ATOM     12  N   UNL     1       5.880   5.795  17.831  0.00  0.00    +0.000 N 
ATOM     13  C   UNL     1       5.991   5.248  19.118  0.00  0.00    +0.000 C 
ATOM     14  O   UNL     1       6.957   5.503  19.841  0.00  0.00    +0.000 OA
ENDROOT
BRANCH  13  15
ATOM     15  C   UNL     1       4.906   4.300  19.622  0.00  0.00    +0.000 A 
ATOM     16  N   UNL     1       5.145   2.948  19.602  0.00  0.00    +0.000 N 
ATOM     17  C   UNL     1       4.370   2.008  20.197  0.00  0.00    +0.000 A 
ATOM     18  O   UNL     1       4.723   0.835  20.241  0.00  0.00    +0.000 OA
ATOM     19  N   UNL     1       3.217   2.457  20.746  0.00  0.00    +0.000 N 
ATOM     20  C   UNL     1       2.788   3.749  20.676  0.00  0.00    +0.000 A 
ATOM     21  O   UNL     1       1.702   4.084  21.146  0.00  0.00    +0.000 OA
ATOM     22  C   UNL     1       3.715   4.769  20.050  0.00  0.00    +0.000 A 
ATOM     23  H   UNL     1       5.957   2.590  19.132  0.00  0.00    +0.000 HD
ATOM     24  H   UNL     1       2.609   1.778  21.179  0.00  0.00    +0.000 HD
BRANCH  22  25
ATOM     25  N   UNL     1       3.229   6.056  20.001  0.00  0.00    +0.000 N 
ATOM     26  H   UNL     1       2.433   6.205  19.384  0.00  0.00    +0.000 HD
ATOM     27  H   UNL     1       3.320   6.624  20.841  0.00  0.00    +0.000 HD
ENDBRANCH  22  25
ENDBRANCH  13  15
TORSDOF 2
ENDMDL
MODEL 9
REMARK VINA RESULT:      -6.4     11.279     13.205
REMARK  Name = 
REMARK  3 active torsions:
REMARK  status: ('A' for Active; 'I' for Inactive)
REMARK    1  A    between atoms: C_1  and  C_2
REMARK    2  A    between atoms: C_13  and  C_15
REMARK    3  A    between atoms: C_22  and  N_23
REMARK                            x       y       z     vdW  Elec       q    Type
REMARK                         _______ _______ _______ _____ _____    ______ ____
ROOT
ATOM      1  C   UNL     1      -2.176  14.472  20.928  0.00  0.00    +0.000 C 
ATOM      2  C   UNL     1      -2.714  13.042  21.110  0.00  0.00    +0.000 C 
ATOM      3  C   UNL     1      -1.897  12.081  20.264  0.00  0.00    +0.000 A 
ATOM      4  C   UNL     1      -2.078  12.096  18.866  0.00  0.00    +0.000 A 
ATOM      5  C   UNL     1      -1.335  11.252  18.047  0.00  0.00    +0.000 A 
ATOM      6  C   UNL     1      -0.410  10.392  18.621  0.00  0.00    +0.000 A 
ATOM      7  F   UNL     1       0.308   9.580  17.834  0.00  0.00    +0.000 F 
ATOM      8  C   UNL     1      -0.222  10.354  20.001  0.00  0.00    +0.000 A 
ATOM      9  C   UNL     1      -0.968  11.196  20.843  0.00  0.00    +0.000 A 
ATOM     10  C   UNL     1      -0.831  11.095  22.340  0.00  0.00    +0.000 C 
ATOM     11  C   UNL     1      -1.436  12.293  23.082  0.00  0.00    +0.000 C 
ATOM     12  N   UNL     1      -2.746  12.672  22.537  0.00  0.00    +0.000 N 
ATOM     13  C   UNL     1      -3.888  12.483  23.329  0.00  0.00    +0.000 C 
ATOM     14  O   UNL     1      -3.821  11.922  24.425  0.00  0.00    +0.000 OA
ENDROOT
BRANCH  13  15
ATOM     15  C   UNL     1      -5.242  12.961  22.813  0.00  0.00    +0.000 A 
ATOM     16  N   UNL     1      -5.851  12.263  21.799  0.00  0.00    +0.000 N 
ATOM     17  C   UNL     1      -7.127  12.443  21.381  0.00  0.00    +0.000 A 
ATOM     18  O   UNL     1      -7.634  11.691  20.557  0.00  0.00    +0.000 OA
ATOM     19  N   UNL     1      -7.792  13.477  21.948  0.00  0.00    +0.000 N 
ATOM     20  C   UNL     1      -7.236  14.348  22.838  0.00  0.00    +0.000 A 
ATOM     21  O   UNL     1      -7.875  15.304  23.274  0.00  0.00    +0.000 OA
ATOM     22  C   UNL     1      -5.826  14.071  23.313  0.00  0.00    +0.000 A 
ATOM     23  H   UNL     1      -5.346  11.542  21.315  0.00  0.00    +0.000 HD
ATOM     24  H   UNL     1      -8.738  13.651  21.642  0.00  0.00    +0.000 HD
BRANCH  22  25
ATOM     25  N   UNL     1      -5.314  14.985  24.206  0.00  0.00    +0.000 N 
ATOM     26  H   UNL     1      -4.466  14.701  24.693  0.00  0.00    +0.000 HD
ATOM     27  H   UNL     1      -5.466  15.972  24.005  0.00  0.00    +0.000 HD
ENDBRANCH  22  25
ENDBRANCH  13  15
TORSDOF 2
ENDMDL
