MODEL 1
REMARK VINA RESULT:      -7.5      0.000      0.000
REMARK  Name = 
REMARK  10 active torsions:
REMARK  status: ('A' for Active; 'I' for Inactive)
REMARK    1  A    between atoms: C_1  and  C_2
REMARK    2  A    between atoms: C_2  and  N_3
REMARK    3  A    between atoms: N_3  and  C_4
REMARK    4  A    between atoms: N_3  and  S_6
REMARK    5  A    between atoms: C_4  and  C_5
REMARK    6  A    between atoms: S_6  and  C_9
REMARK    7  A    between atoms: N_18  and  C_19
REMARK    8  A    between atoms: C_19  and  C_20
REMARK    9  A    between atoms: N_22  and  C_23
REMARK   10  A    between atoms: N_22  and  C_24
REMARK                            x       y       z     vdW  Elec       q    Type
REMARK                         _______ _______ _______ _____ _____    ______ ____
ROOT
ATOM      1  C   UNL     1       2.597   7.123  19.088  0.00  0.00    +0.000 A 
ATOM      2  C   UNL     1       2.344   8.125  18.126  0.00  0.00    +0.000 A 
ATOM      3  C   UNL     1       1.599   9.262  18.461  0.00  0.00    +0.000 A 
ATOM      4  C   UNL     1       1.114   9.352  19.748  0.00  0.00    +0.000 A 
ATOM      5  C   UNL     1       1.331   8.349  20.677  0.00  0.00    +0.000 A 
ATOM      6  C   UNL     1       2.064   7.216  20.380  0.00  0.00    +0.000 A 
ATOM      7  O   UNL     1       0.760   8.635  21.909  0.00  0.00    +0.000 OA
ATOM      8  C   UNL     1       0.200   9.902  21.701  0.00  0.00    +0.000 A 
ATOM      9  O   UNL     1      -0.358  10.547  22.589  0.00  0.00    +0.000 OA
ATOM     10  N   UNL     1       0.403  10.331  20.401  0.00  0.00    +0.000 N 
ENDROOT
BRANCH   1  11
ATOM     11  S   UNL     1       3.498   5.658  18.598  0.00  0.00    +0.000 S 
ATOM     12  O   UNL     1       4.548   5.460  19.574  0.00  0.00    +0.000 OA
ATOM     13  O   UNL     1       3.802   5.787  17.190  0.00  0.00    +0.000 OA
BRANCH  11  14
ATOM     14  N   UNL     1       2.347   4.387  18.780  0.00  0.00    +0.000 NA
BRANCH  14  16
ATOM     15  C   UNL     1       2.827   2.147  17.714  0.00  0.00    +0.000 C 
ATOM     16  C   UNL     1       2.205   3.526  17.568  0.00  0.00    +0.000 C 
ENDBRANCH  14  16
BRANCH  14  17
ATOM     17  C   UNL     1       2.474   3.642  20.075  0.00  0.00    +0.000 C 
ATOM     18  C   UNL     1       1.150   3.439  20.791  0.00  0.00    +0.000 C 
ENDBRANCH  14  17
ENDBRANCH  11  14
ENDBRANCH   1  11
BRANCH  10  19
ATOM     19  C   UNL     1       0.156  11.679  19.940  0.00  0.00    +0.000 C 
BRANCH  19  20
ATOM     20  C   UNL     1       1.199  12.737  20.341  0.00  0.00    +0.000 C 
ATOM     21  O   UNL     1       1.215  13.140  21.511  0.00  0.00    +0.000 OA
ATOM     22  N   UNL     1       2.079  13.266  19.389  0.00  0.00    +0.000 N 
ATOM     23  C   UNL     1       2.210  12.758  18.027  0.00  0.00    +0.000 C 
BRANCH  22  24
ATOM     24  C   UNL     1       2.897  14.445  19.800  0.00  0.00    +0.000 C 
ATOM     25  C   UNL     1       4.199  14.689  19.014  0.00  0.00    +0.000 C 
ATOM     26  C   UNL     1       4.016  15.358  17.652  0.00  0.00    +0.000 C 
ATOM     27  C   UNL     1       3.100  16.577  17.696  0.00  0.00    +0.000 C 
ATOM     28  C   UNL     1       1.813  16.359  18.486  0.00  0.00    +0.000 C 
ATOM     29  C   UNL     1       2.065  15.741  19.859  0.00  0.00    +0.000 C 
ENDBRANCH  22  24
ENDBRANCH  19  20
ENDBRANCH  10  19
TORSDOF 7
ENDMDL
MODEL 2
REMARK VINA RESULT:      -7.4      2.994      4.624
REMARK  Name = 
REMARK  10 active torsions:
REMARK  status: ('A' for Active; 'I' for Inactive)
REMARK    1  A    between atoms: C_1  and  C_2
REMARK    2  A    between atoms: C_2  and  N_3
REMARK    3  A    between atoms: N_3  and  C_4
REMARK    4  A    between atoms: N_3  and  S_6
REMARK    5  A    between atoms: C_4  and  C_5
REMARK    6  A    between atoms: S_6  and  C_9
REMARK    7  A    between atoms: N_18  and  C_19
REMARK    8  A    between atoms: C_19  and  C_20
REMARK    9  A    between atoms: N_22  and  C_23
REMARK   10  A    between atoms: N_22  and  C_24
REMARK                            x       y       z     vdW  Elec       q    Type
REMARK                         _______ _______ _______ _____ _____    ______ ____
ROOT
ATOM      1  C   UNL     1       3.751   5.455  18.599  0.00  0.00    +0.000 A 
ATOM      2  C   UNL     1       3.024   5.431  19.808  0.00  0.00    +0.000 A 
ATOM      3  C   UNL     1       2.200   6.505  20.166  0.00  0.00    +0.000 A 
ATOM      4  C   UNL     1       2.145   7.581  19.307  0.00  0.00    +0.000 A 
ATOM      5  C   UNL     1       2.889   7.618  18.141  0.00  0.00    +0.000 A 
ATOM      6  C   UNL     1       3.709   6.575  17.757  0.00  0.00    +0.000 A 
ATOM      7  O   UNL     1       2.689   8.788  17.422  0.00  0.00    +0.000 OA
ATOM      8  C   UNL     1       1.741   9.467  18.197  0.00  0.00    +0.000 A 
ATOM      9  O   UNL     1       1.244  10.543  17.865  0.00  0.00    +0.000 OA
ATOM     10  N   UNL     1       1.420   8.749  19.335  0.00  0.00    +0.000 N 
ENDROOT
BRANCH   1  11
ATOM     11  S   UNL     1       4.839   4.090  18.212  0.00  0.00    +0.000 S 
ATOM     12  O   UNL     1       4.093   3.176  17.374  0.00  0.00    +0.000 OA
ATOM     13  O   UNL     1       5.436   3.647  19.454  0.00  0.00    +0.000 OA
BRANCH  11  14
ATOM     14  N   UNL     1       6.078   4.810  17.254  0.00  0.00    +0.000 NA
BRANCH  14  16
ATOM     15  C   UNL     1       7.649   6.561  18.175  0.00  0.00    +0.000 C 
ATOM     16  C   UNL     1       7.340   5.083  18.006  0.00  0.00    +0.000 C 
ENDBRANCH  14  16
BRANCH  14  17
ATOM     17  C   UNL     1       6.266   4.150  15.921  0.00  0.00    +0.000 C 
ATOM     18  C   UNL     1       5.616   4.904  14.773  0.00  0.00    +0.000 C 
ENDBRANCH  14  17
ENDBRANCH  11  14
ENDBRANCH   1  11
BRANCH  10  19
ATOM     19  C   UNL     1       0.312   9.063  20.211  0.00  0.00    +0.000 C 
BRANCH  19  20
ATOM     20  C   UNL     1       0.458  10.340  21.060  0.00  0.00    +0.000 C 
ATOM     21  O   UNL     1       1.341  10.378  21.925  0.00  0.00    +0.000 OA
ATOM     22  N   UNL     1      -0.424  11.413  20.887  0.00  0.00    +0.000 N 
ATOM     23  C   UNL     1      -1.407  11.498  19.811  0.00  0.00    +0.000 C 
BRANCH  22  24
ATOM     24  C   UNL     1      -0.366  12.511  21.898  0.00  0.00    +0.000 C 
ATOM     25  C   UNL     1      -0.517  13.947  21.365  0.00  0.00    +0.000 C 
ATOM     26  C   UNL     1      -1.953  14.375  21.062  0.00  0.00    +0.000 C 
ATOM     27  C   UNL     1      -2.933  14.040  22.181  0.00  0.00    +0.000 C 
ATOM     28  C   UNL     1      -2.785  12.626  22.734  0.00  0.00    +0.000 C 
ATOM     29  C   UNL     1      -1.338  12.277  23.071  0.00  0.00    +0.000 C 
ENDBRANCH  22  24
ENDBRANCH  19  20
ENDBRANCH  10  19
TORSDOF 7
ENDMDL
MODEL 3
REMARK VINA RESULT:      -7.2      0.709      1.141
REMARK  Name = 
REMARK  10 active torsions:
REMARK  status: ('A' for Active; 'I' for Inactive)
REMARK    1  A    between atoms: C_1  and  C_2
REMARK    2  A    between atoms: C_2  and  N_3
REMARK    3  A    between atoms: N_3  and  C_4
REMARK    4  A    between atoms: N_3  and  S_6
REMARK    5  A    between atoms: C_4  and  C_5
REMARK    6  A    between atoms: S_6  and  C_9
REMARK    7  A    between atoms: N_18  and  C_19
REMARK    8  A    between atoms: C_19  and  C_20
REMARK    9  A    between atoms: N_22  and  C_23
REMARK   10  A    between atoms: N_22  and  C_24
REMARK                            x       y       z     vdW  Elec       q    Type
REMARK                         _______ _______ _______ _____ _____    ______ ____
ROOT
ATOM      1  C   UNL     1       2.966   6.737  18.956  0.00  0.00    +0.000 A 
ATOM      2  C   UNL     1       2.744   7.734  17.982  0.00  0.00    +0.000 A 
ATOM      3  C   UNL     1       1.956   8.854  18.276  0.00  0.00    +0.000 A 
ATOM      4  C   UNL     1       1.401   8.932  19.535  0.00  0.00    +0.000 A 
ATOM      5  C   UNL     1       1.589   7.933  20.474  0.00  0.00    +0.000 A 
ATOM      6  C   UNL     1       2.361   6.817  20.218  0.00  0.00    +0.000 A 
ATOM      7  O   UNL     1       0.945   8.205  21.673  0.00  0.00    +0.000 OA
ATOM      8  C   UNL     1       0.369   9.459  21.435  0.00  0.00    +0.000 A 
ATOM      9  O   UNL     1      -0.251  10.090  22.291  0.00  0.00    +0.000 OA
ATOM     10  N   UNL     1       0.633   9.894  20.148  0.00  0.00    +0.000 N 
ENDROOT
BRANCH   1  11
ATOM     11  S   UNL     1       3.924   5.293  18.517  0.00  0.00    +0.000 S 
ATOM     12  O   UNL     1       5.235   5.457  19.108  0.00  0.00    +0.000 OA
ATOM     13  O   UNL     1       3.768   5.085  17.094  0.00  0.00    +0.000 OA
BRANCH  11  14
ATOM     14  N   UNL     1       3.124   4.003  19.335  0.00  0.00    +0.000 NA
BRANCH  14  16
ATOM     15  C   UNL     1       0.744   3.442  19.972  0.00  0.00    +0.000 C 
ATOM     16  C   UNL     1       1.729   3.762  18.860  0.00  0.00    +0.000 C 
ENDBRANCH  14  16
BRANCH  14  17
ATOM     17  C   UNL     1       3.965   2.770  19.481  0.00  0.00    +0.000 C 
ATOM     18  C   UNL     1       3.595   1.664  18.507  0.00  0.00    +0.000 C 
ENDBRANCH  14  17
ENDBRANCH  11  14
ENDBRANCH   1  11
BRANCH  10  19
ATOM     19  C   UNL     1       0.382  11.237  19.673  0.00  0.00    +0.000 C 
BRANCH  19  20
ATOM     20  C   UNL     1       1.352  12.325  20.168  0.00  0.00    +0.000 C 
ATOM     21  O   UNL     1       1.318  12.651  21.362  0.00  0.00    +0.000 OA
ATOM     22  N   UNL     1       2.218  12.966  19.274  0.00  0.00    +0.000 N 
ATOM     23  C   UNL     1       2.408  12.557  17.886  0.00  0.00    +0.000 C 
BRANCH  22  24
ATOM     24  C   UNL     1       2.956  14.161  19.781  0.00  0.00    +0.000 C 
ATOM     25  C   UNL     1       4.233  14.558  19.018  0.00  0.00    +0.000 C 
ATOM     26  C   UNL     1       3.996  15.321  17.715  0.00  0.00    +0.000 C 
ATOM     27  C   UNL     1       2.999  16.466  17.858  0.00  0.00    +0.000 C 
ATOM     28  C   UNL     1       1.735  16.096  18.628  0.00  0.00    +0.000 C 
ATOM     29  C   UNL     1       2.037  15.387  19.945  0.00  0.00    +0.000 C 
ENDBRANCH  22  24
ENDBRANCH  19  20
ENDBRANCH  10  19
TORSDOF 7
ENDMDL
MODEL 4
REMARK VINA RESULT:      -7.2      1.170      1.668
REMARK  Name = 
REMARK  10 active torsions:
REMARK  status: ('A' for Active; 'I' for Inactive)
REMARK    1  A    between atoms: C_1  and  C_2
REMARK    2  A    between atoms: C_2  and  N_3
REMARK    3  A    between atoms: N_3  and  C_4
REMARK    4  A    between atoms: N_3  and  S_6
REMARK    5  A    between atoms: C_4  and  C_5
REMARK    6  A    between atoms: S_6  and  C_9
REMARK    7  A    between atoms: N_18  and  C_19
REMARK    8  A    between atoms: C_19  and  C_20
REMARK    9  A    between atoms: N_22  and  C_23
REMARK   10  A    between atoms: N_22  and  C_24
REMARK                            x       y       z     vdW  Elec       q    Type
REMARK                         _______ _______ _______ _____ _____    ______ ____
ROOT
ATOM      1  C   UNL     1       2.319   7.425  18.784  0.00  0.00    +0.000 A 
ATOM      2  C   UNL     1       1.927   8.478  17.930  0.00  0.00    +0.000 A 
ATOM      3  C   UNL     1       1.261   9.599  18.441  0.00  0.00    +0.000 A 
ATOM      4  C   UNL     1       0.994   9.622  19.792  0.00  0.00    +0.000 A 
ATOM      5  C   UNL     1       1.345   8.570  20.620  0.00  0.00    +0.000 A 
ATOM      6  C   UNL     1       2.005   7.451  20.149  0.00  0.00    +0.000 A 
ATOM      7  O   UNL     1       0.986   8.792  21.942  0.00  0.00    +0.000 OA
ATOM      8  C   UNL     1       0.416  10.071  21.895  0.00  0.00    +0.000 A 
ATOM      9  O   UNL     1       0.019  10.670  22.894  0.00  0.00    +0.000 OA
ATOM     10  N   UNL     1       0.411  10.568  20.603  0.00  0.00    +0.000 N 
ENDROOT
BRANCH   1  11
ATOM     11  S   UNL     1       3.109   5.985  18.078  0.00  0.00    +0.000 S 
ATOM     12  O   UNL     1       4.095   6.461  17.133  0.00  0.00    +0.000 OA
ATOM     13  O   UNL     1       2.062   5.073  17.669  0.00  0.00    +0.000 OA
BRANCH  11  14
ATOM     14  N   UNL     1       3.940   5.275  19.412  0.00  0.00    +0.000 NA
BRANCH  14  16
ATOM     15  C   UNL     1       2.439   3.932  20.938  0.00  0.00    +0.000 C 
ATOM     16  C   UNL     1       3.432   3.922  19.788  0.00  0.00    +0.000 C 
ENDBRANCH  14  16
BRANCH  14  17
ATOM     17  C   UNL     1       5.432   5.389  19.320  0.00  0.00    +0.000 C 
ATOM     18  C   UNL     1       6.068   4.334  18.430  0.00  0.00    +0.000 C 
ENDBRANCH  14  17
ENDBRANCH  11  14
ENDBRANCH   1  11
BRANCH  10  19
ATOM     19  C   UNL     1       0.110  11.940  20.259  0.00  0.00    +0.000 C 
BRANCH  19  20
ATOM     20  C   UNL     1       1.223  12.969  20.531  0.00  0.00    +0.000 C 
ATOM     21  O   UNL     1       1.378  13.383  21.687  0.00  0.00    +0.000 OA
ATOM     22  N   UNL     1       2.010  13.460  19.482  0.00  0.00    +0.000 N 
ATOM     23  C   UNL     1       1.976  12.935  18.121  0.00  0.00    +0.000 C 
BRANCH  22  24
ATOM     24  C   UNL     1       2.903  14.617  19.787  0.00  0.00    +0.000 C 
ATOM     25  C   UNL     1       4.169  14.756  18.922  0.00  0.00    +0.000 C 
ATOM     26  C   UNL     1       3.943  15.364  17.538  0.00  0.00    +0.000 C 
ATOM     27  C   UNL     1       3.088  16.627  17.564  0.00  0.00    +0.000 C 
ATOM     28  C   UNL     1       1.838  16.513  18.431  0.00  0.00    +0.000 C 
ATOM     29  C   UNL     1       2.136  15.954  19.820  0.00  0.00    +0.000 C 
ENDBRANCH  22  24
ENDBRANCH  19  20
ENDBRANCH  10  19
TORSDOF 7
ENDMDL
MODEL 5
REMARK VINA RESULT:      -7.2      1.806      2.491
REMARK  Name = 
REMARK  10 active torsions:
REMARK  status: ('A' for Active; 'I' for Inactive)
REMARK    1  A    between atoms: C_1  and  C_2
REMARK    2  A    between atoms: C_2  and  N_3
REMARK    3  A    between atoms: N_3  and  C_4
REMARK    4  A    between atoms: N_3  and  S_6
REMARK    5  A    between atoms: C_4  and  C_5
REMARK    6  A    between atoms: S_6  and  C_9
REMARK    7  A    between atoms: N_18  and  C_19
REMARK    8  A    between atoms: C_19  and  C_20
REMARK    9  A    between atoms: N_22  and  C_23
REMARK   10  A    between atoms: N_22  and  C_24
REMARK                            x       y       z     vdW  Elec       q    Type
REMARK                         _______ _______ _______ _____ _____    ______ ____
ROOT
ATOM      1  C   UNL     1       2.905   6.943  18.783  0.00  0.00    +0.000 A 
ATOM      2  C   UNL     1       2.672   7.976  17.851  0.00  0.00    +0.000 A 
ATOM      3  C   UNL     1       1.885   9.082  18.194  0.00  0.00    +0.000 A 
ATOM      4  C   UNL     1       1.341   9.110  19.460  0.00  0.00    +0.000 A 
ATOM      5  C   UNL     1       1.539   8.076  20.358  0.00  0.00    +0.000 A 
ATOM      6  C   UNL     1       2.311   6.973  20.052  0.00  0.00    +0.000 A 
ATOM      7  O   UNL     1       0.906   8.300  21.572  0.00  0.00    +0.000 OA
ATOM      8  C   UNL     1       0.325   9.561  21.388  0.00  0.00    +0.000 A 
ATOM      9  O   UNL     1      -0.288  10.157  22.274  0.00  0.00    +0.000 OA
ATOM     10  N   UNL     1       0.577  10.046  20.116  0.00  0.00    +0.000 N 
ENDROOT
BRANCH   1  11
ATOM     11  S   UNL     1       3.862   5.519  18.280  0.00  0.00    +0.000 S 
ATOM     12  O   UNL     1       3.023   4.731  17.403  0.00  0.00    +0.000 OA
ATOM     13  O   UNL     1       4.443   4.943  19.473  0.00  0.00    +0.000 OA
BRANCH  11  14
ATOM     14  N   UNL     1       5.140   6.193  17.338  0.00  0.00    +0.000 NA
BRANCH  14  16
ATOM     15  C   UNL     1       7.427   7.256  17.481  0.00  0.00    +0.000 C 
ATOM     16  C   UNL     1       6.453   6.237  18.048  0.00  0.00    +0.000 C 
ENDBRANCH  14  16
BRANCH  14  17
ATOM     17  C   UNL     1       5.195   5.667  15.936  0.00  0.00    +0.000 C 
ATOM     18  C   UNL     1       5.906   4.329  15.816  0.00  0.00    +0.000 C 
ENDBRANCH  14  17
ENDBRANCH  11  14
ENDBRANCH   1  11
BRANCH  10  19
ATOM     19  C   UNL     1       0.318  11.406  19.697  0.00  0.00    +0.000 C 
BRANCH  19  20
ATOM     20  C   UNL     1       1.313  12.471  20.194  0.00  0.00    +0.000 C 
ATOM     21  O   UNL     1       1.285  12.796  21.388  0.00  0.00    +0.000 OA
ATOM     22  N   UNL     1       2.195  13.093  19.302  0.00  0.00    +0.000 N 
ATOM     23  C   UNL     1       2.377  12.682  17.913  0.00  0.00    +0.000 C 
BRANCH  22  24
ATOM     24  C   UNL     1       2.958  14.270  19.811  0.00  0.00    +0.000 C 
ATOM     25  C   UNL     1       4.255  14.627  19.062  0.00  0.00    +0.000 C 
ATOM     26  C   UNL     1       4.056  15.390  17.752  0.00  0.00    +0.000 C 
ATOM     27  C   UNL     1       3.089  16.562  17.877  0.00  0.00    +0.000 C 
ATOM     28  C   UNL     1       1.805  16.232  18.632  0.00  0.00    +0.000 C 
ATOM     29  C   UNL     1       2.072  15.522  19.958  0.00  0.00    +0.000 C 
ENDBRANCH  22  24
ENDBRANCH  19  20
ENDBRANCH  10  19
TORSDOF 7
ENDMDL
MODEL 6
REMARK VINA RESULT:      -7.0      3.007      4.466
REMARK  Name = 
REMARK  10 active torsions:
REMARK  status: ('A' for Active; 'I' for Inactive)
REMARK    1  A    between atoms: C_1  and  C_2
REMARK    2  A    between atoms: C_2  and  N_3
REMARK    3  A    between atoms: N_3  and  C_4
REMARK    4  A    between atoms: N_3  and  S_6
REMARK    5  A    between atoms: C_4  and  C_5
REMARK    6  A    between atoms: S_6  and  C_9
REMARK    7  A    between atoms: N_18  and  C_19
REMARK    8  A    between atoms: C_19  and  C_20
REMARK    9  A    between atoms: N_22  and  C_23
REMARK   10  A    between atoms: N_22  and  C_24
REMARK                            x       y       z     vdW  Elec       q    Type
REMARK                         _______ _______ _______ _____ _____    ______ ____
ROOT
ATOM      1  C   UNL     1       3.623   6.459  18.375  0.00  0.00    +0.000 A 
ATOM      2  C   UNL     1       3.410   7.527  17.477  0.00  0.00    +0.000 A 
ATOM      3  C   UNL     1       2.523   8.562  17.798  0.00  0.00    +0.000 A 
ATOM      4  C   UNL     1       1.862   8.485  19.005  0.00  0.00    +0.000 A 
ATOM      5  C   UNL     1       2.044   7.417  19.865  0.00  0.00    +0.000 A 
ATOM      6  C   UNL     1       2.913   6.381  19.581  0.00  0.00    +0.000 A 
ATOM      7  O   UNL     1       1.287   7.533  21.022  0.00  0.00    +0.000 OA
ATOM      8  C   UNL     1       0.644   8.765  20.846  0.00  0.00    +0.000 A 
ATOM      9  O   UNL     1      -0.087   9.272  21.697  0.00  0.00    +0.000 OA
ATOM     10  N   UNL     1       0.981   9.334  19.631  0.00  0.00    +0.000 N 
ENDROOT
BRANCH   1  11
ATOM     11  S   UNL     1       4.714   5.126  17.896  0.00  0.00    +0.000 S 
ATOM     12  O   UNL     1       3.896   4.113  17.266  0.00  0.00    +0.000 OA
ATOM     13  O   UNL     1       5.543   4.812  19.039  0.00  0.00    +0.000 OA
BRANCH  11  14
ATOM     14  N   UNL     1       5.721   5.833  16.687  0.00  0.00    +0.000 NA
BRANCH  14  16
ATOM     15  C   UNL     1       7.500   7.399  17.563  0.00  0.00    +0.000 C 
ATOM     16  C   UNL     1       7.145   5.993  17.108  0.00  0.00    +0.000 C 
ENDBRANCH  14  16
BRANCH  14  17
ATOM     17  C   UNL     1       5.526   5.244  15.323  0.00  0.00    +0.000 C 
ATOM     18  C   UNL     1       6.786   4.624  14.743  0.00  0.00    +0.000 C 
ENDBRANCH  14  17
ENDBRANCH  11  14
ENDBRANCH   1  11
BRANCH  10  19
ATOM     19  C   UNL     1       0.673  10.697  19.257  0.00  0.00    +0.000 C 
BRANCH  19  20
ATOM     20  C   UNL     1       0.566  11.711  20.411  0.00  0.00    +0.000 C 
ATOM     21  O   UNL     1       1.584  11.975  21.064  0.00  0.00    +0.000 OA
ATOM     22  N   UNL     1      -0.668  12.284  20.743  0.00  0.00    +0.000 N 
ATOM     23  C   UNL     1      -1.882  12.124  19.949  0.00  0.00    +0.000 C 
BRANCH  22  24
ATOM     24  C   UNL     1      -0.733  13.071  22.010  0.00  0.00    +0.000 C 
ATOM     25  C   UNL     1      -1.376  14.467  21.921  0.00  0.00    +0.000 C 
ATOM     26  C   UNL     1      -2.904  14.475  21.901  0.00  0.00    +0.000 C 
ATOM     27  C   UNL     1      -3.528  13.590  22.975  0.00  0.00    +0.000 C 
ATOM     28  C   UNL     1      -2.891  12.208  23.089  0.00  0.00    +0.000 C 
ATOM     29  C   UNL     1      -1.367  12.269  23.163  0.00  0.00    +0.000 C 
ENDBRANCH  22  24
ENDBRANCH  19  20
ENDBRANCH  10  19
TORSDOF 7
ENDMDL
MODEL 7
REMARK VINA RESULT:      -7.0      0.936      1.214
REMARK  Name = 
REMARK  10 active torsions:
REMARK  status: ('A' for Active; 'I' for Inactive)
REMARK    1  A    between atoms: C_1  and  C_2
REMARK    2  A    between atoms: C_2  and  N_3
REMARK    3  A    between atoms: N_3  and  C_4
REMARK    4  A    between atoms: N_3  and  S_6
REMARK    5  A    between atoms: C_4  and  C_5
REMARK    6  A    between atoms: S_6  and  C_9
REMARK    7  A    between atoms: N_18  and  C_19
REMARK    8  A    between atoms: C_19  and  C_20
REMARK    9  A    between atoms: N_22  and  C_23
REMARK   10  A    between atoms: N_22  and  C_24
REMARK                            x       y       z     vdW  Elec       q    Type
REMARK                         _______ _______ _______ _____ _____    ______ ____
ROOT
ATOM      1  C   UNL     1       2.311   7.326  19.390  0.00  0.00    +0.000 A 
ATOM      2  C   UNL     1       1.961   8.324  18.455  0.00  0.00    +0.000 A 
ATOM      3  C   UNL     1       1.242   9.456  18.857  0.00  0.00    +0.000 A 
ATOM      4  C   UNL     1       0.880   9.545  20.184  0.00  0.00    +0.000 A 
ATOM      5  C   UNL     1       1.190   8.545  21.089  0.00  0.00    +0.000 A 
ATOM      6  C   UNL     1       1.900   7.417  20.727  0.00  0.00    +0.000 A 
ATOM      7  O   UNL     1       0.735   8.829  22.369  0.00  0.00    +0.000 OA
ATOM      8  C   UNL     1       0.148  10.091  22.214  0.00  0.00    +0.000 A 
ATOM      9  O   UNL     1      -0.329  10.733  23.150  0.00  0.00    +0.000 OA
ATOM     10  N   UNL     1       0.225  10.519  20.900  0.00  0.00    +0.000 N 
ENDROOT
BRANCH   1  11
ATOM     11  S   UNL     1       3.173   5.867  18.819  0.00  0.00    +0.000 S 
ATOM     12  O   UNL     1       4.318   5.685  19.684  0.00  0.00    +0.000 OA
ATOM     13  O   UNL     1       3.331   5.989  17.386  0.00  0.00    +0.000 OA
BRANCH  11  14
ATOM     14  N   UNL     1       2.060   4.585  19.124  0.00  0.00    +0.000 NA
BRANCH  14  16
ATOM     15  C   UNL     1       2.485   2.640  17.569  0.00  0.00    +0.000 C 
ATOM     16  C   UNL     1       1.632   3.855  17.894  0.00  0.00    +0.000 C 
ENDBRANCH  14  16
BRANCH  14  17
ATOM     17  C   UNL     1       2.453   3.710  20.276  0.00  0.00    +0.000 C 
ATOM     18  C   UNL     1       1.268   3.120  21.022  0.00  0.00    +0.000 C 
ENDBRANCH  14  17
ENDBRANCH  11  14
ENDBRANCH   1  11
BRANCH  10  19
ATOM     19  C   UNL     1      -0.074  11.865  20.463  0.00  0.00    +0.000 C 
BRANCH  19  20
ATOM     20  C   UNL     1       1.108  12.850  20.437  0.00  0.00    +0.000 C 
ATOM     21  O   UNL     1       2.084  12.625  21.164  0.00  0.00    +0.000 OA
ATOM     22  N   UNL     1       1.057  14.003  19.643  0.00  0.00    +0.000 N 
ATOM     23  C   UNL     1       0.006  14.277  18.668  0.00  0.00    +0.000 C 
BRANCH  22  24
ATOM     24  C   UNL     1       2.133  15.018  19.848  0.00  0.00    +0.000 C 
ATOM     25  C   UNL     1       2.616  15.773  18.596  0.00  0.00    +0.000 C 
ATOM     26  C   UNL     1       1.704  16.909  18.135  0.00  0.00    +0.000 C 
ATOM     27  C   UNL     1       1.271  17.834  19.268  0.00  0.00    +0.000 C 
ATOM     28  C   UNL     1       0.806  17.103  20.524  0.00  0.00    +0.000 C 
ATOM     29  C   UNL     1       1.785  16.019  20.967  0.00  0.00    +0.000 C 
ENDBRANCH  22  24
ENDBRANCH  19  20
ENDBRANCH  10  19
TORSDOF 7
ENDMDL
MODEL 8
REMARK VINA RESULT:      -6.9      2.855      4.232
REMARK  Name = 
REMARK  10 active torsions:
REMARK  status: ('A' for Active; 'I' for Inactive)
REMARK    1  A    between atoms: C_1  and  C_2
REMARK    2  A    between atoms: C_2  and  N_3
REMARK    3  A    between atoms: N_3  and  C_4
REMARK    4  A    between atoms: N_3  and  S_6
REMARK    5  A    between atoms: C_4  and  C_5
REMARK    6  A    between atoms: S_6  and  C_9
REMARK    7  A    between atoms: N_18  and  C_19
REMARK    8  A    between atoms: C_19  and  C_20
REMARK    9  A    between atoms: N_22  and  C_23
REMARK   10  A    between atoms: N_22  and  C_24
REMARK                            x       y       z     vdW  Elec       q    Type
REMARK                         _______ _______ _______ _____ _____    ______ ____
ROOT
ATOM      1  C   UNL     1       3.877   5.576  18.503  0.00  0.00    +0.000 A 
ATOM      2  C   UNL     1       3.764   6.599  17.538  0.00  0.00    +0.000 A 
ATOM      3  C   UNL     1       2.954   7.716  17.776  0.00  0.00    +0.000 A 
ATOM      4  C   UNL     1       2.267   7.765  18.969  0.00  0.00    +0.000 A 
ATOM      5  C   UNL     1       2.349   6.741  19.896  0.00  0.00    +0.000 A 
ATOM      6  C   UNL     1       3.140   5.627  19.695  0.00  0.00    +0.000 A 
ATOM      7  O   UNL     1       1.582   6.985  21.026  0.00  0.00    +0.000 OA
ATOM      8  C   UNL     1       1.039   8.249  20.761  0.00  0.00    +0.000 A 
ATOM      9  O   UNL     1       0.333   8.862  21.563  0.00  0.00    +0.000 OA
ATOM     10  N   UNL     1       1.441   8.715  19.522  0.00  0.00    +0.000 N 
ENDROOT
BRANCH   1  11
ATOM     11  S   UNL     1       4.871   4.137  18.131  0.00  0.00    +0.000 S 
ATOM     12  O   UNL     1       4.038   3.229  17.374  0.00  0.00    +0.000 OA
ATOM     13  O   UNL     1       5.506   3.718  19.362  0.00  0.00    +0.000 OA
BRANCH  11  14
ATOM     14  N   UNL     1       6.097   4.744  17.081  0.00  0.00    +0.000 NA
BRANCH  14  16
ATOM     15  C   UNL     1       7.632   6.458  18.125  0.00  0.00    +0.000 C 
ATOM     16  C   UNL     1       7.401   5.000  17.762  0.00  0.00    +0.000 C 
ENDBRANCH  14  16
BRANCH  14  17
ATOM     17  C   UNL     1       6.196   4.004  15.781  0.00  0.00    +0.000 C 
ATOM     18  C   UNL     1       5.646   4.779  14.596  0.00  0.00    +0.000 C 
ENDBRANCH  14  17
ENDBRANCH  11  14
ENDBRANCH   1  11
BRANCH  10  19
ATOM     19  C   UNL     1       1.247  10.072  19.060  0.00  0.00    +0.000 C 
BRANCH  19  20
ATOM     20  C   UNL     1      -0.106  10.720  19.403  0.00  0.00    +0.000 C 
ATOM     21  O   UNL     1      -1.129  10.277  18.866  0.00  0.00    +0.000 OA
ATOM     22  N   UNL     1      -0.170  11.820  20.268  0.00  0.00    +0.000 N 
ATOM     23  C   UNL     1       0.965  12.322  21.036  0.00  0.00    +0.000 C 
BRANCH  22  24
ATOM     24  C   UNL     1      -1.479  12.532  20.367  0.00  0.00    +0.000 C 
ATOM     25  C   UNL     1      -2.233  12.405  21.703  0.00  0.00    +0.000 C 
ATOM     26  C   UNL     1      -1.718  13.307  22.824  0.00  0.00    +0.000 C 
ATOM     27  C   UNL     1      -1.504  14.752  22.387  0.00  0.00    +0.000 C 
ATOM     28  C   UNL     1      -0.773  14.897  21.055  0.00  0.00    +0.000 C 
ATOM     29  C   UNL     1      -1.368  14.015  19.961  0.00  0.00    +0.000 C 
ENDBRANCH  22  24
ENDBRANCH  19  20
ENDBRANCH  10  19
TORSDOF 7
ENDMDL
MODEL 9
REMARK VINA RESULT:      -6.9      3.078      7.900
REMARK  Name = 
REMARK  10 active torsions:
REMARK  status: ('A' for Active; 'I' for Inactive)
REMARK    1  A    between atoms: C_1  and  C_2
REMARK    2  A    between atoms: C_2  and  N_3
REMARK    3  A    between atoms: N_3  and  C_4
REMARK    4  A    between atoms: N_3  and  S_6
REMARK    5  A    between atoms: C_4  and  C_5
REMARK    6  A    between atoms: S_6  and  C_9
REMARK    7  A    between atoms: N_18  and  C_19
REMARK    8  A    between atoms: C_19  and  C_20
REMARK    9  A    between atoms: N_22  and  C_23
REMARK   10  A    between atoms: N_22  and  C_24
REMARK                            x       y       z     vdW  Elec       q    Type
REMARK                         _______ _______ _______ _____ _____    ______ ____
ROOT
ATOM      1  C   UNL     1       0.992   9.369  20.203  0.00  0.00    +0.000 A 
ATOM      2  C   UNL     1       1.408   9.248  18.860  0.00  0.00    +0.000 A 
ATOM      3  C   UNL     1       1.891   8.029  18.371  0.00  0.00    +0.000 A 
ATOM      4  C   UNL     1       1.960   6.970  19.250  0.00  0.00    +0.000 A 
ATOM      5  C   UNL     1       1.588   7.102  20.576  0.00  0.00    +0.000 A 
ATOM      6  C   UNL     1       1.104   8.290  21.090  0.00  0.00    +0.000 A 
ATOM      7  O   UNL     1       1.734   5.921  21.288  0.00  0.00    +0.000 OA
ATOM      8  C   UNL     1       2.189   5.027  20.311  0.00  0.00    +0.000 A 
ATOM      9  O   UNL     1       2.385   3.831  20.529  0.00  0.00    +0.000 OA
ATOM     10  N   UNL     1       2.335   5.657  19.087  0.00  0.00    +0.000 N 
ENDROOT
BRANCH   1  11
ATOM     11  S   UNL     1       0.441  10.961  20.801  0.00  0.00    +0.000 S 
ATOM     12  O   UNL     1       1.580  11.595  21.431  0.00  0.00    +0.000 OA
ATOM     13  O   UNL     1      -0.791  10.749  21.528  0.00  0.00    +0.000 OA
BRANCH  11  14
ATOM     14  N   UNL     1       0.067  11.835  19.363  0.00  0.00    +0.000 NA
BRANCH  14  16
ATOM     15  C   UNL     1      -1.810  11.223  17.787  0.00  0.00    +0.000 C 
ATOM     16  C   UNL     1      -1.396  11.918  19.072  0.00  0.00    +0.000 C 
ENDBRANCH  14  16
BRANCH  14  17
ATOM     17  C   UNL     1       0.813  13.129  19.234  0.00  0.00    +0.000 C 
ATOM     18  C   UNL     1       2.001  13.054  18.291  0.00  0.00    +0.000 C 
ENDBRANCH  14  17
ENDBRANCH  11  14
ENDBRANCH   1  11
BRANCH  10  19
ATOM     19  C   UNL     1       2.560   4.966  17.837  0.00  0.00    +0.000 C 
BRANCH  19  20
ATOM     20  C   UNL     1       4.016   4.571  17.530  0.00  0.00    +0.000 C 
ATOM     21  O   UNL     1       4.389   3.423  17.804  0.00  0.00    +0.000 OA
ATOM     22  N   UNL     1       4.910   5.507  16.997  0.00  0.00    +0.000 N 
ATOM     23  C   UNL     1       4.521   6.835  16.532  0.00  0.00    +0.000 C 
BRANCH  22  24
ATOM     24  C   UNL     1       6.351   5.119  16.947  0.00  0.00    +0.000 C 
ATOM     25  C   UNL     1       7.328   6.168  16.386  0.00  0.00    +0.000 C 
ATOM     26  C   UNL     1       7.716   7.277  17.363  0.00  0.00    +0.000 C 
ATOM     27  C   UNL     1       8.115   6.757  18.740  0.00  0.00    +0.000 C 
ATOM     28  C   UNL     1       7.167   5.703  19.304  0.00  0.00    +0.000 C 
ATOM     29  C   UNL     1       6.861   4.593  18.302  0.00  0.00    +0.000 C 
ENDBRANCH  22  24
ENDBRANCH  19  20
ENDBRANCH  10  19
TORSDOF 7
ENDMDL
