MODEL 1
REMARK VINA RESULT:      -6.4      0.000      0.000
REMARK  Name = 
REMARK  9 active torsions:
REMARK  status: ('A' for Active; 'I' for Inactive)
REMARK    1  A    between atoms: C_1  and  C_2
REMARK    2  A    between atoms: C_2  and  C_3
REMARK    3  A    between atoms: C_3  and  C_4
REMARK    4  A    between atoms: C_4  and  C_5
REMARK    5  A    between atoms: C_4  and  C_8
REMARK    6  A    between atoms: C_5  and  O_7
REMARK    7  A    between atoms: C_9  and  C_10
REMARK    8  A    between atoms: C_17  and  C_18
REMARK    9  A    between atoms: C_21  and  C_22
REMARK                            x       y       z     vdW  Elec       q    Type
REMARK                         _______ _______ _______ _____ _____    ______ ____
ROOT
ATOM      1  C   UNL     1      -1.000  11.319  19.874  0.00  0.00    +0.000 A 
ATOM      2  C   UNL     1      -0.894  10.660  18.634  0.00  0.00    +0.000 A 
ATOM      3  C   UNL     1       0.311   9.908  18.137  0.00  0.00    +0.000 C 
ATOM      4  N   UNL     1      -1.887  10.596  17.752  0.00  0.00    +0.000 NA
ATOM      5  C   UNL     1      -3.028  11.218  18.067  0.00  0.00    +0.000 A 
ATOM      6  S   UNL     1      -4.297  11.153  16.939  0.00  0.00    +0.000 S 
ATOM      7  C   UNL     1      -5.293  12.089  17.925  0.00  0.00    +0.000 A 
ATOM      8  C   UNL     1      -4.685  12.468  19.116  0.00  0.00    +0.000 A 
ATOM      9  C   UNL     1      -3.312  11.947  19.223  0.00  0.00    +0.000 A 
ATOM     10  C   UNL     1      -2.234  12.006  20.187  0.00  0.00    +0.000 A 
ATOM     11  C   UNL     1      -5.524  13.284  20.066  0.00  0.00    +0.000 C 
ATOM     12  C   UNL     1      -6.697  13.944  19.324  0.00  0.00    +0.000 C 
ATOM     13  O   UNL     1      -7.426  12.962  18.584  0.00  0.00    +0.000 OA
ATOM     14  C   UNL     1      -6.671  12.464  17.468  0.00  0.00    +0.000 C 
ENDROOT
BRANCH  10  15
ATOM     15  C   UNL     1      -2.386  12.837  21.411  0.00  0.00    +0.000 A 
ATOM     16  C   UNL     1      -2.109  14.214  21.446  0.00  0.00    +0.000 A 
ATOM     17  C   UNL     1      -2.463  15.005  22.549  0.00  0.00    +0.000 A 
ATOM     18  C   UNL     1      -2.949  14.411  23.712  0.00  0.00    +0.000 A 
ATOM     19  C   UNL     1      -3.320  15.218  24.918  0.00  0.00    +0.000 C 
ATOM     20  C   UNL     1      -3.100  13.026  23.742  0.00  0.00    +0.000 A 
ATOM     21  C   UNL     1      -2.923  12.277  22.578  0.00  0.00    +0.000 A 
ENDBRANCH  10  15
BRANCH   1  22
ATOM     22  C   UNL     1       0.193  11.328  20.851  0.00  0.00    +0.000 C 
BRANCH  22  23
ATOM     23  C   UNL     1       1.182  12.432  20.516  0.00  0.00    +0.000 C 
ATOM     24  O   UNL     1       1.846  12.504  19.486  0.00  0.00    +0.000 OA
BRANCH  23  25
ATOM     25  O   UNL     1       1.311  13.344  21.513  0.00  0.00    +0.000 OA
ATOM     26  H   UNL     1       1.675  12.986  22.345  0.00  0.00    +0.000 HD
ENDBRANCH  23  25
ENDBRANCH  22  23
BRANCH  22  27
ATOM     27  C   UNL     1       0.753   9.896  21.013  0.00  0.00    +0.000 C 
BRANCH  27  29
ATOM     28  C   UNL     1      -0.360   9.701  23.234  0.00  0.00    +0.000 C 
ATOM     29  C   UNL     1      -0.050   8.973  21.928  0.00  0.00    +0.000 C 
ENDBRANCH  27  29
ENDBRANCH  22  27
ENDBRANCH   1  22
TORSDOF 6
ENDMDL
MODEL 2
REMARK VINA RESULT:      -6.3      0.431      1.001
REMARK  Name = 
REMARK  9 active torsions:
REMARK  status: ('A' for Active; 'I' for Inactive)
REMARK    1  A    between atoms: C_1  and  C_2
REMARK    2  A    between atoms: C_2  and  C_3
REMARK    3  A    between atoms: C_3  and  C_4
REMARK    4  A    between atoms: C_4  and  C_5
REMARK    5  A    between atoms: C_4  and  C_8
REMARK    6  A    between atoms: C_5  and  O_7
REMARK    7  A    between atoms: C_9  and  C_10
REMARK    8  A    between atoms: C_17  and  C_18
REMARK    9  A    between atoms: C_21  and  C_22
REMARK                            x       y       z     vdW  Elec       q    Type
REMARK                         _______ _______ _______ _____ _____    ______ ____
ROOT
ATOM      1  C   UNL     1      -1.222  11.495  19.870  0.00  0.00    +0.000 A 
ATOM      2  C   UNL     1      -1.102  10.876  18.611  0.00  0.00    +0.000 A 
ATOM      3  C   UNL     1       0.129  10.191  18.080  0.00  0.00    +0.000 C 
ATOM      4  N   UNL     1      -2.101  10.792  17.737  0.00  0.00    +0.000 NA
ATOM      5  C   UNL     1      -3.265  11.355  18.080  0.00  0.00    +0.000 A 
ATOM      6  S   UNL     1      -4.542  11.265  16.964  0.00  0.00    +0.000 S 
ATOM      7  C   UNL     1      -5.567  12.129  17.986  0.00  0.00    +0.000 A 
ATOM      8  C   UNL     1      -4.963  12.500  19.181  0.00  0.00    +0.000 A 
ATOM      9  C   UNL     1      -3.567  12.038  19.260  0.00  0.00    +0.000 A 
ATOM     10  C   UNL     1      -2.482  12.117  20.214  0.00  0.00    +0.000 A 
ATOM     11  C   UNL     1      -5.826  13.252  20.162  0.00  0.00    +0.000 C 
ATOM     12  C   UNL     1      -7.035  13.881  19.451  0.00  0.00    +0.000 C 
ATOM     13  O   UNL     1      -7.728  12.888  18.691  0.00  0.00    +0.000 OA
ATOM     14  C   UNL     1      -6.965  12.455  17.553  0.00  0.00    +0.000 C 
ENDROOT
BRANCH  10  15
ATOM     15  C   UNL     1      -2.657  12.906  21.462  0.00  0.00    +0.000 A 
ATOM     16  C   UNL     1      -3.114  12.348  22.668  0.00  0.00    +0.000 A 
ATOM     17  C   UNL     1      -3.066  13.064  23.873  0.00  0.00    +0.000 A 
ATOM     18  C   UNL     1      -2.717  14.414  23.873  0.00  0.00    +0.000 A 
ATOM     19  C   UNL     1      -2.672  15.220  25.135  0.00  0.00    +0.000 C 
ATOM     20  C   UNL     1      -2.393  15.021  22.662  0.00  0.00    +0.000 A 
ATOM     21  C   UNL     1      -2.264  14.250  21.506  0.00  0.00    +0.000 A 
ENDBRANCH  10  15
BRANCH   1  22
ATOM     22  C   UNL     1      -0.020  11.529  20.834  0.00  0.00    +0.000 C 
BRANCH  22  23
ATOM     23  C   UNL     1       0.961  12.629  20.466  0.00  0.00    +0.000 C 
ATOM     24  O   UNL     1       0.855  13.385  19.504  0.00  0.00    +0.000 OA
BRANCH  23  25
ATOM     25  O   UNL     1       2.034  12.679  21.296  0.00  0.00    +0.000 OA
ATOM     26  H   UNL     1       2.077  13.478  21.855  0.00  0.00    +0.000 HD
ENDBRANCH  23  25
ENDBRANCH  22  23
BRANCH  22  27
ATOM     27  C   UNL     1       0.547  10.103  21.021  0.00  0.00    +0.000 C 
BRANCH  27  29
ATOM     28  C   UNL     1      -0.559   9.797  23.234  0.00  0.00    +0.000 C 
ATOM     29  C   UNL     1      -0.305   9.159  21.869  0.00  0.00    +0.000 C 
ENDBRANCH  27  29
ENDBRANCH  22  27
ENDBRANCH   1  22
TORSDOF 6
ENDMDL
MODEL 3
REMARK VINA RESULT:      -6.1      5.929      9.183
REMARK  Name = 
REMARK  9 active torsions:
REMARK  status: ('A' for Active; 'I' for Inactive)
REMARK    1  A    between atoms: C_1  and  C_2
REMARK    2  A    between atoms: C_2  and  C_3
REMARK    3  A    between atoms: C_3  and  C_4
REMARK    4  A    between atoms: C_4  and  C_5
REMARK    5  A    between atoms: C_4  and  C_8
REMARK    6  A    between atoms: C_5  and  O_7
REMARK    7  A    between atoms: C_9  and  C_10
REMARK    8  A    between atoms: C_17  and  C_18
REMARK    9  A    between atoms: C_21  and  C_22
REMARK                            x       y       z     vdW  Elec       q    Type
REMARK                         _______ _______ _______ _____ _____    ______ ____
ROOT
ATOM      1  C   UNL     1       3.685   5.889  17.729  0.00  0.00    +0.000 A 
ATOM      2  C   UNL     1       4.180   6.962  16.963  0.00  0.00    +0.000 A 
ATOM      3  C   UNL     1       5.232   6.866  15.891  0.00  0.00    +0.000 C 
ATOM      4  N   UNL     1       3.736   8.211  17.078  0.00  0.00    +0.000 NA
ATOM      5  C   UNL     1       2.789   8.443  17.992  0.00  0.00    +0.000 A 
ATOM      6  S   UNL     1       2.227  10.038  18.156  0.00  0.00    +0.000 S 
ATOM      7  C   UNL     1       1.171   9.596  19.393  0.00  0.00    +0.000 A 
ATOM      8  C   UNL     1       1.228   8.243  19.704  0.00  0.00    +0.000 A 
ATOM      9  C   UNL     1       2.201   7.525  18.864  0.00  0.00    +0.000 A 
ATOM     10  C   UNL     1       2.676   6.165  18.730  0.00  0.00    +0.000 A 
ATOM     11  C   UNL     1       0.290   7.764  20.783  0.00  0.00    +0.000 C 
ATOM     12  C   UNL     1      -0.181   8.940  21.654  0.00  0.00    +0.000 C 
ATOM     13  O   UNL     1      -0.709   9.981  20.829  0.00  0.00    +0.000 OA
ATOM     14  C   UNL     1       0.319  10.631  20.064  0.00  0.00    +0.000 C 
ENDROOT
BRANCH  10  15
ATOM     15  C   UNL     1       2.195   5.120  19.672  0.00  0.00    +0.000 A 
ATOM     16  C   UNL     1       1.216   4.170  19.333  0.00  0.00    +0.000 A 
ATOM     17  C   UNL     1       0.939   3.075  20.164  0.00  0.00    +0.000 A 
ATOM     18  C   UNL     1       1.512   2.993  21.432  0.00  0.00    +0.000 A 
ATOM     19  C   UNL     1       1.228   1.850  22.358  0.00  0.00    +0.000 C 
ATOM     20  C   UNL     1       2.381   4.003  21.839  0.00  0.00    +0.000 A 
ATOM     21  C   UNL     1       2.790   4.981  20.933  0.00  0.00    +0.000 A 
ENDBRANCH  10  15
BRANCH   1  22
ATOM     22  C   UNL     1       4.239   4.466  17.518  0.00  0.00    +0.000 C 
BRANCH  22  23
ATOM     23  C   UNL     1       5.356   4.150  18.498  0.00  0.00    +0.000 C 
ATOM     24  O   UNL     1       6.348   4.847  18.695  0.00  0.00    +0.000 OA
BRANCH  23  25
ATOM     25  O   UNL     1       5.184   2.960  19.129  0.00  0.00    +0.000 OA
ATOM     26  H   UNL     1       5.192   2.183  18.537  0.00  0.00    +0.000 HD
ENDBRANCH  23  25
ENDBRANCH  22  23
BRANCH  22  27
ATOM     27  C   UNL     1       4.520   4.226  16.017  0.00  0.00    +0.000 C 
BRANCH  27  29
ATOM     28  C   UNL     1       6.220   3.847  14.236  0.00  0.00    +0.000 C 
ATOM     29  C   UNL     1       5.857   3.563  15.692  0.00  0.00    +0.000 C 
ENDBRANCH  27  29
ENDBRANCH  22  27
ENDBRANCH   1  22
TORSDOF 6
ENDMDL
MODEL 4
REMARK VINA RESULT:      -6.1      5.895      9.067
REMARK  Name = 
REMARK  9 active torsions:
REMARK  status: ('A' for Active; 'I' for Inactive)
REMARK    1  A    between atoms: C_1  and  C_2
REMARK    2  A    between atoms: C_2  and  C_3
REMARK    3  A    between atoms: C_3  and  C_4
REMARK    4  A    between atoms: C_4  and  C_5
REMARK    5  A    between atoms: C_4  and  C_8
REMARK    6  A    between atoms: C_5  and  O_7
REMARK    7  A    between atoms: C_9  and  C_10
REMARK    8  A    between atoms: C_17  and  C_18
REMARK    9  A    between atoms: C_21  and  C_22
REMARK                            x       y       z     vdW  Elec       q    Type
REMARK                         _______ _______ _______ _____ _____    ______ ____
ROOT
ATOM      1  C   UNL     1       3.621   5.755  17.716  0.00  0.00    +0.000 A 
ATOM      2  C   UNL     1       4.101   6.792  16.894  0.00  0.00    +0.000 A 
ATOM      3  C   UNL     1       5.111   6.642  15.787  0.00  0.00    +0.000 C 
ATOM      4  N   UNL     1       3.679   8.050  16.979  0.00  0.00    +0.000 NA
ATOM      5  C   UNL     1       2.770   8.329  17.919  0.00  0.00    +0.000 A 
ATOM      6  S   UNL     1       2.236   9.937  18.045  0.00  0.00    +0.000 S 
ATOM      7  C   UNL     1       1.221   9.556  19.337  0.00  0.00    +0.000 A 
ATOM      8  C   UNL     1       1.272   8.214  19.694  0.00  0.00    +0.000 A 
ATOM      9  C   UNL     1       2.203   7.452  18.846  0.00  0.00    +0.000 A 
ATOM     10  C   UNL     1       2.655   6.081  18.743  0.00  0.00    +0.000 A 
ATOM     11  C   UNL     1       0.370   7.788  20.824  0.00  0.00    +0.000 C 
ATOM     12  C   UNL     1      -0.053   9.001  21.669  0.00  0.00    +0.000 C 
ATOM     13  O   UNL     1      -0.597  10.020  20.826  0.00  0.00    +0.000 OA
ATOM     14  C   UNL     1       0.409  10.626  20.000  0.00  0.00    +0.000 C 
ENDROOT
BRANCH  10  15
ATOM     15  C   UNL     1       2.195   5.078  19.740  0.00  0.00    +0.000 A 
ATOM     16  C   UNL     1       1.024   4.317  19.583  0.00  0.00    +0.000 A 
ATOM     17  C   UNL     1       0.733   3.237  20.429  0.00  0.00    +0.000 A 
ATOM     18  C   UNL     1       1.517   2.996  21.556  0.00  0.00    +0.000 A 
ATOM     19  C   UNL     1       1.229   1.866  22.495  0.00  0.00    +0.000 C 
ATOM     20  C   UNL     1       2.605   3.831  21.803  0.00  0.00    +0.000 A 
ATOM     21  C   UNL     1       2.991   4.778  20.854  0.00  0.00    +0.000 A 
ENDBRANCH  10  15
BRANCH   1  22
ATOM     22  C   UNL     1       4.148   4.317  17.537  0.00  0.00    +0.000 C 
BRANCH  22  23
ATOM     23  C   UNL     1       3.021   3.339  17.260  0.00  0.00    +0.000 C 
ATOM     24  O   UNL     1       2.052   3.555  16.537  0.00  0.00    +0.000 OA
BRANCH  23  25
ATOM     25  O   UNL     1       3.153   2.173  17.944  0.00  0.00    +0.000 OA
ATOM     26  H   UNL     1       2.659   1.422  17.562  0.00  0.00    +0.000 HD
ENDBRANCH  23  25
ENDBRANCH  22  23
BRANCH  22  27
ATOM     27  C   UNL     1       5.129   3.969  18.680  0.00  0.00    +0.000 C 
BRANCH  27  29
ATOM     28  C   UNL     1       7.387   4.769  17.994  0.00  0.00    +0.000 C 
ATOM     29  C   UNL     1       6.221   5.002  18.953  0.00  0.00    +0.000 C 
ENDBRANCH  27  29
ENDBRANCH  22  27
ENDBRANCH   1  22
TORSDOF 6
ENDMDL
MODEL 5
REMARK VINA RESULT:      -6.0      5.888      9.045
REMARK  Name = 
REMARK  9 active torsions:
REMARK  status: ('A' for Active; 'I' for Inactive)
REMARK    1  A    between atoms: C_1  and  C_2
REMARK    2  A    between atoms: C_2  and  C_3
REMARK    3  A    between atoms: C_3  and  C_4
REMARK    4  A    between atoms: C_4  and  C_5
REMARK    5  A    between atoms: C_4  and  C_8
REMARK    6  A    between atoms: C_5  and  O_7
REMARK    7  A    between atoms: C_9  and  C_10
REMARK    8  A    between atoms: C_17  and  C_18
REMARK    9  A    between atoms: C_21  and  C_22
REMARK                            x       y       z     vdW  Elec       q    Type
REMARK                         _______ _______ _______ _____ _____    ______ ____
ROOT
ATOM      1  C   UNL     1       3.742   5.769  17.885  0.00  0.00    +0.000 A 
ATOM      2  C   UNL     1       4.248   6.803  17.074  0.00  0.00    +0.000 A 
ATOM      3  C   UNL     1       5.318   6.657  16.026  0.00  0.00    +0.000 C 
ATOM      4  N   UNL     1       3.800   8.054  17.118  0.00  0.00    +0.000 NA
ATOM      5  C   UNL     1       2.837   8.330  18.004  0.00  0.00    +0.000 A 
ATOM      6  S   UNL     1       2.268   9.929  18.077  0.00  0.00    +0.000 S 
ATOM      7  C   UNL     1       1.192   9.547  19.317  0.00  0.00    +0.000 A 
ATOM      8  C   UNL     1       1.247   8.211  19.697  0.00  0.00    +0.000 A 
ATOM      9  C   UNL     1       2.235   7.454  18.911  0.00  0.00    +0.000 A 
ATOM     10  C   UNL     1       2.716   6.091  18.853  0.00  0.00    +0.000 A 
ATOM     11  C   UNL     1       0.292   7.785  20.782  0.00  0.00    +0.000 C 
ATOM     12  C   UNL     1      -0.197   9.001  21.585  0.00  0.00    +0.000 C 
ATOM     13  O   UNL     1      -0.713   9.998  20.699  0.00  0.00    +0.000 OA
ATOM     14  C   UNL     1       0.327  10.611  19.920  0.00  0.00    +0.000 C 
ENDROOT
BRANCH  10  15
ATOM     15  C   UNL     1       2.221   5.094  19.838  0.00  0.00    +0.000 A 
ATOM     16  C   UNL     1       1.044   4.347  19.653  0.00  0.00    +0.000 A 
ATOM     17  C   UNL     1       0.720   3.271  20.492  0.00  0.00    +0.000 A 
ATOM     18  C   UNL     1       1.474   3.020  21.637  0.00  0.00    +0.000 A 
ATOM     19  C   UNL     1       1.150   1.893  22.568  0.00  0.00    +0.000 C 
ATOM     20  C   UNL     1       2.567   3.841  21.910  0.00  0.00    +0.000 A 
ATOM     21  C   UNL     1       2.986   4.784  20.970  0.00  0.00    +0.000 A 
ENDBRANCH  10  15
BRANCH   1  22
ATOM     22  C   UNL     1       4.303   4.338  17.756  0.00  0.00    +0.000 C 
BRANCH  22  23
ATOM     23  C   UNL     1       5.822   4.330  17.760  0.00  0.00    +0.000 C 
ATOM     24  O   UNL     1       6.533   4.797  18.646  0.00  0.00    +0.000 OA
BRANCH  23  25
ATOM     25  O   UNL     1       6.351   3.784  16.636  0.00  0.00    +0.000 OA
ATOM     26  H   UNL     1       5.811   3.074  16.238  0.00  0.00    +0.000 HD
ENDBRANCH  23  25
ENDBRANCH  22  23
BRANCH  22  27
ATOM     27  C   UNL     1       3.591   3.595  16.602  0.00  0.00    +0.000 C 
BRANCH  27  29
ATOM     28  C   UNL     1       3.268   1.712  18.203  0.00  0.00    +0.000 C 
ATOM     29  C   UNL     1       2.653   2.465  17.024  0.00  0.00    +0.000 C 
ENDBRANCH  27  29
ENDBRANCH  22  27
ENDBRANCH   1  22
TORSDOF 6
ENDMDL
MODEL 6
REMARK VINA RESULT:      -6.0      1.443      1.637
REMARK  Name = 
REMARK  9 active torsions:
REMARK  status: ('A' for Active; 'I' for Inactive)
REMARK    1  A    between atoms: C_1  and  C_2
REMARK    2  A    between atoms: C_2  and  C_3
REMARK    3  A    between atoms: C_3  and  C_4
REMARK    4  A    between atoms: C_4  and  C_5
REMARK    5  A    between atoms: C_4  and  C_8
REMARK    6  A    between atoms: C_5  and  O_7
REMARK    7  A    between atoms: C_9  and  C_10
REMARK    8  A    between atoms: C_17  and  C_18
REMARK    9  A    between atoms: C_21  and  C_22
REMARK                            x       y       z     vdW  Elec       q    Type
REMARK                         _______ _______ _______ _____ _____    ______ ____
ROOT
ATOM      1  C   UNL     1      -1.607  11.387  19.287  0.00  0.00    +0.000 A 
ATOM      2  C   UNL     1      -2.112  10.718  18.156  0.00  0.00    +0.000 A 
ATOM      3  C   UNL     1      -1.335   9.788  17.263  0.00  0.00    +0.000 C 
ATOM      4  N   UNL     1      -3.378  10.806  17.757  0.00  0.00    +0.000 NA
ATOM      5  C   UNL     1      -4.190  11.597  18.466  0.00  0.00    +0.000 A 
ATOM      6  S   UNL     1      -5.805  11.727  17.955  0.00  0.00    +0.000 S 
ATOM      7  C   UNL     1      -6.168  12.806  19.197  0.00  0.00    +0.000 A 
ATOM      8  C   UNL     1      -5.079  13.088  20.013  0.00  0.00    +0.000 A 
ATOM      9  C   UNL     1      -3.870  12.363  19.589  0.00  0.00    +0.000 A 
ATOM     10  C   UNL     1      -2.495  12.256  20.028  0.00  0.00    +0.000 A 
ATOM     11  C   UNL     1      -5.332  14.025  21.166  0.00  0.00    +0.000 C 
ATOM     12  C   UNL     1      -6.601  14.857  20.922  0.00  0.00    +0.000 C 
ATOM     13  O   UNL     1      -7.698  13.998  20.606  0.00  0.00    +0.000 OA
ATOM     14  C   UNL     1      -7.545  13.388  19.314  0.00  0.00    +0.000 C 
ENDROOT
BRANCH  10  15
ATOM     15  C   UNL     1      -2.015  13.102  21.153  0.00  0.00    +0.000 A 
ATOM     16  C   UNL     1      -1.552  14.418  20.983  0.00  0.00    +0.000 A 
ATOM     17  C   UNL     1      -1.309  15.257  22.081  0.00  0.00    +0.000 A 
ATOM     18  C   UNL     1      -1.359  14.748  23.378  0.00  0.00    +0.000 A 
ATOM     19  C   UNL     1      -1.086  15.605  24.575  0.00  0.00    +0.000 C 
ATOM     20  C   UNL     1      -1.682  13.404  23.557  0.00  0.00    +0.000 A 
ATOM     21  C   UNL     1      -2.104  12.636  22.471  0.00  0.00    +0.000 A 
ENDBRANCH  10  15
BRANCH   1  22
ATOM     22  C   UNL     1      -0.130  11.213  19.695  0.00  0.00    +0.000 C 
BRANCH  22  23
ATOM     23  C   UNL     1       0.804  11.925  18.732  0.00  0.00    +0.000 C 
ATOM     24  O   UNL     1       0.763  13.121  18.454  0.00  0.00    +0.000 OA
BRANCH  23  25
ATOM     25  O   UNL     1       1.694  11.087  18.142  0.00  0.00    +0.000 OA
ATOM     26  H   UNL     1       2.340  10.687  18.755  0.00  0.00    +0.000 HD
ENDBRANCH  23  25
ENDBRANCH  22  23
BRANCH  22  27
ATOM     27  C   UNL     1       0.162   9.726  20.000  0.00  0.00    +0.000 C 
BRANCH  27  29
ATOM     28  C   UNL     1      -0.361   9.401  22.415  0.00  0.00    +0.000 C 
ATOM     29  C   UNL     1       0.759   9.439  21.377  0.00  0.00    +0.000 C 
ENDBRANCH  27  29
ENDBRANCH  22  27
ENDBRANCH   1  22
TORSDOF 6
ENDMDL
MODEL 7
REMARK VINA RESULT:      -5.9      1.232      2.093
REMARK  Name = 
REMARK  9 active torsions:
REMARK  status: ('A' for Active; 'I' for Inactive)
REMARK    1  A    between atoms: C_1  and  C_2
REMARK    2  A    between atoms: C_2  and  C_3
REMARK    3  A    between atoms: C_3  and  C_4
REMARK    4  A    between atoms: C_4  and  C_5
REMARK    5  A    between atoms: C_4  and  C_8
REMARK    6  A    between atoms: C_5  and  O_7
REMARK    7  A    between atoms: C_9  and  C_10
REMARK    8  A    between atoms: C_17  and  C_18
REMARK    9  A    between atoms: C_21  and  C_22
REMARK                            x       y       z     vdW  Elec       q    Type
REMARK                         _______ _______ _______ _____ _____    ______ ____
ROOT
ATOM      1  C   UNL     1      -1.146  11.327  19.827  0.00  0.00    +0.000 A 
ATOM      2  C   UNL     1      -1.057  10.669  18.585  0.00  0.00    +0.000 A 
ATOM      3  C   UNL     1       0.135   9.902  18.078  0.00  0.00    +0.000 C 
ATOM      4  N   UNL     1      -2.056  10.619  17.709  0.00  0.00    +0.000 NA
ATOM      5  C   UNL     1      -3.187  11.255  18.032  0.00  0.00    +0.000 A 
ATOM      6  S   UNL     1      -4.464  11.208  16.913  0.00  0.00    +0.000 S 
ATOM      7  C   UNL     1      -5.442  12.155  17.908  0.00  0.00    +0.000 A 
ATOM      8  C   UNL     1      -4.821  12.523  19.095  0.00  0.00    +0.000 A 
ATOM      9  C   UNL     1      -3.454  11.985  19.192  0.00  0.00    +0.000 A 
ATOM     10  C   UNL     1      -2.370  12.028  20.149  0.00  0.00    +0.000 A 
ATOM     11  C   UNL     1      -5.644  13.348  20.052  0.00  0.00    +0.000 C 
ATOM     12  C   UNL     1      -6.813  14.025  19.319  0.00  0.00    +0.000 C 
ATOM     13  O   UNL     1      -7.559  13.053  18.582  0.00  0.00    +0.000 OA
ATOM     14  C   UNL     1      -6.818  12.548  17.460  0.00  0.00    +0.000 C 
ENDROOT
BRANCH  10  15
ATOM     15  C   UNL     1      -2.503  12.858  21.376  0.00  0.00    +0.000 A 
ATOM     16  C   UNL     1      -2.214  14.233  21.410  0.00  0.00    +0.000 A 
ATOM     17  C   UNL     1      -2.551  15.026  22.517  0.00  0.00    +0.000 A 
ATOM     18  C   UNL     1      -3.031  14.433  23.684  0.00  0.00    +0.000 A 
ATOM     19  C   UNL     1      -3.384  15.242  24.895  0.00  0.00    +0.000 C 
ATOM     20  C   UNL     1      -3.193  13.050  23.714  0.00  0.00    +0.000 A 
ATOM     21  C   UNL     1      -3.033  12.302  22.547  0.00  0.00    +0.000 A 
ENDBRANCH  10  15
BRANCH   1  22
ATOM     22  C   UNL     1       0.054  11.319  20.795  0.00  0.00    +0.000 C 
BRANCH  22  23
ATOM     23  C   UNL     1      -0.202  10.424  21.995  0.00  0.00    +0.000 C 
ATOM     24  O   UNL     1      -0.174  10.783  23.169  0.00  0.00    +0.000 OA
BRANCH  23  25
ATOM     25  O   UNL     1      -0.426   9.130  21.651  0.00  0.00    +0.000 OA
ATOM     26  H   UNL     1      -0.534   8.979  20.693  0.00  0.00    +0.000 HD
ENDBRANCH  23  25
ENDBRANCH  22  23
BRANCH  22  27
ATOM     27  C   UNL     1       0.517  12.767  21.073  0.00  0.00    +0.000 C 
BRANCH  27  29
ATOM     28  C   UNL     1       0.763  14.309  19.130  0.00  0.00    +0.000 C 
ATOM     29  C   UNL     1       1.503  13.352  20.063  0.00  0.00    +0.000 C 
ENDBRANCH  27  29
ENDBRANCH  22  27
ENDBRANCH   1  22
TORSDOF 6
ENDMDL
MODEL 8
REMARK VINA RESULT:      -5.8      1.575      5.844
REMARK  Name = 
REMARK  9 active torsions:
REMARK  status: ('A' for Active; 'I' for Inactive)
REMARK    1  A    between atoms: C_1  and  C_2
REMARK    2  A    between atoms: C_2  and  C_3
REMARK    3  A    between atoms: C_3  and  C_4
REMARK    4  A    between atoms: C_4  and  C_5
REMARK    5  A    between atoms: C_4  and  C_8
REMARK    6  A    between atoms: C_5  and  O_7
REMARK    7  A    between atoms: C_9  and  C_10
REMARK    8  A    between atoms: C_17  and  C_18
REMARK    9  A    between atoms: C_21  and  C_22
REMARK                            x       y       z     vdW  Elec       q    Type
REMARK                         _______ _______ _______ _____ _____    ______ ____
ROOT
ATOM      1  C   UNL     1      -5.229  12.687  19.720  0.00  0.00    +0.000 A 
ATOM      2  C   UNL     1      -5.514  11.967  18.544  0.00  0.00    +0.000 A 
ATOM      3  C   UNL     1      -6.865  11.840  17.894  0.00  0.00    +0.000 C 
ATOM      4  N   UNL     1      -4.588  11.328  17.835  0.00  0.00    +0.000 NA
ATOM      5  C   UNL     1      -3.332  11.361  18.293  0.00  0.00    +0.000 A 
ATOM      6  S   UNL     1      -2.146  10.536  17.400  0.00  0.00    +0.000 S 
ATOM      7  C   UNL     1      -0.942  10.966  18.500  0.00  0.00    +0.000 A 
ATOM      8  C   UNL     1      -1.416  11.735  19.556  0.00  0.00    +0.000 A 
ATOM      9  C   UNL     1      -2.862  11.989  19.449  0.00  0.00    +0.000 A 
ATOM     10  C   UNL     1      -3.869  12.693  20.213  0.00  0.00    +0.000 A 
ATOM     11  C   UNL     1      -0.392  12.184  20.568  0.00  0.00    +0.000 C 
ATOM     12  C   UNL     1       0.865  11.302  20.497  0.00  0.00    +0.000 C 
ATOM     13  O   UNL     1       1.347  11.241  19.153  0.00  0.00    +0.000 OA
ATOM     14  C   UNL     1       0.465  10.491  18.302  0.00  0.00    +0.000 C 
ENDROOT
BRANCH  10  15
ATOM     15  C   UNL     1      -3.504  13.314  21.514  0.00  0.00    +0.000 A 
ATOM     16  C   UNL     1      -3.206  14.680  21.659  0.00  0.00    +0.000 A 
ATOM     17  C   UNL     1      -3.075  15.272  22.923  0.00  0.00    +0.000 A 
ATOM     18  C   UNL     1      -3.071  14.482  24.071  0.00  0.00    +0.000 A 
ATOM     19  C   UNL     1      -2.915  15.072  25.439  0.00  0.00    +0.000 C 
ATOM     20  C   UNL     1      -3.228  13.104  23.935  0.00  0.00    +0.000 A 
ATOM     21  C   UNL     1      -3.544  12.555  22.691  0.00  0.00    +0.000 A 
ENDBRANCH  10  15
BRANCH   1  22
ATOM     22  C   UNL     1      -6.359  13.419  20.473  0.00  0.00    +0.000 C 
BRANCH  22  23
ATOM     23  C   UNL     1      -7.115  12.481  21.397  0.00  0.00    +0.000 C 
ATOM     24  O   UNL     1      -7.072  11.254  21.356  0.00  0.00    +0.000 OA
BRANCH  23  25
ATOM     25  O   UNL     1      -7.911  13.137  22.279  0.00  0.00    +0.000 OA
ATOM     26  H   UNL     1      -7.660  13.021  23.216  0.00  0.00    +0.000 HD
ENDBRANCH  23  25
ENDBRANCH  22  23
BRANCH  22  27
ATOM     27  C   UNL     1      -7.190  14.265  19.482  0.00  0.00    +0.000 C 
BRANCH  27  29
ATOM     28  C   UNL     1      -6.871  15.607  17.406  0.00  0.00    +0.000 C 
ATOM     29  C   UNL     1      -6.471  15.468  18.874  0.00  0.00    +0.000 C 
ENDBRANCH  27  29
ENDBRANCH  22  27
ENDBRANCH   1  22
TORSDOF 6
ENDMDL
MODEL 9
REMARK VINA RESULT:      -5.7      2.797      5.306
REMARK  Name = 
REMARK  9 active torsions:
REMARK  status: ('A' for Active; 'I' for Inactive)
REMARK    1  A    between atoms: C_1  and  C_2
REMARK    2  A    between atoms: C_2  and  C_3
REMARK    3  A    between atoms: C_3  and  C_4
REMARK    4  A    between atoms: C_4  and  C_5
REMARK    5  A    between atoms: C_4  and  C_8
REMARK    6  A    between atoms: C_5  and  O_7
REMARK    7  A    between atoms: C_9  and  C_10
REMARK    8  A    between atoms: C_17  and  C_18
REMARK    9  A    between atoms: C_21  and  C_22
REMARK                            x       y       z     vdW  Elec       q    Type
REMARK                         _______ _______ _______ _____ _____    ______ ____
ROOT
ATOM      1  C   UNL     1      -4.288  13.220  21.784  0.00  0.00    +0.000 A 
ATOM      2  C   UNL     1      -5.661  12.938  21.643  0.00  0.00    +0.000 A 
ATOM      3  C   UNL     1      -6.731  13.239  22.658  0.00  0.00    +0.000 C 
ATOM      4  N   UNL     1      -6.187  12.390  20.551  0.00  0.00    +0.000 NA
ATOM      5  C   UNL     1      -5.349  12.075  19.558  0.00  0.00    +0.000 A 
ATOM      6  S   UNL     1      -6.012  11.362  18.166  0.00  0.00    +0.000 S 
ATOM      7  C   UNL     1      -4.494  11.239  17.441  0.00  0.00    +0.000 A 
ATOM      8  C   UNL     1      -3.467  11.729  18.237  0.00  0.00    +0.000 A 
ATOM      9  C   UNL     1      -3.964  12.244  19.524  0.00  0.00    +0.000 A 
ATOM     10  C   UNL     1      -3.394  12.851  20.708  0.00  0.00    +0.000 A 
ATOM     11  C   UNL     1      -2.081  11.681  17.646  0.00  0.00    +0.000 C 
ATOM     12  C   UNL     1      -2.016  10.660  16.498  0.00  0.00    +0.000 C 
ATOM     13  O   UNL     1      -3.055  10.918  15.552  0.00  0.00    +0.000 OA
ATOM     14  C   UNL     1      -4.353  10.613  16.087  0.00  0.00    +0.000 C 
ENDROOT
BRANCH  10  15
ATOM     15  C   UNL     1      -1.918  12.990  20.826  0.00  0.00    +0.000 A 
ATOM     16  C   UNL     1      -1.082  11.957  21.284  0.00  0.00    +0.000 A 
ATOM     17  C   UNL     1       0.314  12.045  21.184  0.00  0.00    +0.000 A 
ATOM     18  C   UNL     1       0.915  13.235  20.779  0.00  0.00    +0.000 A 
ATOM     19  C   UNL     1       2.402  13.377  20.676  0.00  0.00    +0.000 C 
ATOM     20  C   UNL     1       0.100  14.318  20.452  0.00  0.00    +0.000 A 
ATOM     21  C   UNL     1      -1.283  14.155  20.377  0.00  0.00    +0.000 A 
ENDBRANCH  10  15
BRANCH   1  22
ATOM     22  C   UNL     1      -3.762  13.877  23.076  0.00  0.00    +0.000 C 
BRANCH  22  23
ATOM     23  C   UNL     1      -3.860  12.935  24.263  0.00  0.00    +0.000 C 
ATOM     24  O   UNL     1      -3.890  11.709  24.198  0.00  0.00    +0.000 OA
BRANCH  23  25
ATOM     25  O   UNL     1      -3.963  13.588  25.448  0.00  0.00    +0.000 OA
ATOM     26  H   UNL     1      -3.445  14.414  25.502  0.00  0.00    +0.000 HD
ENDBRANCH  23  25
ENDBRANCH  22  23
BRANCH  22  27
ATOM     27  C   UNL     1      -4.370  15.289  23.235  0.00  0.00    +0.000 C 
BRANCH  27  29
ATOM     28  C   UNL     1      -3.818  16.793  21.326  0.00  0.00    +0.000 C 
ATOM     29  C   UNL     1      -3.485  16.447  22.776  0.00  0.00    +0.000 C 
ENDBRANCH  27  29
ENDBRANCH  22  27
ENDBRANCH   1  22
TORSDOF 6
ENDMDL
