MODEL 1
REMARK VINA RESULT:      -7.5      0.000      0.000
REMARK  Name = 
REMARK  9 active torsions:
REMARK  status: ('A' for Active; 'I' for Inactive)
REMARK    1  A    between atoms: C_1  and  C_2
REMARK    2  A    between atoms: C_6  and  C_7
REMARK    3  A    between atoms: C_7  and  N_8
REMARK    4  A    between atoms: C_9  and  C_11
REMARK    5  A    between atoms: C_11  and  C_12
REMARK    6  A    between atoms: C_12  and  C_13
REMARK    7  A    between atoms: C_14  and  C_15
REMARK    8  A    between atoms: C_19  and  O_20
REMARK    9  A    between atoms: C_23  and  C_24
REMARK                            x       y       z     vdW  Elec       q    Type
REMARK                         _______ _______ _______ _____ _____    ______ ____
ROOT
ATOM      1  C   UNL     1       2.681   6.333  19.874  0.00  0.00    +0.000 C 
ENDROOT
BRANCH   1   2
ATOM      2  C   UNL     1       2.124   7.689  19.495  0.00  0.00    +0.000 A 
ATOM      3  C   UNL     1       2.477   8.321  18.154  0.00  0.00    +0.000 A 
ATOM      4  C   UNL     1       3.361   7.586  17.169  0.00  0.00    +0.000 C 
ATOM      5  N   UNL     1       2.071   9.494  17.749  0.00  0.00    +0.000 NA
ATOM      6  C   UNL     1       1.279  10.202  18.595  0.00  0.00    +0.000 A 
ATOM      7  C   UNL     1       0.705  11.448  18.466  0.00  0.00    +0.000 A 
ATOM      8  C   UNL     1       0.011  11.623  19.658  0.00  0.00    +0.000 A 
ATOM      9  N   UNL     1       0.104  10.606  20.499  0.00  0.00    +0.000 NA
ATOM     10  N   UNL     1       0.900   9.713  19.849  0.00  0.00    +0.000 N 
ATOM     11  C   UNL     1       1.333   8.451  20.294  0.00  0.00    +0.000 A 
ATOM     12  C   UNL     1       0.869   8.019  21.661  0.00  0.00    +0.000 C 
BRANCH   8  13
ATOM     13  O   UNL     1      -0.725  12.662  20.058  0.00  0.00    +0.000 OA
ATOM     14  H   UNL     1      -1.012  12.525  20.973  0.00  0.00    +0.000 HD
ENDBRANCH   8  13
ENDBRANCH   1   2
BRANCH   1  15
ATOM     15  C   UNL     1       1.739   5.185  19.495  0.00  0.00    +0.000 C 
BRANCH  15  17
ATOM     16  N   UNL     1       3.577   4.163  18.302  0.00  0.00    +0.000 N 
ATOM     17  C   UNL     1       2.218   4.397  18.288  0.00  0.00    +0.000 C 
ATOM     18  O   UNL     1       1.475   3.993  17.399  0.00  0.00    +0.000 OA
ATOM     19  H   UNL     1       4.157   4.624  18.991  0.00  0.00    +0.000 HD
BRANCH  16  20
ATOM     20  C   UNL     1       4.263   3.440  17.246  0.00  0.00    +0.000 C 
BRANCH  20  26
ATOM     21  C   UNL     1       7.545   7.072  17.522  0.00  0.00    +0.000 C 
ATOM     22  C   UNL     1       6.939   5.936  16.759  0.00  0.00    +0.000 A 
ATOM     23  N   UNL     1       7.466   5.652  15.554  0.00  0.00    +0.000 NA
ATOM     24  C   UNL     1       6.910   4.628  14.884  0.00  0.00    +0.000 A 
ATOM     25  C   UNL     1       5.863   3.882  15.371  0.00  0.00    +0.000 A 
ATOM     26  C   UNL     1       5.392   4.231  16.622  0.00  0.00    +0.000 A 
ATOM     27  N   UNL     1       5.911   5.268  17.324  0.00  0.00    +0.000 NA
ENDBRANCH  20  26
ENDBRANCH  16  20
ENDBRANCH  15  17
ENDBRANCH   1  15
TORSDOF 6
ENDMDL
MODEL 2
REMARK VINA RESULT:      -7.3      2.324      8.437
REMARK  Name = 
REMARK  9 active torsions:
REMARK  status: ('A' for Active; 'I' for Inactive)
REMARK    1  A    between atoms: C_1  and  C_2
REMARK    2  A    between atoms: C_6  and  C_7
REMARK    3  A    between atoms: C_7  and  N_8
REMARK    4  A    between atoms: C_9  and  C_11
REMARK    5  A    between atoms: C_11  and  C_12
REMARK    6  A    between atoms: C_12  and  C_13
REMARK    7  A    between atoms: C_14  and  C_15
REMARK    8  A    between atoms: C_19  and  O_20
REMARK    9  A    between atoms: C_23  and  C_24
REMARK                            x       y       z     vdW  Elec       q    Type
REMARK                         _______ _______ _______ _____ _____    ______ ____
ROOT
ATOM      1  C   UNL     1       3.203   7.811  18.137  0.00  0.00    +0.000 C 
ENDROOT
BRANCH   1   2
ATOM      2  C   UNL     1       3.097   6.354  18.537  0.00  0.00    +0.000 A 
ATOM      3  C   UNL     1       2.329   5.952  19.790  0.00  0.00    +0.000 A 
ATOM      4  C   UNL     1       1.632   7.001  20.632  0.00  0.00    +0.000 C 
ATOM      5  N   UNL     1       2.205   4.731  20.233  0.00  0.00    +0.000 NA
ATOM      6  C   UNL     1       2.814   3.748  19.520  0.00  0.00    +0.000 A 
ATOM      7  C   UNL     1       2.874   2.387  19.727  0.00  0.00    +0.000 A 
ATOM      8  C   UNL     1       3.640   1.920  18.663  0.00  0.00    +0.000 A 
ATOM      9  N   UNL     1       4.049   2.862  17.830  0.00  0.00    +0.000 NA
ATOM     10  N   UNL     1       3.545   4.012  18.358  0.00  0.00    +0.000 N 
ATOM     11  C   UNL     1       3.685   5.325  17.874  0.00  0.00    +0.000 A 
ATOM     12  C   UNL     1       4.495   5.499  16.615  0.00  0.00    +0.000 C 
BRANCH   8  13
ATOM     13  O   UNL     1       4.007   0.669  18.376  0.00  0.00    +0.000 OA
ATOM     14  H   UNL     1       3.221   0.109  18.298  0.00  0.00    +0.000 HD
ENDBRANCH   8  13
ENDBRANCH   1   2
BRANCH   1  15
ATOM     15  C   UNL     1       1.896   8.354  17.549  0.00  0.00    +0.000 C 
BRANCH  15  17
ATOM     16  N   UNL     1       0.326   9.869  18.590  0.00  0.00    +0.000 N 
ATOM     17  C   UNL     1       1.575   9.763  18.018  0.00  0.00    +0.000 C 
ATOM     18  O   UNL     1       2.352  10.708  17.918  0.00  0.00    +0.000 OA
ATOM     19  H   UNL     1      -0.318   9.090  18.534  0.00  0.00    +0.000 HD
BRANCH  16  20
ATOM     20  C   UNL     1      -0.203  11.121  19.102  0.00  0.00    +0.000 C 
BRANCH  20  26
ATOM     21  C   UNL     1      -1.262  13.526  23.241  0.00  0.00    +0.000 C 
ATOM     22  C   UNL     1      -0.885  12.254  22.548  0.00  0.00    +0.000 A 
ATOM     23  N   UNL     1      -0.759  11.151  23.310  0.00  0.00    +0.000 NA
ATOM     24  C   UNL     1      -0.422  10.019  22.670  0.00  0.00    +0.000 A 
ATOM     25  C   UNL     1      -0.215   9.946  21.313  0.00  0.00    +0.000 A 
ATOM     26  C   UNL     1      -0.379  11.120  20.605  0.00  0.00    +0.000 A 
ATOM     27  N   UNL     1      -0.701  12.289  21.211  0.00  0.00    +0.000 NA
ENDBRANCH  20  26
ENDBRANCH  16  20
ENDBRANCH  15  17
ENDBRANCH   1  15
TORSDOF 6
ENDMDL
MODEL 3
REMARK VINA RESULT:      -7.2      2.301      8.423
REMARK  Name = 
REMARK  9 active torsions:
REMARK  status: ('A' for Active; 'I' for Inactive)
REMARK    1  A    between atoms: C_1  and  C_2
REMARK    2  A    between atoms: C_6  and  C_7
REMARK    3  A    between atoms: C_7  and  N_8
REMARK    4  A    between atoms: C_9  and  C_11
REMARK    5  A    between atoms: C_11  and  C_12
REMARK    6  A    between atoms: C_12  and  C_13
REMARK    7  A    between atoms: C_14  and  C_15
REMARK    8  A    between atoms: C_19  and  O_20
REMARK    9  A    between atoms: C_23  and  C_24
REMARK                            x       y       z     vdW  Elec       q    Type
REMARK                         _______ _______ _______ _____ _____    ______ ____
ROOT
ATOM      1  C   UNL     1       3.220   7.857  18.165  0.00  0.00    +0.000 C 
ENDROOT
BRANCH   1   2
ATOM      2  C   UNL     1       3.090   6.404  18.573  0.00  0.00    +0.000 A 
ATOM      3  C   UNL     1       2.301   6.020  19.818  0.00  0.00    +0.000 A 
ATOM      4  C   UNL     1       1.606   7.084  20.644  0.00  0.00    +0.000 C 
ATOM      5  N   UNL     1       2.154   4.804  20.267  0.00  0.00    +0.000 NA
ATOM      6  C   UNL     1       2.760   3.808  19.569  0.00  0.00    +0.000 A 
ATOM      7  C   UNL     1       2.800   2.448  19.785  0.00  0.00    +0.000 A 
ATOM      8  C   UNL     1       3.574   1.965  18.735  0.00  0.00    +0.000 A 
ATOM      9  N   UNL     1       4.006   2.896  17.901  0.00  0.00    +0.000 NA
ATOM     10  N   UNL     1       3.510   4.055  18.415  0.00  0.00    +0.000 N 
ATOM     11  C   UNL     1       3.674   5.363  17.925  0.00  0.00    +0.000 A 
ATOM     12  C   UNL     1       4.502   5.519  16.676  0.00  0.00    +0.000 C 
BRANCH   8  13
ATOM     13  O   UNL     1       3.929   0.708  18.461  0.00  0.00    +0.000 OA
ATOM     14  H   UNL     1       3.196   0.109  18.670  0.00  0.00    +0.000 HD
ENDBRANCH   8  13
ENDBRANCH   1   2
BRANCH   1  15
ATOM     15  C   UNL     1       1.927   8.414  17.559  0.00  0.00    +0.000 C 
BRANCH  15  17
ATOM     16  N   UNL     1       0.483  10.058  18.587  0.00  0.00    +0.000 N 
ATOM     17  C   UNL     1       1.678   9.866  17.928  0.00  0.00    +0.000 C 
ATOM     18  O   UNL     1       2.464  10.776  17.682  0.00  0.00    +0.000 OA
ATOM     19  H   UNL     1      -0.181   9.297  18.652  0.00  0.00    +0.000 HD
BRANCH  16  20
ATOM     20  C   UNL     1       0.026  11.364  19.028  0.00  0.00    +0.000 C 
BRANCH  20  26
ATOM     21  C   UNL     1      -0.073   9.473  23.551  0.00  0.00    +0.000 C 
ATOM     22  C   UNL     1      -0.592  10.462  22.554  0.00  0.00    +0.000 A 
ATOM     23  N   UNL     1      -1.537  11.324  22.975  0.00  0.00    +0.000 NA
ATOM     24  C   UNL     1      -1.990  12.204  22.066  0.00  0.00    +0.000 A 
ATOM     25  C   UNL     1      -1.534  12.260  20.770  0.00  0.00    +0.000 A 
ATOM     26  C   UNL     1      -0.554  11.349  20.426  0.00  0.00    +0.000 A 
ATOM     27  N   UNL     1      -0.082  10.432  21.305  0.00  0.00    +0.000 NA
ENDBRANCH  20  26
ENDBRANCH  16  20
ENDBRANCH  15  17
ENDBRANCH   1  15
TORSDOF 6
ENDMDL
MODEL 4
REMARK VINA RESULT:      -7.2      3.085      8.049
REMARK  Name = 
REMARK  9 active torsions:
REMARK  status: ('A' for Active; 'I' for Inactive)
REMARK    1  A    between atoms: C_1  and  C_2
REMARK    2  A    between atoms: C_6  and  C_7
REMARK    3  A    between atoms: C_7  and  N_8
REMARK    4  A    between atoms: C_9  and  C_11
REMARK    5  A    between atoms: C_11  and  C_12
REMARK    6  A    between atoms: C_12  and  C_13
REMARK    7  A    between atoms: C_14  and  C_15
REMARK    8  A    between atoms: C_19  and  O_20
REMARK    9  A    between atoms: C_23  and  C_24
REMARK                            x       y       z     vdW  Elec       q    Type
REMARK                         _______ _______ _______ _____ _____    ______ ____
ROOT
ATOM      1  C   UNL     1       3.315   7.828  18.047  0.00  0.00    +0.000 C 
ENDROOT
BRANCH   1   2
ATOM      2  C   UNL     1       3.252   6.440  18.649  0.00  0.00    +0.000 A 
ATOM      3  C   UNL     1       3.943   5.269  17.962  0.00  0.00    +0.000 A 
ATOM      4  C   UNL     1       4.732   5.484  16.687  0.00  0.00    +0.000 C 
ATOM      5  N   UNL     1       3.924   4.034  18.386  0.00  0.00    +0.000 NA
ATOM      6  C   UNL     1       3.226   3.780  19.524  0.00  0.00    +0.000 A 
ATOM      7  C   UNL     1       3.013   2.604  20.209  0.00  0.00    +0.000 A 
ATOM      8  C   UNL     1       2.225   2.984  21.290  0.00  0.00    +0.000 A 
ATOM      9  N   UNL     1       1.940   4.275  21.331  0.00  0.00    +0.000 NA
ATOM     10  N   UNL     1       2.554   4.784  20.228  0.00  0.00    +0.000 N 
ATOM     11  C   UNL     1       2.570   6.117  19.779  0.00  0.00    +0.000 A 
ATOM     12  C   UNL     1       1.813   7.120  20.610  0.00  0.00    +0.000 C 
BRANCH   8  13
ATOM     13  O   UNL     1       1.729   2.232  22.275  0.00  0.00    +0.000 OA
ATOM     14  H   UNL     1       1.818   1.295  22.046  0.00  0.00    +0.000 HD
ENDBRANCH   8  13
ENDBRANCH   1   2
BRANCH   1  15
ATOM     15  C   UNL     1       2.014   8.220  17.338  0.00  0.00    +0.000 C 
BRANCH  15  17
ATOM     16  N   UNL     1       0.184   9.499  18.265  0.00  0.00    +0.000 N 
ATOM     17  C   UNL     1       1.476   9.567  17.788  0.00  0.00    +0.000 C 
ATOM     18  O   UNL     1       2.126  10.608  17.751  0.00  0.00    +0.000 OA
ATOM     19  H   UNL     1      -0.345   8.644  18.157  0.00  0.00    +0.000 HD
BRANCH  16  20
ATOM     20  C   UNL     1      -0.542  10.664  18.741  0.00  0.00    +0.000 C 
BRANCH  20  26
ATOM     21  C   UNL     1      -3.269  10.169  14.696  0.00  0.00    +0.000 C 
ATOM     22  C   UNL     1      -3.130  10.646  16.109  0.00  0.00    +0.000 A 
ATOM     23  N   UNL     1      -4.206  11.224  16.673  0.00  0.00    +0.000 NA
ATOM     24  C   UNL     1      -4.062  11.645  17.941  0.00  0.00    +0.000 A 
ATOM     25  C   UNL     1      -2.899  11.505  18.660  0.00  0.00    +0.000 A 
ATOM     26  C   UNL     1      -1.848  10.887  18.010  0.00  0.00    +0.000 A 
ATOM     27  N   UNL     1      -1.943  10.464  16.726  0.00  0.00    +0.000 NA
ENDBRANCH  20  26
ENDBRANCH  16  20
ENDBRANCH  15  17
ENDBRANCH   1  15
TORSDOF 6
ENDMDL
MODEL 5
REMARK VINA RESULT:      -7.1      3.046      8.721
REMARK  Name = 
REMARK  9 active torsions:
REMARK  status: ('A' for Active; 'I' for Inactive)
REMARK    1  A    between atoms: C_1  and  C_2
REMARK    2  A    between atoms: C_6  and  C_7
REMARK    3  A    between atoms: C_7  and  N_8
REMARK    4  A    between atoms: C_9  and  C_11
REMARK    5  A    between atoms: C_11  and  C_12
REMARK    6  A    between atoms: C_12  and  C_13
REMARK    7  A    between atoms: C_14  and  C_15
REMARK    8  A    between atoms: C_19  and  O_20
REMARK    9  A    between atoms: C_23  and  C_24
REMARK                            x       y       z     vdW  Elec       q    Type
REMARK                         _______ _______ _______ _____ _____    ______ ____
ROOT
ATOM      1  C   UNL     1       3.072   7.847  18.212  0.00  0.00    +0.000 C 
ENDROOT
BRANCH   1   2
ATOM      2  C   UNL     1       3.003   6.394  18.633  0.00  0.00    +0.000 A 
ATOM      3  C   UNL     1       2.226   5.988  19.879  0.00  0.00    +0.000 A 
ATOM      4  C   UNL     1       1.483   7.027  20.692  0.00  0.00    +0.000 C 
ATOM      5  N   UNL     1       2.130   4.770  20.338  0.00  0.00    +0.000 NA
ATOM      6  C   UNL     1       2.781   3.795  19.651  0.00  0.00    +0.000 A 
ATOM      7  C   UNL     1       2.879   2.440  19.879  0.00  0.00    +0.000 A 
ATOM      8  C   UNL     1       3.676   1.981  18.836  0.00  0.00    +0.000 A 
ATOM      9  N   UNL     1       4.071   2.922  17.995  0.00  0.00    +0.000 NA
ATOM     10  N   UNL     1       3.524   4.064  18.497  0.00  0.00    +0.000 N 
ATOM     11  C   UNL     1       3.633   5.373  17.995  0.00  0.00    +0.000 A 
ATOM     12  C   UNL     1       4.459   5.553  16.748  0.00  0.00    +0.000 C 
BRANCH   8  13
ATOM     13  O   UNL     1       4.086   0.738  18.575  0.00  0.00    +0.000 OA
ATOM     14  H   UNL     1       4.954   0.765  18.145  0.00  0.00    +0.000 HD
ENDBRANCH   8  13
ENDBRANCH   1   2
BRANCH   1  15
ATOM     15  C   UNL     1       1.820   8.297  17.450  0.00  0.00    +0.000 C 
BRANCH  15  17
ATOM     16  N   UNL     1      -0.036   9.793  17.850  0.00  0.00    +0.000 N 
ATOM     17  C   UNL     1       1.337   9.676  17.866  0.00  0.00    +0.000 C 
ATOM     18  O   UNL     1       2.087  10.588  18.200  0.00  0.00    +0.000 OA
ATOM     19  H   UNL     1      -0.597   9.053  17.448  0.00  0.00    +0.000 HD
BRANCH  16  20
ATOM     20  C   UNL     1      -0.726  11.022  18.199  0.00  0.00    +0.000 C 
BRANCH  20  26
ATOM     21  C   UNL     1      -5.480  12.017  18.870  0.00  0.00    +0.000 C 
ATOM     22  C   UNL     1      -4.371  11.562  17.974  0.00  0.00    +0.000 A 
ATOM     23  N   UNL     1      -4.690  11.266  16.700  0.00  0.00    +0.000 NA
ATOM     24  C   UNL     1      -3.681  10.860  15.911  0.00  0.00    +0.000 A 
ATOM     25  C   UNL     1      -2.380  10.748  16.339  0.00  0.00    +0.000 A 
ATOM     26  C   UNL     1      -2.137  11.086  17.656  0.00  0.00    +0.000 A 
ATOM     27  N   UNL     1      -3.127  11.482  18.493  0.00  0.00    +0.000 NA
ENDBRANCH  20  26
ENDBRANCH  16  20
ENDBRANCH  15  17
ENDBRANCH   1  15
TORSDOF 6
ENDMDL
MODEL 6
REMARK VINA RESULT:      -7.1      3.015      8.334
REMARK  Name = 
REMARK  9 active torsions:
REMARK  status: ('A' for Active; 'I' for Inactive)
REMARK    1  A    between atoms: C_1  and  C_2
REMARK    2  A    between atoms: C_6  and  C_7
REMARK    3  A    between atoms: C_7  and  N_8
REMARK    4  A    between atoms: C_9  and  C_11
REMARK    5  A    between atoms: C_11  and  C_12
REMARK    6  A    between atoms: C_12  and  C_13
REMARK    7  A    between atoms: C_14  and  C_15
REMARK    8  A    between atoms: C_19  and  O_20
REMARK    9  A    between atoms: C_23  and  C_24
REMARK                            x       y       z     vdW  Elec       q    Type
REMARK                         _______ _______ _______ _____ _____    ______ ____
ROOT
ATOM      1  C   UNL     1       3.100   7.986  18.554  0.00  0.00    +0.000 C 
ENDROOT
BRANCH   1   2
ATOM      2  C   UNL     1       3.169   6.484  18.370  0.00  0.00    +0.000 A 
ATOM      3  C   UNL     1       3.990   5.882  17.237  0.00  0.00    +0.000 A 
ATOM      4  C   UNL     1       4.776   6.777  16.301  0.00  0.00    +0.000 C 
ATOM      5  N   UNL     1       4.090   4.607  16.980  0.00  0.00    +0.000 NA
ATOM      6  C   UNL     1       3.401   3.756  17.785  0.00  0.00    +0.000 A 
ATOM      7  C   UNL     1       3.296   2.382  17.769  0.00  0.00    +0.000 A 
ATOM      8  C   UNL     1       2.453   2.098  18.837  0.00  0.00    +0.000 A 
ATOM      9  N   UNL     1       2.036   3.162  19.502  0.00  0.00    +0.000 NA
ATOM     10  N   UNL     1       2.616   4.207  18.850  0.00  0.00    +0.000 N 
ATOM     11  C   UNL     1       2.502   5.580  19.134  0.00  0.00    +0.000 A 
ATOM     12  C   UNL     1       1.630   5.959  20.303  0.00  0.00    +0.000 C 
BRANCH   8  13
ATOM     13  O   UNL     1       2.019   0.914  19.274  0.00  0.00    +0.000 OA
ATOM     14  H   UNL     1       1.496   1.036  20.081  0.00  0.00    +0.000 HD
ENDBRANCH   8  13
ENDBRANCH   1   2
BRANCH   1  15
ATOM     15  C   UNL     1       1.961   8.624  17.750  0.00  0.00    +0.000 C 
BRANCH  15  17
ATOM     16  N   UNL     1       0.159  10.232  17.857  0.00  0.00    +0.000 N 
ATOM     17  C   UNL     1       1.043   9.483  18.603  0.00  0.00    +0.000 C 
ATOM     18  O   UNL     1       1.069   9.497  19.830  0.00  0.00    +0.000 OA
ATOM     19  H   UNL     1       0.265  10.277  16.851  0.00  0.00    +0.000 HD
BRANCH  16  20
ATOM     20  C   UNL     1      -0.808  11.136  18.454  0.00  0.00    +0.000 C 
BRANCH  20  26
ATOM     21  C   UNL     1      -3.450  10.114  14.452  0.00  0.00    +0.000 C 
ATOM     22  C   UNL     1      -3.373  10.666  15.842  0.00  0.00    +0.000 A 
ATOM     23  N   UNL     1      -4.516  11.121  16.388  0.00  0.00    +0.000 NA
ATOM     24  C   UNL     1      -4.427  11.611  17.636  0.00  0.00    +0.000 A 
ATOM     25  C   UNL     1      -3.255  11.656  18.353  0.00  0.00    +0.000 A 
ATOM     26  C   UNL     1      -2.133  11.155  17.723  0.00  0.00    +0.000 A 
ATOM     27  N   UNL     1      -2.172  10.668  16.459  0.00  0.00    +0.000 NA
ENDBRANCH  20  26
ENDBRANCH  16  20
ENDBRANCH  15  17
ENDBRANCH   1  15
TORSDOF 6
ENDMDL
MODEL 7
REMARK VINA RESULT:      -7.0      2.437      8.261
REMARK  Name = 
REMARK  9 active torsions:
REMARK  status: ('A' for Active; 'I' for Inactive)
REMARK    1  A    between atoms: C_1  and  C_2
REMARK    2  A    between atoms: C_6  and  C_7
REMARK    3  A    between atoms: C_7  and  N_8
REMARK    4  A    between atoms: C_9  and  C_11
REMARK    5  A    between atoms: C_11  and  C_12
REMARK    6  A    between atoms: C_12  and  C_13
REMARK    7  A    between atoms: C_14  and  C_15
REMARK    8  A    between atoms: C_19  and  O_20
REMARK    9  A    between atoms: C_23  and  C_24
REMARK                            x       y       z     vdW  Elec       q    Type
REMARK                         _______ _______ _______ _____ _____    ______ ____
ROOT
ATOM      1  C   UNL     1       4.960   5.430  18.841  0.00  0.00    +0.000 C 
ENDROOT
BRANCH   1   2
ATOM      2  C   UNL     1       5.598   5.233  17.482  0.00  0.00    +0.000 A 
ATOM      3  C   UNL     1       6.870   5.984  17.110  0.00  0.00    +0.000 A 
ATOM      4  C   UNL     1       7.533   6.912  18.108  0.00  0.00    +0.000 C 
ATOM      5  N   UNL     1       7.479   5.904  15.958  0.00  0.00    +0.000 NA
ATOM      6  C   UNL     1       6.926   5.090  15.021  0.00  0.00    +0.000 A 
ATOM      7  C   UNL     1       7.317   4.802  13.731  0.00  0.00    +0.000 A 
ATOM      8  C   UNL     1       6.353   3.906  13.281  0.00  0.00    +0.000 A 
ATOM      9  N   UNL     1       5.416   3.619  14.170  0.00  0.00    +0.000 NA
ATOM     10  N   UNL     1       5.759   4.359  15.261  0.00  0.00    +0.000 N 
ATOM     11  C   UNL     1       5.097   4.440  16.499  0.00  0.00    +0.000 A 
ATOM     12  C   UNL     1       3.847   3.613  16.653  0.00  0.00    +0.000 C 
BRANCH   8  13
ATOM     13  O   UNL     1       6.251   3.306  12.093  0.00  0.00    +0.000 OA
ATOM     14  H   UNL     1       5.379   3.485  11.712  0.00  0.00    +0.000 HD
ENDBRANCH   8  13
ENDBRANCH   1   2
BRANCH   1  15
ATOM     15  C   UNL     1       3.893   6.530  18.834  0.00  0.00    +0.000 C 
BRANCH  15  17
ATOM     16  N   UNL     1       2.108   7.450  20.181  0.00  0.00    +0.000 N 
ATOM     17  C   UNL     1       2.799   6.300  19.862  0.00  0.00    +0.000 C 
ATOM     18  O   UNL     1       2.540   5.203  20.349  0.00  0.00    +0.000 OA
ATOM     19  H   UNL     1       2.443   8.344  19.846  0.00  0.00    +0.000 HD
BRANCH  16  20
ATOM     20  C   UNL     1       1.025   7.476  21.148  0.00  0.00    +0.000 C 
BRANCH  20  26
ATOM     21  C   UNL     1       0.996  12.291  20.221  0.00  0.00    +0.000 C 
ATOM     22  C   UNL     1       0.593  11.142  21.092  0.00  0.00    +0.000 A 
ATOM     23  N   UNL     1      -0.161  11.421  22.171  0.00  0.00    +0.000 NA
ATOM     24  C   UNL     1      -0.514  10.377  22.940  0.00  0.00    +0.000 A 
ATOM     25  C   UNL     1      -0.151   9.080  22.671  0.00  0.00    +0.000 A 
ATOM     26  C   UNL     1       0.611   8.879  21.536  0.00  0.00    +0.000 A 
ATOM     27  N   UNL     1       1.004   9.905  20.742  0.00  0.00    +0.000 NA
ENDBRANCH  20  26
ENDBRANCH  16  20
ENDBRANCH  15  17
ENDBRANCH   1  15
TORSDOF 6
ENDMDL
MODEL 8
REMARK VINA RESULT:      -6.9      2.771      7.991
REMARK  Name = 
REMARK  9 active torsions:
REMARK  status: ('A' for Active; 'I' for Inactive)
REMARK    1  A    between atoms: C_1  and  C_2
REMARK    2  A    between atoms: C_6  and  C_7
REMARK    3  A    between atoms: C_7  and  N_8
REMARK    4  A    between atoms: C_9  and  C_11
REMARK    5  A    between atoms: C_11  and  C_12
REMARK    6  A    between atoms: C_12  and  C_13
REMARK    7  A    between atoms: C_14  and  C_15
REMARK    8  A    between atoms: C_19  and  O_20
REMARK    9  A    between atoms: C_23  and  C_24
REMARK                            x       y       z     vdW  Elec       q    Type
REMARK                         _______ _______ _______ _____ _____    ______ ____
ROOT
ATOM      1  C   UNL     1       1.066   7.354  20.287  0.00  0.00    +0.000 C 
ENDROOT
BRANCH   1   2
ATOM      2  C   UNL     1       2.191   6.696  19.515  0.00  0.00    +0.000 A 
ATOM      3  C   UNL     1       2.757   5.357  19.969  0.00  0.00    +0.000 A 
ATOM      4  C   UNL     1       2.180   4.650  21.177  0.00  0.00    +0.000 C 
ATOM      5  N   UNL     1       3.742   4.725  19.390  0.00  0.00    +0.000 NA
ATOM      6  C   UNL     1       4.303   5.315  18.303  0.00  0.00    +0.000 A 
ATOM      7  C   UNL     1       5.342   4.913  17.492  0.00  0.00    +0.000 A 
ATOM      8  C   UNL     1       5.450   5.934  16.554  0.00  0.00    +0.000 A 
ATOM      9  N   UNL     1       4.578   6.916  16.713  0.00  0.00    +0.000 NA
ATOM     10  N   UNL     1       3.859   6.545  17.808  0.00  0.00    +0.000 N 
ATOM     11  C   UNL     1       2.799   7.233  18.426  0.00  0.00    +0.000 A 
ATOM     12  C   UNL     1       2.400   8.551  17.814  0.00  0.00    +0.000 C 
BRANCH   8  13
ATOM     13  O   UNL     1       6.300   6.051  15.531  0.00  0.00    +0.000 OA
ATOM     14  H   UNL     1       6.967   5.350  15.581  0.00  0.00    +0.000 HD
ENDBRANCH   8  13
ENDBRANCH   1   2
BRANCH   1  15
ATOM     15  C   UNL     1       1.575   8.389  21.297  0.00  0.00    +0.000 C 
BRANCH  15  17
ATOM     16  N   UNL     1      -0.017   9.791  20.135  0.00  0.00    +0.000 N 
ATOM     17  C   UNL     1       0.820   9.706  21.227  0.00  0.00    +0.000 C 
ATOM     18  O   UNL     1       0.926  10.598  22.064  0.00  0.00    +0.000 OA
ATOM     19  H   UNL     1       0.028   9.082  19.414  0.00  0.00    +0.000 HD
BRANCH  16  20
ATOM     20  C   UNL     1      -0.831  10.960  19.855  0.00  0.00    +0.000 C 
BRANCH  20  26
ATOM     21  C   UNL     1      -5.053  11.937  17.561  0.00  0.00    +0.000 C 
ATOM     22  C   UNL     1      -3.726  11.245  17.582  0.00  0.00    +0.000 A 
ATOM     23  N   UNL     1      -3.395  10.514  16.502  0.00  0.00    +0.000 NA
ATOM     24  C   UNL     1      -2.200   9.901  16.538  0.00  0.00    +0.000 A 
ATOM     25  C   UNL     1      -1.331   9.995  17.599  0.00  0.00    +0.000 A 
ATOM     26  C   UNL     1      -1.742  10.776  18.661  0.00  0.00    +0.000 A 
ATOM     27  N   UNL     1      -2.947  11.398  18.674  0.00  0.00    +0.000 NA
ENDBRANCH  20  26
ENDBRANCH  16  20
ENDBRANCH  15  17
ENDBRANCH   1  15
TORSDOF 6
ENDMDL
MODEL 9
REMARK VINA RESULT:      -6.9      4.823      8.340
REMARK  Name = 
REMARK  9 active torsions:
REMARK  status: ('A' for Active; 'I' for Inactive)
REMARK    1  A    between atoms: C_1  and  C_2
REMARK    2  A    between atoms: C_6  and  C_7
REMARK    3  A    between atoms: C_7  and  N_8
REMARK    4  A    between atoms: C_9  and  C_11
REMARK    5  A    between atoms: C_11  and  C_12
REMARK    6  A    between atoms: C_12  and  C_13
REMARK    7  A    between atoms: C_14  and  C_15
REMARK    8  A    between atoms: C_19  and  O_20
REMARK    9  A    between atoms: C_23  and  C_24
REMARK                            x       y       z     vdW  Elec       q    Type
REMARK                         _______ _______ _______ _____ _____    ______ ____
ROOT
ATOM      1  C   UNL     1       7.693   7.279  17.225  0.00  0.00    +0.000 C 
ENDROOT
BRANCH   1   2
ATOM      2  C   UNL     1       6.711   6.208  17.652  0.00  0.00    +0.000 A 
ATOM      3  C   UNL     1       6.938   5.422  18.937  0.00  0.00    +0.000 A 
ATOM      4  C   UNL     1       8.129   5.726  19.822  0.00  0.00    +0.000 C 
ATOM      5  N   UNL     1       6.167   4.464  19.375  0.00  0.00    +0.000 NA
ATOM      6  C   UNL     1       5.085   4.144  18.619  0.00  0.00    +0.000 A 
ATOM      7  C   UNL     1       4.104   3.194  18.802  0.00  0.00    +0.000 A 
ATOM      8  C   UNL     1       3.276   3.350  17.696  0.00  0.00    +0.000 A 
ATOM      9  N   UNL     1       3.655   4.302  16.860  0.00  0.00    +0.000 NA
ATOM     10  N   UNL     1       4.790   4.803  17.422  0.00  0.00    +0.000 N 
ATOM     11  C   UNL     1       5.615   5.836  16.942  0.00  0.00    +0.000 A 
ATOM     12  C   UNL     1       5.207   6.478  15.641  0.00  0.00    +0.000 C 
BRANCH   8  13
ATOM     13  O   UNL     1       2.167   2.680  17.373  0.00  0.00    +0.000 OA
ATOM     14  H   UNL     1       2.362   1.732  17.328  0.00  0.00    +0.000 HD
ENDBRANCH   8  13
ENDBRANCH   1   2
BRANCH   1  15
ATOM     15  C   UNL     1       7.269   8.680  17.681  0.00  0.00    +0.000 C 
BRANCH  15  17
ATOM     16  N   UNL     1       8.553  10.727  17.634  0.00  0.00    +0.000 N 
ATOM     17  C   UNL     1       8.422   9.496  18.239  0.00  0.00    +0.000 C 
ATOM     18  O   UNL     1       9.153   9.111  19.147  0.00  0.00    +0.000 OA
ATOM     19  H   UNL     1       8.006  10.941  16.810  0.00  0.00    +0.000 HD
BRANCH  16  20
ATOM     20  C   UNL     1       9.592  11.676  17.995  0.00  0.00    +0.000 C 
BRANCH  20  26
ATOM     21  C   UNL     1       5.939  14.942  17.819  0.00  0.00    +0.000 C 
ATOM     22  C   UNL     1       7.407  14.648  17.860  0.00  0.00    +0.000 A 
ATOM     23  N   UNL     1       8.246  15.700  17.881  0.00  0.00    +0.000 NA
ATOM     24  C   UNL     1       9.559  15.416  17.920  0.00  0.00    +0.000 A 
ATOM     25  C   UNL     1      10.058  14.136  17.945  0.00  0.00    +0.000 A 
ATOM     26  C   UNL     1       9.128  13.115  17.935  0.00  0.00    +0.000 A 
ATOM     27  N   UNL     1       7.795  13.355  17.879  0.00  0.00    +0.000 NA
ENDBRANCH  20  26
ENDBRANCH  16  20
ENDBRANCH  15  17
ENDBRANCH   1  15
TORSDOF 6
ENDMDL
