MODEL 1
REMARK VINA RESULT:      -6.3      0.000      0.000
REMARK  Name = 
REMARK  5 active torsions:
REMARK  status: ('A' for Active; 'I' for Inactive)
REMARK    1  A    between atoms: C_1  and  C_2
REMARK    2  A    between atoms: C_2  and  O_3
REMARK    3  A    between atoms: O_3  and  C_4
REMARK    4  A    between atoms: C_4  and  C_5
REMARK    5  A    between atoms: N_10  and  C_11
REMARK                            x       y       z     vdW  Elec       q    Type
REMARK                         _______ _______ _______ _____ _____    ______ ____
ROOT
ATOM      1  C   UNL     1       4.374   6.482  17.363  0.00  0.00    +0.000 C 
ATOM      2  O   UNL     1       3.590   7.432  17.439  0.00  0.00    +0.000 OA
ATOM      3  N   UNL     1       4.182   5.255  18.004  0.00  0.00    +0.000 N 
ATOM      4  C   UNL     1       5.184   4.173  18.075  0.00  0.00    +0.000 C 
ATOM      5  C   UNL     1       4.856   2.920  17.246  0.00  0.00    +0.000 C 
ATOM      6  N   UNL     1       3.645   2.166  17.594  0.00  0.00    +0.000 NA
ATOM      7  C   UNL     1       3.736   1.506  18.893  0.00  0.00    +0.000 C 
ATOM      8  C   UNL     1       2.433   2.978  17.447  0.00  0.00    +0.000 C 
ATOM      9  C   UNL     1       2.184   3.945  18.578  0.00  0.00    +0.000 A 
ATOM     10  C   UNL     1       1.087   3.728  19.431  0.00  0.00    +0.000 A 
ATOM     11  C   UNL     1       0.847   4.575  20.510  0.00  0.00    +0.000 A 
ATOM     12  C   UNL     1       1.681   5.667  20.732  0.00  0.00    +0.000 A 
ATOM     13  C   UNL     1       2.750   5.918  19.870  0.00  0.00    +0.000 A 
ATOM     14  C   UNL     1       3.018   5.054  18.801  0.00  0.00    +0.000 A 
ENDROOT
BRANCH   1  15
ATOM     15  C   UNL     1       5.626   6.623  16.474  0.00  0.00    +0.000 C 
BRANCH  15  16
ATOM     16  O   UNL     1       5.537   6.106  15.154  0.00  0.00    +0.000 OA
BRANCH  16  18
ATOM     17  C   UNL     1       6.029   4.082  13.980  0.00  0.00    +0.000 C 
ATOM     18  C   UNL     1       6.588   5.182  14.862  0.00  0.00    +0.000 C 
ENDBRANCH  16  18
ENDBRANCH  15  16
ENDBRANCH   1  15
TORSDOF 3
ENDMDL
MODEL 2
REMARK VINA RESULT:      -6.3      1.159      1.810
REMARK  Name = 
REMARK  5 active torsions:
REMARK  status: ('A' for Active; 'I' for Inactive)
REMARK    1  A    between atoms: C_1  and  C_2
REMARK    2  A    between atoms: C_2  and  O_3
REMARK    3  A    between atoms: O_3  and  C_4
REMARK    4  A    between atoms: C_4  and  C_5
REMARK    5  A    between atoms: N_10  and  C_11
REMARK                            x       y       z     vdW  Elec       q    Type
REMARK                         _______ _______ _______ _____ _____    ______ ____
ROOT
ATOM      1  C   UNL     1       4.281   6.494  17.319  0.00  0.00    +0.000 C 
ATOM      2  O   UNL     1       3.500   7.440  17.450  0.00  0.00    +0.000 OA
ATOM      3  N   UNL     1       4.118   5.253  17.939  0.00  0.00    +0.000 N 
ATOM      4  C   UNL     1       5.124   4.171  17.943  0.00  0.00    +0.000 C 
ATOM      5  C   UNL     1       4.763   2.937  17.100  0.00  0.00    +0.000 C 
ATOM      6  N   UNL     1       3.568   2.172  17.482  0.00  0.00    +0.000 NA
ATOM      7  C   UNL     1       3.716   1.483  18.762  0.00  0.00    +0.000 C 
ATOM      8  C   UNL     1       2.350   2.985  17.405  0.00  0.00    +0.000 C 
ATOM      9  C   UNL     1       2.149   3.925  18.568  0.00  0.00    +0.000 A 
ATOM     10  C   UNL     1       1.090   3.686  19.462  0.00  0.00    +0.000 A 
ATOM     11  C   UNL     1       0.894   4.508  20.569  0.00  0.00    +0.000 A 
ATOM     12  C   UNL     1       1.735   5.596  20.780  0.00  0.00    +0.000 A 
ATOM     13  C   UNL     1       2.766   5.870  19.879  0.00  0.00    +0.000 A 
ATOM     14  C   UNL     1       2.989   5.030  18.780  0.00  0.00    +0.000 A 
ENDROOT
BRANCH   1  15
ATOM     15  C   UNL     1       5.494   6.657  16.381  0.00  0.00    +0.000 C 
BRANCH  15  16
ATOM     16  O   UNL     1       6.414   7.693  16.696  0.00  0.00    +0.000 OA
BRANCH  16  18
ATOM     17  C   UNL     1       8.235   8.467  18.038  0.00  0.00    +0.000 C 
ATOM     18  C   UNL     1       7.428   7.258  17.604  0.00  0.00    +0.000 C 
ENDBRANCH  16  18
ENDBRANCH  15  16
ENDBRANCH   1  15
TORSDOF 3
ENDMDL
MODEL 3
REMARK VINA RESULT:      -5.9      2.314      3.700
REMARK  Name = 
REMARK  5 active torsions:
REMARK  status: ('A' for Active; 'I' for Inactive)
REMARK    1  A    between atoms: C_1  and  C_2
REMARK    2  A    between atoms: C_2  and  O_3
REMARK    3  A    between atoms: O_3  and  C_4
REMARK    4  A    between atoms: C_4  and  C_5
REMARK    5  A    between atoms: N_10  and  C_11
REMARK                            x       y       z     vdW  Elec       q    Type
REMARK                         _______ _______ _______ _____ _____    ______ ____
ROOT
ATOM      1  C   UNL     1       5.410   4.156  18.610  0.00  0.00    +0.000 C 
ATOM      2  O   UNL     1       5.531   3.238  19.426  0.00  0.00    +0.000 OA
ATOM      3  N   UNL     1       4.205   4.809  18.340  0.00  0.00    +0.000 N 
ATOM      4  C   UNL     1       3.996   5.781  17.248  0.00  0.00    +0.000 C 
ATOM      5  C   UNL     1       3.801   7.239  17.695  0.00  0.00    +0.000 C 
ATOM      6  N   UNL     1       2.635   7.548  18.533  0.00  0.00    +0.000 NA
ATOM      7  C   UNL     1       1.367   7.402  17.824  0.00  0.00    +0.000 C 
ATOM      8  C   UNL     1       2.667   6.819  19.806  0.00  0.00    +0.000 C 
ATOM      9  C   UNL     1       2.247   5.373  19.712  0.00  0.00    +0.000 A 
ATOM     10  C   UNL     1       1.044   4.973  20.321  0.00  0.00    +0.000 A 
ATOM     11  C   UNL     1       0.602   3.656  20.224  0.00  0.00    +0.000 A 
ATOM     12  C   UNL     1       1.370   2.716  19.544  0.00  0.00    +0.000 A 
ATOM     13  C   UNL     1       2.586   3.090  18.969  0.00  0.00    +0.000 A 
ATOM     14  C   UNL     1       3.024   4.419  19.035  0.00  0.00    +0.000 A 
ENDROOT
BRANCH   1  15
ATOM     15  C   UNL     1       6.664   4.656  17.864  0.00  0.00    +0.000 C 
BRANCH  15  16
ATOM     16  O   UNL     1       7.808   4.945  18.654  0.00  0.00    +0.000 OA
BRANCH  16  18
ATOM     17  C   UNL     1       7.489   7.074  17.613  0.00  0.00    +0.000 C 
ATOM     18  C   UNL     1       7.994   6.349  18.846  0.00  0.00    +0.000 C 
ENDBRANCH  16  18
ENDBRANCH  15  16
ENDBRANCH   1  15
TORSDOF 3
ENDMDL
MODEL 4
REMARK VINA RESULT:      -5.9      2.641      5.474
REMARK  Name = 
REMARK  5 active torsions:
REMARK  status: ('A' for Active; 'I' for Inactive)
REMARK    1  A    between atoms: C_1  and  C_2
REMARK    2  A    between atoms: C_2  and  O_3
REMARK    3  A    between atoms: O_3  and  C_4
REMARK    4  A    between atoms: C_4  and  C_5
REMARK    5  A    between atoms: N_10  and  C_11
REMARK                            x       y       z     vdW  Elec       q    Type
REMARK                         _______ _______ _______ _____ _____    ______ ____
ROOT
ATOM      1  C   UNL     1       4.369   3.354  19.623  0.00  0.00    +0.000 C 
ATOM      2  O   UNL     1       5.375   2.657  19.464  0.00  0.00    +0.000 OA
ATOM      3  N   UNL     1       4.306   4.717  19.320  0.00  0.00    +0.000 N 
ATOM      4  C   UNL     1       3.180   5.608  19.665  0.00  0.00    +0.000 C 
ATOM      5  C   UNL     1       2.334   6.087  18.475  0.00  0.00    +0.000 C 
ATOM      6  N   UNL     1       2.996   6.904  17.448  0.00  0.00    +0.000 NA
ATOM      7  C   UNL     1       3.391   8.223  17.935  0.00  0.00    +0.000 C 
ATOM      8  C   UNL     1       4.092   6.180  16.797  0.00  0.00    +0.000 C 
ATOM      9  C   UNL     1       5.367   6.115  17.602  0.00  0.00    +0.000 A 
ATOM     10  C   UNL     1       6.497   6.818  17.145  0.00  0.00    +0.000 A 
ATOM     11  C   UNL     1       7.680   6.815  17.880  0.00  0.00    +0.000 A 
ATOM     12  C   UNL     1       7.759   6.086  19.062  0.00  0.00    +0.000 A 
ATOM     13  C   UNL     1       6.659   5.351  19.507  0.00  0.00    +0.000 A 
ATOM     14  C   UNL     1       5.455   5.373  18.791  0.00  0.00    +0.000 A 
ENDROOT
BRANCH   1  15
ATOM     15  C   UNL     1       3.080   2.689  20.145  0.00  0.00    +0.000 C 
BRANCH  15  16
ATOM     16  O   UNL     1       2.330   1.924  19.212  0.00  0.00    +0.000 OA
BRANCH  16  18
ATOM     17  C   UNL     1       0.604   3.255  20.196  0.00  0.00    +0.000 C 
ATOM     18  C   UNL     1       1.040   2.486  18.963  0.00  0.00    +0.000 C 
ENDBRANCH  16  18
ENDBRANCH  15  16
ENDBRANCH   1  15
TORSDOF 3
ENDMDL
MODEL 5
REMARK VINA RESULT:      -5.8      2.070      5.613
REMARK  Name = 
REMARK  5 active torsions:
REMARK  status: ('A' for Active; 'I' for Inactive)
REMARK    1  A    between atoms: C_1  and  C_2
REMARK    2  A    between atoms: C_2  and  O_3
REMARK    3  A    between atoms: O_3  and  C_4
REMARK    4  A    between atoms: C_4  and  C_5
REMARK    5  A    between atoms: N_10  and  C_11
REMARK                            x       y       z     vdW  Elec       q    Type
REMARK                         _______ _______ _______ _____ _____    ______ ____
ROOT
ATOM      1  C   UNL     1       2.907   3.327  17.569  0.00  0.00    +0.000 C 
ATOM      2  O   UNL     1       2.318   3.234  16.488  0.00  0.00    +0.000 OA
ATOM      3  N   UNL     1       4.220   3.785  17.708  0.00  0.00    +0.000 N 
ATOM      4  C   UNL     1       5.004   3.737  18.959  0.00  0.00    +0.000 C 
ATOM      5  C   UNL     1       5.271   5.100  19.619  0.00  0.00    +0.000 C 
ATOM      6  N   UNL     1       6.060   6.083  18.864  0.00  0.00    +0.000 NA
ATOM      7  C   UNL     1       7.455   5.686  18.693  0.00  0.00    +0.000 C 
ATOM      8  C   UNL     1       5.410   6.455  17.603  0.00  0.00    +0.000 C 
ATOM      9  C   UNL     1       5.566   5.444  16.494  0.00  0.00    +0.000 A 
ATOM     10  C   UNL     1       6.349   5.777  15.375  0.00  0.00    +0.000 A 
ATOM     11  C   UNL     1       6.549   4.857  14.348  0.00  0.00    +0.000 A 
ATOM     12  C   UNL     1       5.946   3.604  14.414  0.00  0.00    +0.000 A 
ATOM     13  C   UNL     1       5.134   3.274  15.500  0.00  0.00    +0.000 A 
ATOM     14  C   UNL     1       4.952   4.182  16.552  0.00  0.00    +0.000 A 
ENDROOT
BRANCH   1  15
ATOM     15  C   UNL     1       2.149   2.960  18.861  0.00  0.00    +0.000 C 
BRANCH  15  16
ATOM     16  O   UNL     1       1.231   3.922  19.361  0.00  0.00    +0.000 OA
BRANCH  16  18
ATOM     17  C   UNL     1       2.127   3.030  21.391  0.00  0.00    +0.000 C 
ATOM     18  C   UNL     1       1.463   4.227  20.738  0.00  0.00    +0.000 C 
ENDBRANCH  16  18
ENDBRANCH  15  16
ENDBRANCH   1  15
TORSDOF 3
ENDMDL
MODEL 6
REMARK VINA RESULT:      -5.8      1.857      3.296
REMARK  Name = 
REMARK  5 active torsions:
REMARK  status: ('A' for Active; 'I' for Inactive)
REMARK    1  A    between atoms: C_1  and  C_2
REMARK    2  A    between atoms: C_2  and  O_3
REMARK    3  A    between atoms: O_3  and  C_4
REMARK    4  A    between atoms: C_4  and  C_5
REMARK    5  A    between atoms: N_10  and  C_11
REMARK                            x       y       z     vdW  Elec       q    Type
REMARK                         _______ _______ _______ _____ _____    ______ ____
ROOT
ATOM      1  C   UNL     1       5.654   4.604  18.467  0.00  0.00    +0.000 C 
ATOM      2  O   UNL     1       5.865   3.666  19.240  0.00  0.00    +0.000 OA
ATOM      3  N   UNL     1       4.391   5.150  18.226  0.00  0.00    +0.000 N 
ATOM      4  C   UNL     1       4.086   6.146  17.179  0.00  0.00    +0.000 C 
ATOM      5  C   UNL     1       3.753   7.557  17.693  0.00  0.00    +0.000 C 
ATOM      6  N   UNL     1       2.565   7.713  18.543  0.00  0.00    +0.000 NA
ATOM      7  C   UNL     1       1.314   7.479  17.827  0.00  0.00    +0.000 C 
ATOM      8  C   UNL     1       2.672   6.934  19.781  0.00  0.00    +0.000 C 
ATOM      9  C   UNL     1       2.392   5.460  19.620  0.00  0.00    +0.000 A 
ATOM     10  C   UNL     1       1.235   4.918  20.209  0.00  0.00    +0.000 A 
ATOM     11  C   UNL     1       0.921   3.571  20.051  0.00  0.00    +0.000 A 
ATOM     12  C   UNL     1       1.774   2.741  19.329  0.00  0.00    +0.000 A 
ATOM     13  C   UNL     1       2.946   3.256  18.773  0.00  0.00    +0.000 A 
ATOM     14  C   UNL     1       3.254   4.617  18.901  0.00  0.00    +0.000 A 
ENDROOT
BRANCH   1  15
ATOM     15  C   UNL     1       6.851   5.256  17.747  0.00  0.00    +0.000 C 
BRANCH  15  16
ATOM     16  O   UNL     1       7.472   4.499  16.718  0.00  0.00    +0.000 OA
BRANCH  16  18
ATOM     17  C   UNL     1       6.133   3.857  14.843  0.00  0.00    +0.000 C 
ATOM     18  C   UNL     1       7.059   4.914  15.414  0.00  0.00    +0.000 C 
ENDBRANCH  16  18
ENDBRANCH  15  16
ENDBRANCH   1  15
TORSDOF 3
ENDMDL
MODEL 7
REMARK VINA RESULT:      -5.6      1.605      2.457
REMARK  Name = 
REMARK  5 active torsions:
REMARK  status: ('A' for Active; 'I' for Inactive)
REMARK    1  A    between atoms: C_1  and  C_2
REMARK    2  A    between atoms: C_2  and  O_3
REMARK    3  A    between atoms: O_3  and  C_4
REMARK    4  A    between atoms: C_4  and  C_5
REMARK    5  A    between atoms: N_10  and  C_11
REMARK                            x       y       z     vdW  Elec       q    Type
REMARK                         _______ _______ _______ _____ _____    ______ ____
ROOT
ATOM      1  C   UNL     1       5.539   5.478  15.787  0.00  0.00    +0.000 C 
ATOM      2  O   UNL     1       5.214   6.374  15.002  0.00  0.00    +0.000 OA
ATOM      3  N   UNL     1       4.921   5.257  17.021  0.00  0.00    +0.000 N 
ATOM      4  C   UNL     1       5.403   4.314  18.050  0.00  0.00    +0.000 C 
ATOM      5  C   UNL     1       4.532   3.064  18.255  0.00  0.00    +0.000 C 
ATOM      6  N   UNL     1       3.151   3.260  18.719  0.00  0.00    +0.000 NA
ATOM      7  C   UNL     1       3.074   3.763  20.088  0.00  0.00    +0.000 C 
ATOM      8  C   UNL     1       2.363   4.054  17.771  0.00  0.00    +0.000 C 
ATOM      9  C   UNL     1       2.619   5.540  17.831  0.00  0.00    +0.000 A 
ATOM     10  C   UNL     1       1.601   6.387  18.304  0.00  0.00    +0.000 A 
ATOM     11  C   UNL     1       1.812   7.760  18.411  0.00  0.00    +0.000 A 
ATOM     12  C   UNL     1       3.031   8.306  18.019  0.00  0.00    +0.000 A 
ATOM     13  C   UNL     1       4.036   7.481  17.511  0.00  0.00    +0.000 A 
ATOM     14  C   UNL     1       3.844   6.096  17.428  0.00  0.00    +0.000 A 
ENDROOT
BRANCH   1  15
ATOM     15  C   UNL     1       6.664   4.506  15.380  0.00  0.00    +0.000 C 
BRANCH  15  16
ATOM     16  O   UNL     1       6.330   3.496  14.439  0.00  0.00    +0.000 OA
BRANCH  16  18
ATOM     17  C   UNL     1       5.587   3.247  12.180  0.00  0.00    +0.000 C 
ATOM     18  C   UNL     1       6.609   3.894  13.094  0.00  0.00    +0.000 C 
ENDBRANCH  16  18
ENDBRANCH  15  16
ENDBRANCH   1  15
TORSDOF 3
ENDMDL
MODEL 8
REMARK VINA RESULT:      -5.6      2.222      4.159
REMARK  Name = 
REMARK  5 active torsions:
REMARK  status: ('A' for Active; 'I' for Inactive)
REMARK    1  A    between atoms: C_1  and  C_2
REMARK    2  A    between atoms: C_2  and  O_3
REMARK    3  A    between atoms: O_3  and  C_4
REMARK    4  A    between atoms: C_4  and  C_5
REMARK    5  A    between atoms: N_10  and  C_11
REMARK                            x       y       z     vdW  Elec       q    Type
REMARK                         _______ _______ _______ _____ _____    ______ ____
ROOT
ATOM      1  C   UNL     1       6.126   4.547  14.780  0.00  0.00    +0.000 C 
ATOM      2  O   UNL     1       7.058   5.335  14.595  0.00  0.00    +0.000 OA
ATOM      3  N   UNL     1       5.649   4.182  16.041  0.00  0.00    +0.000 N 
ATOM      4  C   UNL     1       4.663   3.113  16.295  0.00  0.00    +0.000 C 
ATOM      5  C   UNL     1       3.277   3.595  16.756  0.00  0.00    +0.000 C 
ATOM      6  N   UNL     1       3.194   4.322  18.030  0.00  0.00    +0.000 NA
ATOM      7  C   UNL     1       3.491   3.483  19.188  0.00  0.00    +0.000 C 
ATOM      8  C   UNL     1       3.976   5.562  18.004  0.00  0.00    +0.000 C 
ATOM      9  C   UNL     1       5.462   5.370  18.184  0.00  0.00    +0.000 A 
ATOM     10  C   UNL     1       6.072   5.838  19.362  0.00  0.00    +0.000 A 
ATOM     11  C   UNL     1       7.434   5.646  19.582  0.00  0.00    +0.000 A 
ATOM     12  C   UNL     1       8.208   5.011  18.616  0.00  0.00    +0.000 A 
ATOM     13  C   UNL     1       7.625   4.577  17.425  0.00  0.00    +0.000 A 
ATOM     14  C   UNL     1       6.250   4.738  17.208  0.00  0.00    +0.000 A 
ENDROOT
BRANCH   1  15
ATOM     15  C   UNL     1       5.403   3.952  13.555  0.00  0.00    +0.000 C 
BRANCH  15  16
ATOM     16  O   UNL     1       6.214   3.321  12.575  0.00  0.00    +0.000 OA
BRANCH  16  18
ATOM     17  C   UNL     1       4.160   3.252  11.352  0.00  0.00    +0.000 C 
ATOM     18  C   UNL     1       5.449   2.519  11.673  0.00  0.00    +0.000 C 
ENDBRANCH  16  18
ENDBRANCH  15  16
ENDBRANCH   1  15
TORSDOF 3
ENDMDL
MODEL 9
REMARK VINA RESULT:      -5.5      2.243      3.506
REMARK  Name = 
REMARK  5 active torsions:
REMARK  status: ('A' for Active; 'I' for Inactive)
REMARK    1  A    between atoms: C_1  and  C_2
REMARK    2  A    between atoms: C_2  and  O_3
REMARK    3  A    between atoms: O_3  and  C_4
REMARK    4  A    between atoms: C_4  and  C_5
REMARK    5  A    between atoms: N_10  and  C_11
REMARK                            x       y       z     vdW  Elec       q    Type
REMARK                         _______ _______ _______ _____ _____    ______ ____
ROOT
ATOM      1  C   UNL     1       2.520   6.950  19.077  0.00  0.00    +0.000 C 
ATOM      2  O   UNL     1       1.637   7.283  19.872  0.00  0.00    +0.000 OA
ATOM      3  N   UNL     1       2.992   5.643  18.934  0.00  0.00    +0.000 N 
ATOM      4  C   UNL     1       4.164   5.251  18.124  0.00  0.00    +0.000 C 
ATOM      5  C   UNL     1       3.843   4.459  16.846  0.00  0.00    +0.000 C 
ATOM      6  N   UNL     1       3.192   3.151  16.997  0.00  0.00    +0.000 NA
ATOM      7  C   UNL     1       4.056   2.151  17.620  0.00  0.00    +0.000 C 
ATOM      8  C   UNL     1       1.882   3.263  17.647  0.00  0.00    +0.000 C 
ATOM      9  C   UNL     1       1.938   3.434  19.145  0.00  0.00    +0.000 A 
ATOM     10  C   UNL     1       1.473   2.392  19.967  0.00  0.00    +0.000 A 
ATOM     11  C   UNL     1       1.543   2.496  21.354  0.00  0.00    +0.000 A 
ATOM     12  C   UNL     1       2.050   3.654  21.937  0.00  0.00    +0.000 A 
ATOM     13  C   UNL     1       2.478   4.712  21.134  0.00  0.00    +0.000 A 
ATOM     14  C   UNL     1       2.440   4.604  19.738  0.00  0.00    +0.000 A 
ENDROOT
BRANCH   1  15
ATOM     15  C   UNL     1       3.120   8.021  18.144  0.00  0.00    +0.000 C 
BRANCH  15  16
ATOM     16  O   UNL     1       2.208   8.755  17.340  0.00  0.00    +0.000 OA
BRANCH  16  18
ATOM     17  C   UNL     1       0.396  10.026  18.245  0.00  0.00    +0.000 C 
ATOM     18  C   UNL     1       1.877  10.021  17.914  0.00  0.00    +0.000 C 
ENDBRANCH  16  18
ENDBRANCH  15  16
ENDBRANCH   1  15
TORSDOF 3
ENDMDL
