MODEL 1
REMARK VINA RESULT:      -8.1      0.000      0.000
REMARK  Name = 
REMARK  9 active torsions:
REMARK  status: ('A' for Active; 'I' for Inactive)
REMARK    1  A    between atoms: C_1  and  C_2
REMARK    2  A    between atoms: C_2  and  O_3
REMARK    3  A    between atoms: O_3  and  C_4
REMARK    4  A    between atoms: C_4  and  C_6
REMARK    5  A    between atoms: C_11  and  N_12
REMARK    6  A    between atoms: N_12  and  C_13
REMARK    7  A    between atoms: N_12  and  C_14
REMARK    8  A    between atoms: C_14  and  C_15
REMARK    9  A    between atoms: C_15  and  C_16
REMARK                            x       y       z     vdW  Elec       q    Type
REMARK                         _______ _______ _______ _____ _____    ______ ____
ROOT
ATOM      1  C   UNL     1       3.249   7.238  17.866  0.00  0.00    +0.000 C 
ATOM      2  C   UNL     1       3.499   5.916  17.695  0.00  0.00    +0.000 C 
ATOM      3  C   UNL     1       4.752   5.581  16.996  0.00  0.00    +0.000 A 
ATOM      4  C   UNL     1       4.904   6.040  15.672  0.00  0.00    +0.000 A 
ATOM      5  C   UNL     1       6.054   5.756  14.946  0.00  0.00    +0.000 A 
ATOM      6  C   UNL     1       7.062   5.002  15.531  0.00  0.00    +0.000 A 
ATOM      7  C   UNL     1       6.915   4.525  16.837  0.00  0.00    +0.000 A 
ATOM      8  C   UNL     1       5.761   4.801  17.597  0.00  0.00    +0.000 A 
ATOM      9  C   UNL     1       5.698   4.191  18.989  0.00  0.00    +0.000 C 
ATOM     10  C   UNL     1       4.574   4.579  19.972  0.00  0.00    +0.000 C 
ATOM     11  C   UNL     1       3.203   4.203  19.463  0.00  0.00    +0.000 A 
ATOM     12  C   UNL     1       2.467   3.168  20.069  0.00  0.00    +0.000 A 
ATOM     13  C   UNL     1       1.254   2.755  19.516  0.00  0.00    +0.000 A 
ATOM     14  C   UNL     1       0.770   3.361  18.359  0.00  0.00    +0.000 A 
ATOM     15  C   UNL     1       1.482   4.412  17.768  0.00  0.00    +0.000 A 
ATOM     16  C   UNL     1       2.686   4.851  18.329  0.00  0.00    +0.000 A 
ENDROOT
BRANCH   1  17
ATOM     17  C   UNL     1       2.092   7.871  18.581  0.00  0.00    +0.000 C 
BRANCH  17  18
ATOM     18  C   UNL     1       1.715   9.253  18.001  0.00  0.00    +0.000 C 
BRANCH  18  19
ATOM     19  N   UNL     1       0.684  10.055  18.713  0.00  0.00    +0.000 NA
ATOM     20  C   UNL     1      -0.583   9.912  17.966  0.00  0.00    +0.000 C 
BRANCH  19  26
ATOM     21  C   UNL     1       1.334  11.865  20.425  0.00  0.00    +0.000 C 
ATOM     22  C   UNL     1       1.665  13.345  20.643  0.00  0.00    +0.000 C 
ATOM     23  C   UNL     1       0.608  14.274  20.086  0.00  0.00    +0.000 C 
ATOM     24  C   UNL     1       0.335  13.958  18.626  0.00  0.00    +0.000 C 
ATOM     25  C   UNL     1      -0.047  12.493  18.408  0.00  0.00    +0.000 C 
ATOM     26  C   UNL     1       1.031  11.498  18.944  0.00  0.00    +0.000 C 
BRANCH  21  27
ATOM     27  C   UNL     1       0.219  11.407  21.374  0.00  0.00    +0.000 C 
ATOM     28  O   UNL     1      -0.929  11.829  21.382  0.00  0.00    +0.000 OA
BRANCH  27  29
ATOM     29  O   UNL     1       0.695  10.493  22.275  0.00  0.00    +0.000 OA
BRANCH  29  31
ATOM     30  C   UNL     1      -0.413   8.375  21.783  0.00  0.00    +0.000 C 
ATOM     31  C   UNL     1      -0.272   9.539  22.745  0.00  0.00    +0.000 C 
ENDBRANCH  29  31
ENDBRANCH  27  29
ENDBRANCH  21  27
ENDBRANCH  19  26
ENDBRANCH  18  19
ENDBRANCH  17  18
ENDBRANCH   1  17
TORSDOF 7
ENDMDL
MODEL 2
REMARK VINA RESULT:      -8.1      1.647      4.368
REMARK  Name = 
REMARK  9 active torsions:
REMARK  status: ('A' for Active; 'I' for Inactive)
REMARK    1  A    between atoms: C_1  and  C_2
REMARK    2  A    between atoms: C_2  and  O_3
REMARK    3  A    between atoms: O_3  and  C_4
REMARK    4  A    between atoms: C_4  and  C_6
REMARK    5  A    between atoms: C_11  and  N_12
REMARK    6  A    between atoms: N_12  and  C_13
REMARK    7  A    between atoms: N_12  and  C_14
REMARK    8  A    between atoms: C_14  and  C_15
REMARK    9  A    between atoms: C_15  and  C_16
REMARK                            x       y       z     vdW  Elec       q    Type
REMARK                         _______ _______ _______ _____ _____    ______ ____
ROOT
ATOM      1  C   UNL     1       2.610   6.654  18.655  0.00  0.00    +0.000 C 
ATOM      2  C   UNL     1       3.369   5.537  18.776  0.00  0.00    +0.000 C 
ATOM      3  C   UNL     1       2.760   4.419  19.517  0.00  0.00    +0.000 A 
ATOM      4  C   UNL     1       2.418   4.640  20.867  0.00  0.00    +0.000 A 
ATOM      5  C   UNL     1       1.848   3.631  21.633  0.00  0.00    +0.000 A 
ATOM      6  C   UNL     1       1.621   2.386  21.063  0.00  0.00    +0.000 A 
ATOM      7  C   UNL     1       1.973   2.149  19.730  0.00  0.00    +0.000 A 
ATOM      8  C   UNL     1       2.549   3.155  18.929  0.00  0.00    +0.000 A 
ATOM      9  C   UNL     1       2.928   2.764  17.509  0.00  0.00    +0.000 C 
ATOM     10  C   UNL     1       3.390   3.830  16.493  0.00  0.00    +0.000 C 
ATOM     11  C   UNL     1       4.662   4.524  16.919  0.00  0.00    +0.000 A 
ATOM     12  C   UNL     1       5.869   4.303  16.230  0.00  0.00    +0.000 A 
ATOM     13  C   UNL     1       7.057   4.861  16.705  0.00  0.00    +0.000 A 
ATOM     14  C   UNL     1       7.054   5.633  17.865  0.00  0.00    +0.000 A 
ATOM     15  C   UNL     1       5.851   5.882  18.537  0.00  0.00    +0.000 A 
ATOM     16  C   UNL     1       4.651   5.349  18.055  0.00  0.00    +0.000 A 
ENDROOT
BRANCH   1  17
ATOM     17  C   UNL     1       2.941   7.917  17.915  0.00  0.00    +0.000 C 
BRANCH  17  18
ATOM     18  C   UNL     1       1.737   8.880  17.811  0.00  0.00    +0.000 C 
BRANCH  18  19
ATOM     19  N   UNL     1       1.476   9.802  18.950  0.00  0.00    +0.000 NA
ATOM     20  C   UNL     1       1.158   8.970  20.129  0.00  0.00    +0.000 C 
BRANCH  19  26
ATOM     21  C   UNL     1       0.946  12.312  18.748  0.00  0.00    +0.000 C 
ATOM     22  C   UNL     1      -0.145  13.365  18.521  0.00  0.00    +0.000 C 
ATOM     23  C   UNL     1      -1.320  13.209  19.463  0.00  0.00    +0.000 C 
ATOM     24  C   UNL     1      -1.868  11.795  19.402  0.00  0.00    +0.000 C 
ATOM     25  C   UNL     1      -0.795  10.739  19.679  0.00  0.00    +0.000 C 
ATOM     26  C   UNL     1       0.425  10.848  18.710  0.00  0.00    +0.000 C 
BRANCH  21  27
ATOM     27  C   UNL     1       1.739  12.612  20.025  0.00  0.00    +0.000 C 
ATOM     28  O   UNL     1       1.434  12.257  21.155  0.00  0.00    +0.000 OA
BRANCH  27  29
ATOM     29  O   UNL     1       2.823  13.399  19.749  0.00  0.00    +0.000 OA
BRANCH  29  31
ATOM     30  C   UNL     1       2.254  15.674  20.424  0.00  0.00    +0.000 C 
ATOM     31  C   UNL     1       3.085  14.438  20.708  0.00  0.00    +0.000 C 
ENDBRANCH  29  31
ENDBRANCH  27  29
ENDBRANCH  21  27
ENDBRANCH  19  26
ENDBRANCH  18  19
ENDBRANCH  17  18
ENDBRANCH   1  17
TORSDOF 7
ENDMDL
MODEL 3
REMARK VINA RESULT:      -8.1      3.184      9.061
REMARK  Name = 
REMARK  9 active torsions:
REMARK  status: ('A' for Active; 'I' for Inactive)
REMARK    1  A    between atoms: C_1  and  C_2
REMARK    2  A    between atoms: C_2  and  O_3
REMARK    3  A    between atoms: O_3  and  C_4
REMARK    4  A    between atoms: C_4  and  C_6
REMARK    5  A    between atoms: C_11  and  N_12
REMARK    6  A    between atoms: N_12  and  C_13
REMARK    7  A    between atoms: N_12  and  C_14
REMARK    8  A    between atoms: C_14  and  C_15
REMARK    9  A    between atoms: C_15  and  C_16
REMARK                            x       y       z     vdW  Elec       q    Type
REMARK                         _______ _______ _______ _____ _____    ______ ____
ROOT
ATOM      1  C   UNL     1       0.603   9.078  18.642  0.00  0.00    +0.000 C 
ATOM      2  C   UNL     1       0.247  10.382  18.529  0.00  0.00    +0.000 C 
ATOM      3  C   UNL     1      -1.169  10.641  18.220  0.00  0.00    +0.000 A 
ATOM      4  C   UNL     1      -1.676  10.136  17.005  0.00  0.00    +0.000 A 
ATOM      5  C   UNL     1      -3.000  10.347  16.640  0.00  0.00    +0.000 A 
ATOM      6  C   UNL     1      -3.831  11.075  17.480  0.00  0.00    +0.000 A 
ATOM      7  C   UNL     1      -3.336  11.597  18.679  0.00  0.00    +0.000 A 
ATOM      8  C   UNL     1      -1.999  11.395  19.075  0.00  0.00    +0.000 A 
ATOM      9  C   UNL     1      -1.566  12.050  20.378  0.00  0.00    +0.000 C 
ATOM     10  C   UNL     1      -0.187  11.741  20.998  0.00  0.00    +0.000 C 
ATOM     11  C   UNL     1       0.956  12.160  20.105  0.00  0.00    +0.000 A 
ATOM     12  C   UNL     1       1.784  13.244  20.454  0.00  0.00    +0.000 A 
ATOM     13  C   UNL     1       2.763  13.691  19.565  0.00  0.00    +0.000 A 
ATOM     14  C   UNL     1       2.920  13.072  18.327  0.00  0.00    +0.000 A 
ATOM     15  C   UNL     1       2.121  11.973  17.987  0.00  0.00    +0.000 A 
ATOM     16  C   UNL     1       1.155  11.500  18.882  0.00  0.00    +0.000 A 
ENDROOT
BRANCH   1  17
ATOM     17  C   UNL     1       1.948   8.518  19.001  0.00  0.00    +0.000 C 
BRANCH  17  18
ATOM     18  C   UNL     1       2.757   8.071  17.763  0.00  0.00    +0.000 C 
BRANCH  18  19
ATOM     19  N   UNL     1       3.347   6.705  17.767  0.00  0.00    +0.000 NA
ATOM     20  C   UNL     1       2.544   5.878  18.692  0.00  0.00    +0.000 C 
BRANCH  19  26
ATOM     21  C   UNL     1       5.746   6.537  16.849  0.00  0.00    +0.000 C 
ATOM     22  C   UNL     1       7.235   6.443  17.199  0.00  0.00    +0.000 C 
ATOM     23  C   UNL     1       7.544   5.321  18.168  0.00  0.00    +0.000 C 
ATOM     24  C   UNL     1       6.671   5.429  19.405  0.00  0.00    +0.000 C 
ATOM     25  C   UNL     1       5.180   5.471  19.066  0.00  0.00    +0.000 C 
ATOM     26  C   UNL     1       4.813   6.633  18.089  0.00  0.00    +0.000 C 
BRANCH  21  27
ATOM     27  C   UNL     1       5.334   5.405  15.900  0.00  0.00    +0.000 C 
ATOM     28  O   UNL     1       4.668   4.425  16.204  0.00  0.00    +0.000 OA
BRANCH  27  29
ATOM     29  O   UNL     1       5.870   5.596  14.656  0.00  0.00    +0.000 OA
BRANCH  29  31
ATOM     30  C   UNL     1       6.116   3.724  13.110  0.00  0.00    +0.000 C 
ATOM     31  C   UNL     1       6.755   4.555  14.205  0.00  0.00    +0.000 C 
ENDBRANCH  29  31
ENDBRANCH  27  29
ENDBRANCH  21  27
ENDBRANCH  19  26
ENDBRANCH  18  19
ENDBRANCH  17  18
ENDBRANCH   1  17
TORSDOF 7
ENDMDL
MODEL 4
REMARK VINA RESULT:      -8.0      3.006      8.919
REMARK  Name = 
REMARK  9 active torsions:
REMARK  status: ('A' for Active; 'I' for Inactive)
REMARK    1  A    between atoms: C_1  and  C_2
REMARK    2  A    between atoms: C_2  and  O_3
REMARK    3  A    between atoms: O_3  and  C_4
REMARK    4  A    between atoms: C_4  and  C_6
REMARK    5  A    between atoms: C_11  and  N_12
REMARK    6  A    between atoms: N_12  and  C_13
REMARK    7  A    between atoms: N_12  and  C_14
REMARK    8  A    between atoms: C_14  and  C_15
REMARK    9  A    between atoms: C_15  and  C_16
REMARK                            x       y       z     vdW  Elec       q    Type
REMARK                         _______ _______ _______ _____ _____    ______ ____
ROOT
ATOM      1  C   UNL     1       0.792   9.273  18.406  0.00  0.00    +0.000 C 
ATOM      2  C   UNL     1       0.381  10.565  18.454  0.00  0.00    +0.000 C 
ATOM      3  C   UNL     1      -1.063  10.791  18.276  0.00  0.00    +0.000 A 
ATOM      4  C   UNL     1      -1.642  10.388  17.056  0.00  0.00    +0.000 A 
ATOM      5  C   UNL     1      -2.997  10.576  16.812  0.00  0.00    +0.000 A 
ATOM      6  C   UNL     1      -3.787  11.180  17.780  0.00  0.00    +0.000 A 
ATOM      7  C   UNL     1      -3.221  11.600  18.987  0.00  0.00    +0.000 A 
ATOM      8  C   UNL     1      -1.851  11.418  19.263  0.00  0.00    +0.000 A 
ATOM      9  C   UNL     1      -1.344  11.958  20.591  0.00  0.00    +0.000 C 
ATOM     10  C   UNL     1       0.089  11.649  21.074  0.00  0.00    +0.000 C 
ATOM     11  C   UNL     1       1.144  12.206  20.149  0.00  0.00    +0.000 A 
ATOM     12  C   UNL     1       1.956  13.284  20.546  0.00  0.00    +0.000 A 
ATOM     13  C   UNL     1       2.847  13.861  19.639  0.00  0.00    +0.000 A 
ATOM     14  C   UNL     1       2.932  13.375  18.336  0.00  0.00    +0.000 A 
ATOM     15  C   UNL     1       2.150  12.282  17.944  0.00  0.00    +0.000 A 
ATOM     16  C   UNL     1       1.272  11.681  18.853  0.00  0.00    +0.000 A 
ENDROOT
BRANCH   1  17
ATOM     17  C   UNL     1       2.180   8.739  18.607  0.00  0.00    +0.000 C 
BRANCH  17  18
ATOM     18  C   UNL     1       2.210   7.476  19.497  0.00  0.00    +0.000 C 
BRANCH  18  19
ATOM     19  N   UNL     1       3.026   6.318  19.042  0.00  0.00    +0.000 NA
ATOM     20  C   UNL     1       3.273   6.490  17.595  0.00  0.00    +0.000 C 
BRANCH  19  26
ATOM     21  C   UNL     1       3.497   3.908  19.815  0.00  0.00    +0.000 C 
ATOM     22  C   UNL     1       2.898   2.527  20.103  0.00  0.00    +0.000 C 
ATOM     23  C   UNL     1       2.094   1.980  18.943  0.00  0.00    +0.000 C 
ATOM     24  C   UNL     1       1.040   2.981  18.506  0.00  0.00    +0.000 C 
ATOM     25  C   UNL     1       1.637   4.349  18.167  0.00  0.00    +0.000 C 
ATOM     26  C   UNL     1       2.454   4.962  19.348  0.00  0.00    +0.000 C 
BRANCH  21  27
ATOM     27  C   UNL     1       4.684   3.801  18.850  0.00  0.00    +0.000 C 
ATOM     28  O   UNL     1       4.623   3.445  17.681  0.00  0.00    +0.000 OA
BRANCH  27  29
ATOM     29  O   UNL     1       5.857   4.096  19.489  0.00  0.00    +0.000 OA
BRANCH  29  31
ATOM     30  C   UNL     1       7.565   5.125  18.081  0.00  0.00    +0.000 C 
ATOM     31  C   UNL     1       6.467   5.340  19.104  0.00  0.00    +0.000 C 
ENDBRANCH  29  31
ENDBRANCH  27  29
ENDBRANCH  21  27
ENDBRANCH  19  26
ENDBRANCH  18  19
ENDBRANCH  17  18
ENDBRANCH   1  17
TORSDOF 7
ENDMDL
MODEL 5
REMARK VINA RESULT:      -7.9      1.811      4.462
REMARK  Name = 
REMARK  9 active torsions:
REMARK  status: ('A' for Active; 'I' for Inactive)
REMARK    1  A    between atoms: C_1  and  C_2
REMARK    2  A    between atoms: C_2  and  O_3
REMARK    3  A    between atoms: O_3  and  C_4
REMARK    4  A    between atoms: C_4  and  C_6
REMARK    5  A    between atoms: C_11  and  N_12
REMARK    6  A    between atoms: N_12  and  C_13
REMARK    7  A    between atoms: N_12  and  C_14
REMARK    8  A    between atoms: C_14  and  C_15
REMARK    9  A    between atoms: C_15  and  C_16
REMARK                            x       y       z     vdW  Elec       q    Type
REMARK                         _______ _______ _______ _____ _____    ______ ____
ROOT
ATOM      1  C   UNL     1       2.532   6.662  18.741  0.00  0.00    +0.000 C 
ATOM      2  C   UNL     1       3.309   5.553  18.811  0.00  0.00    +0.000 C 
ATOM      3  C   UNL     1       2.754   4.423  19.577  0.00  0.00    +0.000 A 
ATOM      4  C   UNL     1       2.487   4.631  20.946  0.00  0.00    +0.000 A 
ATOM      5  C   UNL     1       1.972   3.610  21.735  0.00  0.00    +0.000 A 
ATOM      6  C   UNL     1       1.727   2.367  21.169  0.00  0.00    +0.000 A 
ATOM      7  C   UNL     1       2.005   2.143  19.817  0.00  0.00    +0.000 A 
ATOM      8  C   UNL     1       2.524   3.161  18.992  0.00  0.00    +0.000 A 
ATOM      9  C   UNL     1       2.827   2.784  17.550  0.00  0.00    +0.000 C 
ATOM     10  C   UNL     1       3.219   3.861  16.517  0.00  0.00    +0.000 C 
ATOM     11  C   UNL     1       4.505   4.566  16.876  0.00  0.00    +0.000 A 
ATOM     12  C   UNL     1       5.674   4.364  16.119  0.00  0.00    +0.000 A 
ATOM     13  C   UNL     1       6.881   4.931  16.530  0.00  0.00    +0.000 A 
ATOM     14  C   UNL     1       6.935   5.695  17.694  0.00  0.00    +0.000 A 
ATOM     15  C   UNL     1       5.770   5.926  18.434  0.00  0.00    +0.000 A 
ATOM     16  C   UNL     1       4.549   5.383  18.017  0.00  0.00    +0.000 A 
ENDROOT
BRANCH   1  17
ATOM     17  C   UNL     1       2.808   7.934  17.993  0.00  0.00    +0.000 C 
BRANCH  17  18
ATOM     18  C   UNL     1       1.520   8.719  17.658  0.00  0.00    +0.000 C 
BRANCH  18  19
ATOM     19  N   UNL     1       1.506  10.185  17.916  0.00  0.00    +0.000 NA
ATOM     20  C   UNL     1       2.876  10.688  17.688  0.00  0.00    +0.000 C 
BRANCH  19  26
ATOM     21  C   UNL     1      -0.534  10.323  19.479  0.00  0.00    +0.000 C 
ATOM     22  C   UNL     1      -1.057  10.774  20.848  0.00  0.00    +0.000 C 
ATOM     23  C   UNL     1      -0.748  12.225  21.148  0.00  0.00    +0.000 C 
ATOM     24  C   UNL     1       0.735  12.501  20.983  0.00  0.00    +0.000 C 
ATOM     25  C   UNL     1       1.253  12.101  19.599  0.00  0.00    +0.000 C 
ATOM     26  C   UNL     1       0.979  10.601  19.260  0.00  0.00    +0.000 C 
BRANCH  21  27
ATOM     27  C   UNL     1      -1.398  10.895  18.348  0.00  0.00    +0.000 C 
ATOM     28  O   UNL     1      -1.700  12.071  18.206  0.00  0.00    +0.000 OA
BRANCH  27  29
ATOM     29  O   UNL     1      -1.854   9.894  17.534  0.00  0.00    +0.000 OA
BRANCH  29  31
ATOM     30  C   UNL     1      -2.837  10.210  15.323  0.00  0.00    +0.000 C 
ATOM     31  C   UNL     1      -3.067  10.192  16.821  0.00  0.00    +0.000 C 
ENDBRANCH  29  31
ENDBRANCH  27  29
ENDBRANCH  21  27
ENDBRANCH  19  26
ENDBRANCH  18  19
ENDBRANCH  17  18
ENDBRANCH   1  17
TORSDOF 7
ENDMDL
MODEL 6
REMARK VINA RESULT:      -7.9      1.395      2.504
REMARK  Name = 
REMARK  9 active torsions:
REMARK  status: ('A' for Active; 'I' for Inactive)
REMARK    1  A    between atoms: C_1  and  C_2
REMARK    2  A    between atoms: C_2  and  O_3
REMARK    3  A    between atoms: O_3  and  C_4
REMARK    4  A    between atoms: C_4  and  C_6
REMARK    5  A    between atoms: C_11  and  N_12
REMARK    6  A    between atoms: N_12  and  C_13
REMARK    7  A    between atoms: N_12  and  C_14
REMARK    8  A    between atoms: C_14  and  C_15
REMARK    9  A    between atoms: C_15  and  C_16
REMARK                            x       y       z     vdW  Elec       q    Type
REMARK                         _______ _______ _______ _____ _____    ______ ____
ROOT
ATOM      1  C   UNL     1       3.247   6.999  17.476  0.00  0.00    +0.000 C 
ATOM      2  C   UNL     1       3.601   5.690  17.476  0.00  0.00    +0.000 C 
ATOM      3  C   UNL     1       4.889   5.369  16.838  0.00  0.00    +0.000 A 
ATOM      4  C   UNL     1       5.032   5.668  15.468  0.00  0.00    +0.000 A 
ATOM      5  C   UNL     1       6.214   5.386  14.794  0.00  0.00    +0.000 A 
ATOM      6  C   UNL     1       7.264   4.792  15.480  0.00  0.00    +0.000 A 
ATOM      7  C   UNL     1       7.128   4.473  16.835  0.00  0.00    +0.000 A 
ATOM      8  C   UNL     1       5.943   4.751  17.543  0.00  0.00    +0.000 A 
ATOM      9  C   UNL     1       5.899   4.318  19.000  0.00  0.00    +0.000 C 
ATOM     10  C   UNL     1       4.730   4.737  19.915  0.00  0.00    +0.000 C 
ATOM     11  C   UNL     1       3.402   4.194  19.444  0.00  0.00    +0.000 A 
ATOM     12  C   UNL     1       2.735   3.189  20.169  0.00  0.00    +0.000 A 
ATOM     13  C   UNL     1       1.568   2.617  19.661  0.00  0.00    +0.000 A 
ATOM     14  C   UNL     1       1.062   3.034  18.432  0.00  0.00    +0.000 A 
ATOM     15  C   UNL     1       1.703   4.055  17.720  0.00  0.00    +0.000 A 
ATOM     16  C   UNL     1       2.859   4.653  18.233  0.00  0.00    +0.000 A 
ENDROOT
BRANCH   1  17
ATOM     17  C   UNL     1       2.032   7.625  18.095  0.00  0.00    +0.000 C 
BRANCH  17  18
ATOM     18  C   UNL     1       2.000   9.161  17.926  0.00  0.00    +0.000 C 
BRANCH  18  19
ATOM     19  N   UNL     1       1.563   9.984  19.086  0.00  0.00    +0.000 NA
ATOM     20  C   UNL     1       1.182   9.056  20.171  0.00  0.00    +0.000 C 
BRANCH  19  26
ATOM     21  C   UNL     1       0.934  12.464  18.800  0.00  0.00    +0.000 C 
ATOM     22  C   UNL     1      -0.195  13.464  18.527  0.00  0.00    +0.000 C 
ATOM     23  C   UNL     1      -1.376  13.289  19.458  0.00  0.00    +0.000 C 
ATOM     24  C   UNL     1      -1.865  11.852  19.435  0.00  0.00    +0.000 C 
ATOM     25  C   UNL     1      -0.754  10.850  19.757  0.00  0.00    +0.000 C 
ATOM     26  C   UNL     1       0.474  10.979  18.801  0.00  0.00    +0.000 C 
BRANCH  21  27
ATOM     27  C   UNL     1       1.697  12.834  20.077  0.00  0.00    +0.000 C 
ATOM     28  O   UNL     1       1.337  12.589  21.220  0.00  0.00    +0.000 OA
BRANCH  27  29
ATOM     29  O   UNL     1       2.827  13.547  19.778  0.00  0.00    +0.000 OA
BRANCH  29  31
ATOM     30  C   UNL     1       2.755  15.858  18.998  0.00  0.00    +0.000 C 
ATOM     31  C   UNL     1       2.808  14.924  20.191  0.00  0.00    +0.000 C 
ENDBRANCH  29  31
ENDBRANCH  27  29
ENDBRANCH  21  27
ENDBRANCH  19  26
ENDBRANCH  18  19
ENDBRANCH  17  18
ENDBRANCH   1  17
TORSDOF 7
ENDMDL
MODEL 7
REMARK VINA RESULT:      -7.9      0.930      2.208
REMARK  Name = 
REMARK  9 active torsions:
REMARK  status: ('A' for Active; 'I' for Inactive)
REMARK    1  A    between atoms: C_1  and  C_2
REMARK    2  A    between atoms: C_2  and  O_3
REMARK    3  A    between atoms: O_3  and  C_4
REMARK    4  A    between atoms: C_4  and  C_6
REMARK    5  A    between atoms: C_11  and  N_12
REMARK    6  A    between atoms: N_12  and  C_13
REMARK    7  A    between atoms: N_12  and  C_14
REMARK    8  A    between atoms: C_14  and  C_15
REMARK    9  A    between atoms: C_15  and  C_16
REMARK                            x       y       z     vdW  Elec       q    Type
REMARK                         _______ _______ _______ _____ _____    ______ ____
ROOT
ATOM      1  C   UNL     1       3.207   7.197  17.501  0.00  0.00    +0.000 C 
ATOM      2  C   UNL     1       3.502   5.873  17.514  0.00  0.00    +0.000 C 
ATOM      3  C   UNL     1       4.806   5.497  16.943  0.00  0.00    +0.000 A 
ATOM      4  C   UNL     1       5.034   5.792  15.583  0.00  0.00    +0.000 A 
ATOM      5  C   UNL     1       6.236   5.459  14.972  0.00  0.00    +0.000 A 
ATOM      6  C   UNL     1       7.222   4.818  15.709  0.00  0.00    +0.000 A 
ATOM      7  C   UNL     1       7.002   4.503  17.054  0.00  0.00    +0.000 A 
ATOM      8  C   UNL     1       5.793   4.832  17.700  0.00  0.00    +0.000 A 
ATOM      9  C   UNL     1       5.654   4.398  19.151  0.00  0.00    +0.000 C 
ATOM     10  C   UNL     1       4.458   4.867  20.005  0.00  0.00    +0.000 C 
ATOM     11  C   UNL     1       3.135   4.384  19.463  0.00  0.00    +0.000 A 
ATOM     12  C   UNL     1       2.387   3.408  20.148  0.00  0.00    +0.000 A 
ATOM     13  C   UNL     1       1.224   2.889  19.577  0.00  0.00    +0.000 A 
ATOM     14  C   UNL     1       0.802   3.329  18.325  0.00  0.00    +0.000 A 
ATOM     15  C   UNL     1       1.524   4.322  17.652  0.00  0.00    +0.000 A 
ATOM     16  C   UNL     1       2.677   4.868  18.226  0.00  0.00    +0.000 A 
ENDROOT
BRANCH   1  17
ATOM     17  C   UNL     1       1.989   7.874  18.058  0.00  0.00    +0.000 C 
BRANCH  17  18
ATOM     18  C   UNL     1       2.061   8.067  19.589  0.00  0.00    +0.000 C 
BRANCH  18  19
ATOM     19  N   UNL     1       1.364   9.240  20.182  0.00  0.00    +0.000 NA
ATOM     20  C   UNL     1       0.425   8.729  21.203  0.00  0.00    +0.000 C 
BRANCH  19  26
ATOM     21  C   UNL     1       1.033  11.653  19.351  0.00  0.00    +0.000 C 
ATOM     22  C   UNL     1       0.305  12.566  18.357  0.00  0.00    +0.000 C 
ATOM     23  C   UNL     1      -1.197  12.385  18.382  0.00  0.00    +0.000 C 
ATOM     24  C   UNL     1      -1.563  10.924  18.191  0.00  0.00    +0.000 C 
ATOM     25  C   UNL     1      -0.880  10.013  19.214  0.00  0.00    +0.000 C 
ATOM     26  C   UNL     1       0.676  10.148  19.202  0.00  0.00    +0.000 C 
BRANCH  21  27
ATOM     27  C   UNL     1       0.848  12.153  20.789  0.00  0.00    +0.000 C 
ATOM     28  O   UNL     1      -0.219  12.249  21.380  0.00  0.00    +0.000 OA
BRANCH  27  29
ATOM     29  O   UNL     1       2.044  12.550  21.322  0.00  0.00    +0.000 OA
BRANCH  29  31
ATOM     30  C   UNL     1       1.945  14.985  21.194  0.00  0.00    +0.000 C 
ATOM     31  C   UNL     1       2.626  13.717  20.717  0.00  0.00    +0.000 C 
ENDBRANCH  29  31
ENDBRANCH  27  29
ENDBRANCH  21  27
ENDBRANCH  19  26
ENDBRANCH  18  19
ENDBRANCH  17  18
ENDBRANCH   1  17
TORSDOF 7
ENDMDL
MODEL 8
REMARK VINA RESULT:      -7.8      1.444      4.058
REMARK  Name = 
REMARK  9 active torsions:
REMARK  status: ('A' for Active; 'I' for Inactive)
REMARK    1  A    between atoms: C_1  and  C_2
REMARK    2  A    between atoms: C_2  and  O_3
REMARK    3  A    between atoms: O_3  and  C_4
REMARK    4  A    between atoms: C_4  and  C_6
REMARK    5  A    between atoms: C_11  and  N_12
REMARK    6  A    between atoms: N_12  and  C_13
REMARK    7  A    between atoms: N_12  and  C_14
REMARK    8  A    between atoms: C_14  and  C_15
REMARK    9  A    between atoms: C_15  and  C_16
REMARK                            x       y       z     vdW  Elec       q    Type
REMARK                         _______ _______ _______ _____ _____    ______ ____
ROOT
ATOM      1  C   UNL     1       2.747   6.633  18.760  0.00  0.00    +0.000 C 
ATOM      2  C   UNL     1       3.473   5.497  18.905  0.00  0.00    +0.000 C 
ATOM      3  C   UNL     1       2.801   4.384  19.597  0.00  0.00    +0.000 A 
ATOM      4  C   UNL     1       2.394   4.594  20.931  0.00  0.00    +0.000 A 
ATOM      5  C   UNL     1       1.761   3.589  21.651  0.00  0.00    +0.000 A 
ATOM      6  C   UNL     1       1.537   2.357  21.051  0.00  0.00    +0.000 A 
ATOM      7  C   UNL     1       1.952   2.131  19.736  0.00  0.00    +0.000 A 
ATOM      8  C   UNL     1       2.593   3.133  18.981  0.00  0.00    +0.000 A 
ATOM      9  C   UNL     1       3.037   2.752  17.577  0.00  0.00    +0.000 C 
ATOM     10  C   UNL     1       3.576   3.820  16.602  0.00  0.00    +0.000 C 
ATOM     11  C   UNL     1       4.839   4.478  17.103  0.00  0.00    +0.000 A 
ATOM     12  C   UNL     1       6.076   4.238  16.476  0.00  0.00    +0.000 A 
ATOM     13  C   UNL     1       7.250   4.762  17.021  0.00  0.00    +0.000 A 
ATOM     14  C   UNL     1       7.202   5.518  18.190  0.00  0.00    +0.000 A 
ATOM     15  C   UNL     1       5.972   5.787  18.801  0.00  0.00    +0.000 A 
ATOM     16  C   UNL     1       4.787   5.288  18.249  0.00  0.00    +0.000 A 
ENDROOT
BRANCH   1  17
ATOM     17  C   UNL     1       3.146   7.897  18.057  0.00  0.00    +0.000 C 
BRANCH  17  18
ATOM     18  C   UNL     1       1.940   8.815  17.751  0.00  0.00    +0.000 C 
BRANCH  18  19
ATOM     19  N   UNL     1       1.473   9.737  18.821  0.00  0.00    +0.000 NA
ATOM     20  C   UNL     1       1.143   8.914  20.004  0.00  0.00    +0.000 C 
BRANCH  19  26
ATOM     21  C   UNL     1       0.472  12.104  18.960  0.00  0.00    +0.000 C 
ATOM     22  C   UNL     1      -0.707  13.008  18.583  0.00  0.00    +0.000 C 
ATOM     23  C   UNL     1      -2.046  12.436  18.997  0.00  0.00    +0.000 C 
ATOM     24  C   UNL     1      -2.212  11.025  18.460  0.00  0.00    +0.000 C 
ATOM     25  C   UNL     1      -1.064  10.103  18.877  0.00  0.00    +0.000 C 
ATOM     26  C   UNL     1       0.336  10.644  18.444  0.00  0.00    +0.000 C 
BRANCH  21  27
ATOM     27  C   UNL     1       0.745  12.162  20.468  0.00  0.00    +0.000 C 
ATOM     28  O   UNL     1       1.849  12.135  20.995  0.00  0.00    +0.000 OA
BRANCH  27  29
ATOM     29  O   UNL     1      -0.427  12.185  21.174  0.00  0.00    +0.000 OA
BRANCH  29  31
ATOM     30  C   UNL     1      -1.724  11.522  23.132  0.00  0.00    +0.000 C 
ATOM     31  C   UNL     1      -0.486  11.281  22.290  0.00  0.00    +0.000 C 
ENDBRANCH  29  31
ENDBRANCH  27  29
ENDBRANCH  21  27
ENDBRANCH  19  26
ENDBRANCH  18  19
ENDBRANCH  17  18
ENDBRANCH   1  17
TORSDOF 7
ENDMDL
MODEL 9
REMARK VINA RESULT:      -7.8      1.020      1.685
REMARK  Name = 
REMARK  9 active torsions:
REMARK  status: ('A' for Active; 'I' for Inactive)
REMARK    1  A    between atoms: C_1  and  C_2
REMARK    2  A    between atoms: C_2  and  O_3
REMARK    3  A    between atoms: O_3  and  C_4
REMARK    4  A    between atoms: C_4  and  C_6
REMARK    5  A    between atoms: C_11  and  N_12
REMARK    6  A    between atoms: N_12  and  C_13
REMARK    7  A    between atoms: N_12  and  C_14
REMARK    8  A    between atoms: C_14  and  C_15
REMARK    9  A    between atoms: C_15  and  C_16
REMARK                            x       y       z     vdW  Elec       q    Type
REMARK                         _______ _______ _______ _____ _____    ______ ____
ROOT
ATOM      1  C   UNL     1       3.314   7.051  17.389  0.00  0.00    +0.000 C 
ATOM      2  C   UNL     1       3.648   5.737  17.412  0.00  0.00    +0.000 C 
ATOM      3  C   UNL     1       4.928   5.384  16.775  0.00  0.00    +0.000 A 
ATOM      4  C   UNL     1       5.069   5.656  15.398  0.00  0.00    +0.000 A 
ATOM      5  C   UNL     1       6.244   5.343  14.726  0.00  0.00    +0.000 A 
ATOM      6  C   UNL     1       7.288   4.745  15.418  0.00  0.00    +0.000 A 
ATOM      7  C   UNL     1       7.153   4.453  16.779  0.00  0.00    +0.000 A 
ATOM      8  C   UNL     1       5.975   4.763  17.486  0.00  0.00    +0.000 A 
ATOM      9  C   UNL     1       5.930   4.356  18.951  0.00  0.00    +0.000 C 
ATOM     10  C   UNL     1       4.771   4.811  19.863  0.00  0.00    +0.000 C 
ATOM     11  C   UNL     1       3.434   4.280  19.407  0.00  0.00    +0.000 A 
ATOM     12  C   UNL     1       2.754   3.299  20.153  0.00  0.00    +0.000 A 
ATOM     13  C   UNL     1       1.576   2.736  19.660  0.00  0.00    +0.000 A 
ATOM     14  C   UNL     1       1.071   3.138  18.425  0.00  0.00    +0.000 A 
ATOM     15  C   UNL     1       1.725   4.136  17.693  0.00  0.00    +0.000 A 
ATOM     16  C   UNL     1       2.893   4.725  18.190  0.00  0.00    +0.000 A 
ENDROOT
BRANCH   1  17
ATOM     17  C   UNL     1       2.111   7.707  18.001  0.00  0.00    +0.000 C 
BRANCH  17  18
ATOM     18  C   UNL     1       2.258   9.242  18.106  0.00  0.00    +0.000 C 
BRANCH  18  19
ATOM     19  N   UNL     1       1.453   9.953  19.136  0.00  0.00    +0.000 NA
ATOM     20  C   UNL     1       1.050   8.957  20.151  0.00  0.00    +0.000 C 
BRANCH  19  26
ATOM     21  C   UNL     1       0.174  12.187  19.133  0.00  0.00    +0.000 C 
ATOM     22  C   UNL     1      -1.049  12.949  18.609  0.00  0.00    +0.000 C 
ATOM     23  C   UNL     1      -2.351  12.222  18.865  0.00  0.00    +0.000 C 
ATOM     24  C   UNL     1      -2.286  10.805  18.324  0.00  0.00    +0.000 C 
ATOM     25  C   UNL     1      -1.097  10.021  18.883  0.00  0.00    +0.000 C 
ATOM     26  C   UNL     1       0.272  10.724  18.617  0.00  0.00    +0.000 C 
BRANCH  21  27
ATOM     27  C   UNL     1       0.256  12.268  20.662  0.00  0.00    +0.000 C 
ATOM     28  O   UNL     1       1.200  12.707  21.304  0.00  0.00    +0.000 OA
BRANCH  27  29
ATOM     29  O   UNL     1      -0.857  11.717  21.238  0.00  0.00    +0.000 OA
BRANCH  29  31
ATOM     30  C   UNL     1      -0.806  10.161  23.117  0.00  0.00    +0.000 C 
ATOM     31  C   UNL     1      -0.814  11.610  22.671  0.00  0.00    +0.000 C 
ENDBRANCH  29  31
ENDBRANCH  27  29
ENDBRANCH  21  27
ENDBRANCH  19  26
ENDBRANCH  18  19
ENDBRANCH  17  18
ENDBRANCH   1  17
TORSDOF 7
ENDMDL
