MODEL 1
REMARK VINA RESULT:      -7.3      0.000      0.000
REMARK  Name = 
REMARK  9 active torsions:
REMARK  status: ('A' for Active; 'I' for Inactive)
REMARK    1  A    between atoms: C_2  and  C_4
REMARK    2  A    between atoms: C_7  and  N_8
REMARK    3  A    between atoms: N_11  and  C_12
REMARK    4  A    between atoms: C_15  and  O_16
REMARK    5  A    between atoms: O_16  and  C_17
REMARK    6  A    between atoms: C_17  and  C_18
REMARK    7  A    between atoms: C_18  and  C_19
REMARK    8  A    between atoms: C_19  and  C_20
REMARK    9  A    between atoms: C_20  and  O_22
REMARK                            x       y       z     vdW  Elec       q    Type
REMARK                         _______ _______ _______ _____ _____    ______ ____
ROOT
ATOM      1  N   UNL     1      -0.267  11.079  22.306  0.00  0.00    +0.000 N 
ATOM      2  C   UNL     1      -0.133   9.772  22.974  0.00  0.00    +0.000 C 
ATOM      3  C   UNL     1      -0.307   8.629  21.950  0.00  0.00    +0.000 C 
ATOM      4  N   UNL     1       0.621   8.824  20.824  0.00  0.00    +0.000 N 
ATOM      5  C   UNL     1       0.475  10.116  20.134  0.00  0.00    +0.000 C 
ATOM      6  C   UNL     1       0.624  11.274  21.145  0.00  0.00    +0.000 C 
ENDROOT
BRANCH   1  10
ATOM      7  C   UNL     1      -2.842  14.018  23.868  0.00  0.00    +0.000 A 
ATOM      8  C   UNL     1      -1.594  14.376  23.365  0.00  0.00    +0.000 A 
ATOM      9  C   UNL     1      -0.751  13.396  22.833  0.00  0.00    +0.000 A 
ATOM     10  C   UNL     1      -1.126  12.044  22.778  0.00  0.00    +0.000 A 
ATOM     11  C   UNL     1      -2.403  11.719  23.258  0.00  0.00    +0.000 A 
ATOM     12  C   UNL     1      -3.254  12.688  23.803  0.00  0.00    +0.000 A 
BRANCH   7  14
ATOM     13  N   UNL     1      -3.186  16.021  25.154  0.00  0.00    +0.000 NA
ATOM     14  C   UNL     1      -3.717  15.055  24.478  0.00  0.00    +0.000 C 
ATOM     15  N   UNL     1      -5.073  14.967  24.348  0.00  0.00    +0.000 N 
ATOM     16  H   UNL     1      -3.913  16.660  25.473  0.00  0.00    +0.000 HD
ATOM     17  H   UNL     1      -5.610  15.479  25.038  0.00  0.00    +0.000 HD
ATOM     18  H   UNL     1      -5.434  14.026  24.225  0.00  0.00    +0.000 HD
ENDBRANCH   7  14
ENDBRANCH   1  10
BRANCH   4  19
ATOM     19  C   UNL     1       1.364   7.787  20.312  0.00  0.00    +0.000 A 
ATOM     20  C   UNL     1       2.090   7.935  19.127  0.00  0.00    +0.000 A 
ATOM     21  C   UNL     1       2.779   6.872  18.548  0.00  0.00    +0.000 A 
ATOM     22  C   UNL     1       2.765   5.611  19.140  0.00  0.00    +0.000 A 
ATOM     23  C   UNL     1       2.073   5.443  20.332  0.00  0.00    +0.000 A 
ATOM     24  C   UNL     1       1.382   6.521  20.913  0.00  0.00    +0.000 A 
BRANCH  22  25
ATOM     25  O   UNL     1       3.377   4.498  18.623  0.00  0.00    +0.000 OA
BRANCH  25  26
ATOM     26  C   UNL     1       4.568   4.099  19.312  0.00  0.00    +0.000 C 
BRANCH  26  27
ATOM     27  C   UNL     1       5.776   4.841  18.754  0.00  0.00    +0.000 C 
BRANCH  27  28
ATOM     28  C   UNL     1       5.808   4.897  17.231  0.00  0.00    +0.000 C 
BRANCH  28  29
ATOM     29  C   UNL     1       7.207   5.081  16.706  0.00  0.00    +0.000 C 
ATOM     30  O   UNL     1       7.530   5.960  15.920  0.00  0.00    +0.000 OA
BRANCH  29  31
ATOM     31  O   UNL     1       8.075   4.143  17.144  0.00  0.00    +0.000 OA
ATOM     32  H   UNL     1       7.812   3.723  17.989  0.00  0.00    +0.000 HD
ENDBRANCH  29  31
ENDBRANCH  28  29
ENDBRANCH  27  28
ENDBRANCH  26  27
ENDBRANCH  25  26
ENDBRANCH  22  25
ENDBRANCH   4  19
TORSDOF 9
ENDMDL
MODEL 2
REMARK VINA RESULT:      -7.1      1.124      2.062
REMARK  Name = 
REMARK  9 active torsions:
REMARK  status: ('A' for Active; 'I' for Inactive)
REMARK    1  A    between atoms: C_2  and  C_4
REMARK    2  A    between atoms: C_7  and  N_8
REMARK    3  A    between atoms: N_11  and  C_12
REMARK    4  A    between atoms: C_15  and  O_16
REMARK    5  A    between atoms: O_16  and  C_17
REMARK    6  A    between atoms: C_17  and  C_18
REMARK    7  A    between atoms: C_18  and  C_19
REMARK    8  A    between atoms: C_19  and  C_20
REMARK    9  A    between atoms: C_20  and  O_22
REMARK                            x       y       z     vdW  Elec       q    Type
REMARK                         _______ _______ _______ _____ _____    ______ ____
ROOT
ATOM      1  N   UNL     1      -1.036  11.145  22.019  0.00  0.00    +0.000 N 
ATOM      2  C   UNL     1      -0.946  11.209  20.550  0.00  0.00    +0.000 C 
ATOM      3  C   UNL     1       0.482  10.849  20.085  0.00  0.00    +0.000 C 
ATOM      4  N   UNL     1       0.877   9.549  20.653  0.00  0.00    +0.000 N 
ATOM      5  C   UNL     1       0.817   9.484  22.122  0.00  0.00    +0.000 C 
ATOM      6  C   UNL     1      -0.599   9.864  22.610  0.00  0.00    +0.000 C 
ENDROOT
BRANCH   1  10
ATOM      7  C   UNL     1      -2.621  14.399  24.166  0.00  0.00    +0.000 A 
ATOM      8  C   UNL     1      -3.389  13.255  23.958  0.00  0.00    +0.000 A 
ATOM      9  C   UNL     1      -2.849  12.172  23.258  0.00  0.00    +0.000 A 
ATOM     10  C   UNL     1      -1.538  12.191  22.757  0.00  0.00    +0.000 A 
ATOM     11  C   UNL     1      -0.776  13.341  23.013  0.00  0.00    +0.000 A 
ATOM     12  C   UNL     1      -1.307  14.437  23.703  0.00  0.00    +0.000 A 
BRANCH   7  14
ATOM     13  N   UNL     1      -2.448  16.360  25.546  0.00  0.00    +0.000 NA
ATOM     14  C   UNL     1      -3.213  15.568  24.868  0.00  0.00    +0.000 C 
ATOM     15  N   UNL     1      -4.560  15.785  24.819  0.00  0.00    +0.000 N 
ATOM     16  H   UNL     1      -2.999  17.125  25.934  0.00  0.00    +0.000 HD
ATOM     17  H   UNL     1      -4.935  16.365  25.560  0.00  0.00    +0.000 HD
ATOM     18  H   UNL     1      -5.126  14.952  24.683  0.00  0.00    +0.000 HD
ENDBRANCH   7  14
ENDBRANCH   1  10
BRANCH   4  19
ATOM     19  C   UNL     1       1.492   8.585  19.891  0.00  0.00    +0.000 A 
ATOM     20  C   UNL     1       1.777   7.321  20.417  0.00  0.00    +0.000 A 
ATOM     21  C   UNL     1       2.475   6.361  19.689  0.00  0.00    +0.000 A 
ATOM     22  C   UNL     1       2.918   6.634  18.396  0.00  0.00    +0.000 A 
ATOM     23  C   UNL     1       2.627   7.873  17.840  0.00  0.00    +0.000 A 
ATOM     24  C   UNL     1       1.918   8.837  18.580  0.00  0.00    +0.000 A 
BRANCH  22  25
ATOM     25  O   UNL     1       3.648   5.769  17.621  0.00  0.00    +0.000 OA
BRANCH  25  26
ATOM     26  C   UNL     1       5.019   5.631  18.012  0.00  0.00    +0.000 C 
BRANCH  26  27
ATOM     27  C   UNL     1       5.907   6.516  17.147  0.00  0.00    +0.000 C 
BRANCH  27  28
ATOM     28  C   UNL     1       7.387   6.429  17.501  0.00  0.00    +0.000 C 
BRANCH  28  29
ATOM     29  C   UNL     1       7.696   5.204  18.320  0.00  0.00    +0.000 C 
ATOM     30  O   UNL     1       7.672   5.177  19.542  0.00  0.00    +0.000 OA
BRANCH  29  31
ATOM     31  O   UNL     1       8.061   4.137  17.577  0.00  0.00    +0.000 OA
ATOM     32  H   UNL     1       7.460   3.368  17.664  0.00  0.00    +0.000 HD
ENDBRANCH  29  31
ENDBRANCH  28  29
ENDBRANCH  27  28
ENDBRANCH  26  27
ENDBRANCH  25  26
ENDBRANCH  22  25
ENDBRANCH   4  19
TORSDOF 9
ENDMDL
MODEL 3
REMARK VINA RESULT:      -7.1      5.306     11.589
REMARK  Name = 
REMARK  9 active torsions:
REMARK  status: ('A' for Active; 'I' for Inactive)
REMARK    1  A    between atoms: C_2  and  C_4
REMARK    2  A    between atoms: C_7  and  N_8
REMARK    3  A    between atoms: N_11  and  C_12
REMARK    4  A    between atoms: C_15  and  O_16
REMARK    5  A    between atoms: O_16  and  C_17
REMARK    6  A    between atoms: C_17  and  C_18
REMARK    7  A    between atoms: C_18  and  C_19
REMARK    8  A    between atoms: C_19  and  C_20
REMARK    9  A    between atoms: C_20  and  O_22
REMARK                            x       y       z     vdW  Elec       q    Type
REMARK                         _______ _______ _______ _____ _____    ______ ____
ROOT
ATOM      1  N   UNL     1       2.199   7.399  18.578  0.00  0.00    +0.000 N 
ATOM      2  C   UNL     1       1.716   7.114  19.940  0.00  0.00    +0.000 C 
ATOM      3  C   UNL     1       1.731   8.401  20.793  0.00  0.00    +0.000 C 
ATOM      4  N   UNL     1       0.981   9.464  20.103  0.00  0.00    +0.000 N 
ATOM      5  C   UNL     1       1.474   9.775  18.751  0.00  0.00    +0.000 C 
ATOM      6  C   UNL     1       1.489   8.495  17.887  0.00  0.00    +0.000 C 
ENDROOT
BRANCH   1  10
ATOM      7  C   UNL     1       5.323   5.118  16.921  0.00  0.00    +0.000 A 
ATOM      8  C   UNL     1       4.204   4.487  17.460  0.00  0.00    +0.000 A 
ATOM      9  C   UNL     1       3.164   5.253  17.993  0.00  0.00    +0.000 A 
ATOM     10  C   UNL     1       3.201   6.656  17.998  0.00  0.00    +0.000 A 
ATOM     11  C   UNL     1       4.323   7.264  17.416  0.00  0.00    +0.000 A 
ATOM     12  C   UNL     1       5.377   6.510  16.887  0.00  0.00    +0.000 A 
BRANCH   7  14
ATOM     13  N   UNL     1       6.214   3.357  15.548  0.00  0.00    +0.000 NA
ATOM     14  C   UNL     1       6.451   4.302  16.399  0.00  0.00    +0.000 C 
ATOM     15  N   UNL     1       7.723   4.531  16.838  0.00  0.00    +0.000 N 
ATOM     16  H   UNL     1       7.090   2.918  15.264  0.00  0.00    +0.000 HD
ATOM     17  H   UNL     1       8.370   3.762  16.719  0.00  0.00    +0.000 HD
ATOM     18  H   UNL     1       7.791   4.929  17.770  0.00  0.00    +0.000 HD
ENDBRANCH   7  14
ENDBRANCH   1  10
BRANCH   4  19
ATOM     19  C   UNL     1       0.080  10.262  20.767  0.00  0.00    +0.000 A 
ATOM     20  C   UNL     1      -0.568  11.316  20.117  0.00  0.00    +0.000 A 
ATOM     21  C   UNL     1      -1.419  12.186  20.794  0.00  0.00    +0.000 A 
ATOM     22  C   UNL     1      -1.653  12.031  22.159  0.00  0.00    +0.000 A 
ATOM     23  C   UNL     1      -1.041  10.976  22.824  0.00  0.00    +0.000 A 
ATOM     24  C   UNL     1      -0.187  10.099  22.133  0.00  0.00    +0.000 A 
BRANCH  22  25
ATOM     25  O   UNL     1      -2.439  12.862  22.916  0.00  0.00    +0.000 OA
BRANCH  25  26
ATOM     26  C   UNL     1      -3.371  12.186  23.767  0.00  0.00    +0.000 C 
BRANCH  26  27
ATOM     27  C   UNL     1      -4.547  13.098  24.094  0.00  0.00    +0.000 C 
BRANCH  27  28
ATOM     28  C   UNL     1      -5.737  12.919  23.159  0.00  0.00    +0.000 C 
BRANCH  28  29
ATOM     29  C   UNL     1      -7.013  12.668  23.918  0.00  0.00    +0.000 C 
ATOM     30  O   UNL     1      -7.625  13.533  24.528  0.00  0.00    +0.000 OA
BRANCH  29  31
ATOM     31  O   UNL     1      -7.398  11.373  23.912  0.00  0.00    +0.000 OA
ATOM     32  H   UNL     1      -7.233  10.913  23.062  0.00  0.00    +0.000 HD
ENDBRANCH  29  31
ENDBRANCH  28  29
ENDBRANCH  27  28
ENDBRANCH  26  27
ENDBRANCH  25  26
ENDBRANCH  22  25
ENDBRANCH   4  19
TORSDOF 9
ENDMDL
MODEL 4
REMARK VINA RESULT:      -7.0      1.681      2.107
REMARK  Name = 
REMARK  9 active torsions:
REMARK  status: ('A' for Active; 'I' for Inactive)
REMARK    1  A    between atoms: C_2  and  C_4
REMARK    2  A    between atoms: C_7  and  N_8
REMARK    3  A    between atoms: N_11  and  C_12
REMARK    4  A    between atoms: C_15  and  O_16
REMARK    5  A    between atoms: O_16  and  C_17
REMARK    6  A    between atoms: C_17  and  C_18
REMARK    7  A    between atoms: C_18  and  C_19
REMARK    8  A    between atoms: C_19  and  C_20
REMARK    9  A    between atoms: C_20  and  O_22
REMARK                            x       y       z     vdW  Elec       q    Type
REMARK                         _______ _______ _______ _____ _____    ______ ____
ROOT
ATOM      1  N   UNL     1      -0.376  11.130  21.101  0.00  0.00    +0.000 N 
ATOM      2  C   UNL     1       0.298  10.055  21.850  0.00  0.00    +0.000 C 
ATOM      3  C   UNL     1       0.352   8.766  21.001  0.00  0.00    +0.000 C 
ATOM      4  N   UNL     1       0.962   9.058  19.692  0.00  0.00    +0.000 N 
ATOM      5  C   UNL     1       0.279  10.112  18.926  0.00  0.00    +0.000 C 
ATOM      6  C   UNL     1       0.193  11.405  19.767  0.00  0.00    +0.000 C 
ENDROOT
BRANCH   1  10
ATOM      7  C   UNL     1      -3.651  13.212  22.730  0.00  0.00    +0.000 A 
ATOM      8  C   UNL     1      -2.944  12.299  23.509  0.00  0.00    +0.000 A 
ATOM      9  C   UNL     1      -1.847  11.624  22.965  0.00  0.00    +0.000 A 
ATOM     10  C   UNL     1      -1.420  11.842  21.645  0.00  0.00    +0.000 A 
ATOM     11  C   UNL     1      -2.128  12.795  20.898  0.00  0.00    +0.000 A 
ATOM     12  C   UNL     1      -3.234  13.471  21.426  0.00  0.00    +0.000 A 
BRANCH   7  14
ATOM     13  N   UNL     1      -5.425  14.831  22.617  0.00  0.00    +0.000 NA
ATOM     14  C   UNL     1      -4.846  13.893  23.294  0.00  0.00    +0.000 C 
ATOM     15  N   UNL     1      -5.309  13.549  24.532  0.00  0.00    +0.000 N 
ATOM     16  H   UNL     1      -6.244  15.168  23.123  0.00  0.00    +0.000 HD
ATOM     17  H   UNL     1      -5.885  14.245  24.990  0.00  0.00    +0.000 HD
ATOM     18  H   UNL     1      -4.608  13.176  25.165  0.00  0.00    +0.000 HD
ENDBRANCH   7  14
ENDBRANCH   1  10
BRANCH   4  19
ATOM     19  C   UNL     1       1.915   8.236  19.140  0.00  0.00    +0.000 A 
ATOM     20  C   UNL     1       2.525   8.554  17.924  0.00  0.00    +0.000 A 
ATOM     21  C   UNL     1       3.430   7.693  17.307  0.00  0.00    +0.000 A 
ATOM     22  C   UNL     1       3.759   6.472  17.892  0.00  0.00    +0.000 A 
ATOM     23  C   UNL     1       3.186   6.143  19.113  0.00  0.00    +0.000 A 
ATOM     24  C   UNL     1       2.276   7.018  19.732  0.00  0.00    +0.000 A 
BRANCH  22  25
ATOM     25  O   UNL     1       4.604   5.544  17.339  0.00  0.00    +0.000 OA
BRANCH  25  26
ATOM     26  C   UNL     1       5.321   6.003  16.187  0.00  0.00    +0.000 C 
BRANCH  26  27
ATOM     27  C   UNL     1       6.818   5.798  16.379  0.00  0.00    +0.000 C 
BRANCH  27  28
ATOM     28  C   UNL     1       7.350   6.370  17.688  0.00  0.00    +0.000 C 
BRANCH  28  29
ATOM     29  C   UNL     1       7.571   5.296  18.720  0.00  0.00    +0.000 C 
ATOM     30  O   UNL     1       8.226   5.455  19.741  0.00  0.00    +0.000 OA
BRANCH  29  31
ATOM     31  O   UNL     1       7.021   4.108  18.389  0.00  0.00    +0.000 OA
ATOM     32  H   UNL     1       7.393   3.347  18.881  0.00  0.00    +0.000 HD
ENDBRANCH  29  31
ENDBRANCH  28  29
ENDBRANCH  27  28
ENDBRANCH  26  27
ENDBRANCH  25  26
ENDBRANCH  22  25
ENDBRANCH   4  19
TORSDOF 9
ENDMDL
MODEL 5
REMARK VINA RESULT:      -7.0      0.990      1.429
REMARK  Name = 
REMARK  9 active torsions:
REMARK  status: ('A' for Active; 'I' for Inactive)
REMARK    1  A    between atoms: C_2  and  C_4
REMARK    2  A    between atoms: C_7  and  N_8
REMARK    3  A    between atoms: N_11  and  C_12
REMARK    4  A    between atoms: C_15  and  O_16
REMARK    5  A    between atoms: O_16  and  C_17
REMARK    6  A    between atoms: C_17  and  C_18
REMARK    7  A    between atoms: C_18  and  C_19
REMARK    8  A    between atoms: C_19  and  C_20
REMARK    9  A    between atoms: C_20  and  O_22
REMARK                            x       y       z     vdW  Elec       q    Type
REMARK                         _______ _______ _______ _____ _____    ______ ____
ROOT
ATOM      1  N   UNL     1       0.006  11.075  22.004  0.00  0.00    +0.000 N 
ATOM      2  C   UNL     1       0.105   9.746  22.631  0.00  0.00    +0.000 C 
ATOM      3  C   UNL     1      -0.045   8.639  21.565  0.00  0.00    +0.000 C 
ATOM      4  N   UNL     1       0.923   8.861  20.478  0.00  0.00    +0.000 N 
ATOM      5  C   UNL     1       0.813  10.176  19.826  0.00  0.00    +0.000 C 
ATOM      6  C   UNL     1       0.937  11.299  20.880  0.00  0.00    +0.000 C 
ENDROOT
BRANCH   1  10
ATOM      7  C   UNL     1      -2.707  14.001  23.340  0.00  0.00    +0.000 A 
ATOM      8  C   UNL     1      -2.983  12.650  23.535  0.00  0.00    +0.000 A 
ATOM      9  C   UNL     1      -2.068  11.685  23.102  0.00  0.00    +0.000 A 
ATOM     10  C   UNL     1      -0.860  12.033  22.478  0.00  0.00    +0.000 A 
ATOM     11  C   UNL     1      -0.594  13.402  22.329  0.00  0.00    +0.000 A 
ATOM     12  C   UNL     1      -1.504  14.379  22.747  0.00  0.00    +0.000 A 
BRANCH   7  14
ATOM     13  N   UNL     1      -4.226  15.804  22.868  0.00  0.00    +0.000 NA
ATOM     14  C   UNL     1      -3.703  15.024  23.756  0.00  0.00    +0.000 C 
ATOM     15  N   UNL     1      -4.038  15.156  25.073  0.00  0.00    +0.000 N 
ATOM     16  H   UNL     1      -4.910  16.420  23.307  0.00  0.00    +0.000 HD
ATOM     17  H   UNL     1      -4.439  16.049  25.333  0.00  0.00    +0.000 HD
ATOM     18  H   UNL     1      -3.320  14.869  25.731  0.00  0.00    +0.000 HD
ENDBRANCH   7  14
ENDBRANCH   1  10
BRANCH   4  19
ATOM     19  C   UNL     1       1.673   7.834  19.957  0.00  0.00    +0.000 A 
ATOM     20  C   UNL     1       2.296   7.953  18.712  0.00  0.00    +0.000 A 
ATOM     21  C   UNL     1       2.989   6.894  18.130  0.00  0.00    +0.000 A 
ATOM     22  C   UNL     1       3.083   5.666  18.781  0.00  0.00    +0.000 A 
ATOM     23  C   UNL     1       2.495   5.527  20.031  0.00  0.00    +0.000 A 
ATOM     24  C   UNL     1       1.800   6.602  20.614  0.00  0.00    +0.000 A 
BRANCH  22  25
ATOM     25  O   UNL     1       3.707   4.557  18.269  0.00  0.00    +0.000 OA
BRANCH  25  26
ATOM     26  C   UNL     1       5.097   4.451  18.596  0.00  0.00    +0.000 C 
BRANCH  26  27
ATOM     27  C   UNL     1       5.948   4.593  17.341  0.00  0.00    +0.000 C 
BRANCH  27  28
ATOM     28  C   UNL     1       7.413   4.901  17.628  0.00  0.00    +0.000 C 
BRANCH  28  29
ATOM     29  C   UNL     1       7.644   6.373  17.844  0.00  0.00    +0.000 C 
ATOM     30  O   UNL     1       7.403   7.232  17.008  0.00  0.00    +0.000 OA
BRANCH  29  31
ATOM     31  O   UNL     1       8.202   6.661  19.041  0.00  0.00    +0.000 OA
ATOM     32  H   UNL     1       8.301   5.884  19.630  0.00  0.00    +0.000 HD
ENDBRANCH  29  31
ENDBRANCH  28  29
ENDBRANCH  27  28
ENDBRANCH  26  27
ENDBRANCH  25  26
ENDBRANCH  22  25
ENDBRANCH   4  19
TORSDOF 9
ENDMDL
MODEL 6
REMARK VINA RESULT:      -7.0      1.194      1.574
REMARK  Name = 
REMARK  9 active torsions:
REMARK  status: ('A' for Active; 'I' for Inactive)
REMARK    1  A    between atoms: C_2  and  C_4
REMARK    2  A    between atoms: C_7  and  N_8
REMARK    3  A    between atoms: N_11  and  C_12
REMARK    4  A    between atoms: C_15  and  O_16
REMARK    5  A    between atoms: O_16  and  C_17
REMARK    6  A    between atoms: C_17  and  C_18
REMARK    7  A    between atoms: C_18  and  C_19
REMARK    8  A    between atoms: C_19  and  C_20
REMARK    9  A    between atoms: C_20  and  O_22
REMARK                            x       y       z     vdW  Elec       q    Type
REMARK                         _______ _______ _______ _____ _____    ______ ____
ROOT
ATOM      1  N   UNL     1      -0.422  11.703  21.970  0.00  0.00    +0.000 N 
ATOM      2  C   UNL     1      -0.267  10.330  22.481  0.00  0.00    +0.000 C 
ATOM      3  C   UNL     1      -0.336   9.316  21.317  0.00  0.00    +0.000 C 
ATOM      4  N   UNL     1       0.642   9.683  20.279  0.00  0.00    +0.000 N 
ATOM      5  C   UNL     1       0.478  11.044  19.744  0.00  0.00    +0.000 C 
ATOM      6  C   UNL     1       0.521  12.073  20.896  0.00  0.00    +0.000 C 
ENDROOT
BRANCH   1  10
ATOM      7  C   UNL     1      -3.327  14.337  23.498  0.00  0.00    +0.000 A 
ATOM      8  C   UNL     1      -3.398  12.975  23.782  0.00  0.00    +0.000 A 
ATOM      9  C   UNL     1      -2.420  12.109  23.284  0.00  0.00    +0.000 A 
ATOM     10  C   UNL     1      -1.347  12.570  22.504  0.00  0.00    +0.000 A 
ATOM     11  C   UNL     1      -1.282  13.951  22.266  0.00  0.00    +0.000 A 
ATOM     12  C   UNL     1      -2.259  14.828  22.750  0.00  0.00    +0.000 A 
BRANCH   7  14
ATOM     13  N   UNL     1      -4.204  15.933  25.068  0.00  0.00    +0.000 NA
ATOM     14  C   UNL     1      -4.395  15.249  23.988  0.00  0.00    +0.000 C 
ATOM     15  N   UNL     1      -5.579  15.338  23.315  0.00  0.00    +0.000 N 
ATOM     16  H   UNL     1      -5.011  16.531  25.247  0.00  0.00    +0.000 HD
ATOM     17  H   UNL     1      -6.360  15.693  23.853  0.00  0.00    +0.000 HD
ATOM     18  H   UNL     1      -5.840  14.508  22.790  0.00  0.00    +0.000 HD
ENDBRANCH   7  14
ENDBRANCH   1  10
BRANCH   4  19
ATOM     19  C   UNL     1       1.456   8.746  19.690  0.00  0.00    +0.000 A 
ATOM     20  C   UNL     1       1.880   8.887  18.366  0.00  0.00    +0.000 A 
ATOM     21  C   UNL     1       2.634   7.906  17.725  0.00  0.00    +0.000 A 
ATOM     22  C   UNL     1       2.994   6.738  18.394  0.00  0.00    +0.000 A 
ATOM     23  C   UNL     1       2.607   6.584  19.719  0.00  0.00    +0.000 A 
ATOM     24  C   UNL     1       1.849   7.579  20.361  0.00  0.00    +0.000 A 
BRANCH  22  25
ATOM     25  O   UNL     1       3.696   5.702  17.834  0.00  0.00    +0.000 OA
BRANCH  25  26
ATOM     26  C   UNL     1       4.765   6.107  16.970  0.00  0.00    +0.000 C 
BRANCH  26  27
ATOM     27  C   UNL     1       4.829   5.200  15.748  0.00  0.00    +0.000 C 
BRANCH  27  28
ATOM     28  C   UNL     1       5.844   4.070  15.878  0.00  0.00    +0.000 C 
BRANCH  28  29
ATOM     29  C   UNL     1       7.258   4.587  15.898  0.00  0.00    +0.000 C 
ATOM     30  O   UNL     1       7.732   5.313  15.035  0.00  0.00    +0.000 OA
BRANCH  29  31
ATOM     31  O   UNL     1       7.986   4.128  16.940  0.00  0.00    +0.000 OA
ATOM     32  H   UNL     1       8.011   3.151  17.006  0.00  0.00    +0.000 HD
ENDBRANCH  29  31
ENDBRANCH  28  29
ENDBRANCH  27  28
ENDBRANCH  26  27
ENDBRANCH  25  26
ENDBRANCH  22  25
ENDBRANCH   4  19
TORSDOF 9
ENDMDL
MODEL 7
REMARK VINA RESULT:      -7.0      1.050      1.790
REMARK  Name = 
REMARK  9 active torsions:
REMARK  status: ('A' for Active; 'I' for Inactive)
REMARK    1  A    between atoms: C_2  and  C_4
REMARK    2  A    between atoms: C_7  and  N_8
REMARK    3  A    between atoms: N_11  and  C_12
REMARK    4  A    between atoms: C_15  and  O_16
REMARK    5  A    between atoms: O_16  and  C_17
REMARK    6  A    between atoms: C_17  and  C_18
REMARK    7  A    between atoms: C_18  and  C_19
REMARK    8  A    between atoms: C_19  and  C_20
REMARK    9  A    between atoms: C_20  and  O_22
REMARK                            x       y       z     vdW  Elec       q    Type
REMARK                         _______ _______ _______ _____ _____    ______ ____
ROOT
ATOM      1  N   UNL     1      -0.621  10.652  21.688  0.00  0.00    +0.000 N 
ATOM      2  C   UNL     1      -0.507  10.567  20.221  0.00  0.00    +0.000 C 
ATOM      3  C   UNL     1       0.914  10.114  19.821  0.00  0.00    +0.000 C 
ATOM      4  N   UNL     1       1.253   8.864  20.522  0.00  0.00    +0.000 N 
ATOM      5  C   UNL     1       1.169   8.947  21.989  0.00  0.00    +0.000 C 
ATOM      6  C   UNL     1      -0.240   9.422  22.410  0.00  0.00    +0.000 C 
ENDROOT
BRANCH   1  10
ATOM      7  C   UNL     1      -2.000  14.086  23.693  0.00  0.00    +0.000 A 
ATOM      8  C   UNL     1      -0.843  14.143  22.920  0.00  0.00    +0.000 A 
ATOM      9  C   UNL     1      -0.401  13.002  22.244  0.00  0.00    +0.000 A 
ATOM     10  C   UNL     1      -1.096  11.784  22.309  0.00  0.00    +0.000 A 
ATOM     11  C   UNL     1      -2.277  11.766  23.065  0.00  0.00    +0.000 A 
ATOM     12  C   UNL     1      -2.727  12.898  23.755  0.00  0.00    +0.000 A 
BRANCH   7  14
ATOM     13  N   UNL     1      -3.085  16.226  23.838  0.00  0.00    +0.000 NA
ATOM     14  C   UNL     1      -2.442  15.286  24.451  0.00  0.00    +0.000 C 
ATOM     15  N   UNL     1      -2.144  15.406  25.777  0.00  0.00    +0.000 N 
ATOM     16  H   UNL     1      -3.345  16.957  24.501  0.00  0.00    +0.000 HD
ATOM     17  H   UNL     1      -2.165  16.350  26.145  0.00  0.00    +0.000 HD
ATOM     18  H   UNL     1      -1.308  14.913  26.077  0.00  0.00    +0.000 HD
ENDBRANCH   7  14
ENDBRANCH   1  10
BRANCH   4  19
ATOM     19  C   UNL     1       1.844   7.808  19.870  0.00  0.00    +0.000 A 
ATOM     20  C   UNL     1       2.035   6.580  20.510  0.00  0.00    +0.000 A 
ATOM     21  C   UNL     1       2.708   5.526  19.896  0.00  0.00    +0.000 A 
ATOM     22  C   UNL     1       3.219   5.666  18.607  0.00  0.00    +0.000 A 
ATOM     23  C   UNL     1       3.021   6.868  17.939  0.00  0.00    +0.000 A 
ATOM     24  C   UNL     1       2.338   7.926  18.564  0.00  0.00    +0.000 A 
BRANCH  22  25
ATOM     25  O   UNL     1       3.930   4.702  17.940  0.00  0.00    +0.000 OA
BRANCH  25  26
ATOM     26  C   UNL     1       5.122   4.272  18.609  0.00  0.00    +0.000 C 
BRANCH  26  27
ATOM     27  C   UNL     1       6.281   5.201  18.272  0.00  0.00    +0.000 C 
BRANCH  27  28
ATOM     28  C   UNL     1       7.348   4.554  17.396  0.00  0.00    +0.000 C 
BRANCH  28  29
ATOM     29  C   UNL     1       6.975   4.594  15.938  0.00  0.00    +0.000 C 
ATOM     30  O   UNL     1       6.268   3.759  15.391  0.00  0.00    +0.000 OA
BRANCH  29  31
ATOM     31  O   UNL     1       7.543   5.618  15.264  0.00  0.00    +0.000 OA
ATOM     32  H   UNL     1       8.512   5.527  15.147  0.00  0.00    +0.000 HD
ENDBRANCH  29  31
ENDBRANCH  28  29
ENDBRANCH  27  28
ENDBRANCH  26  27
ENDBRANCH  25  26
ENDBRANCH  22  25
ENDBRANCH   4  19
TORSDOF 9
ENDMDL
MODEL 8
REMARK VINA RESULT:      -6.9      1.267      1.481
REMARK  Name = 
REMARK  9 active torsions:
REMARK  status: ('A' for Active; 'I' for Inactive)
REMARK    1  A    between atoms: C_2  and  C_4
REMARK    2  A    between atoms: C_7  and  N_8
REMARK    3  A    between atoms: N_11  and  C_12
REMARK    4  A    between atoms: C_15  and  O_16
REMARK    5  A    between atoms: O_16  and  C_17
REMARK    6  A    between atoms: C_17  and  C_18
REMARK    7  A    between atoms: C_18  and  C_19
REMARK    8  A    between atoms: C_19  and  C_20
REMARK    9  A    between atoms: C_20  and  O_22
REMARK                            x       y       z     vdW  Elec       q    Type
REMARK                         _______ _______ _______ _____ _____    ______ ____
ROOT
ATOM      1  N   UNL     1      -0.392  11.292  21.347  0.00  0.00    +0.000 N 
ATOM      2  C   UNL     1       0.051  10.128  22.134  0.00  0.00    +0.000 C 
ATOM      3  C   UNL     1       0.038   8.856  21.260  0.00  0.00    +0.000 C 
ATOM      4  N   UNL     1       0.825   9.085  20.036  0.00  0.00    +0.000 N 
ATOM      5  C   UNL     1       0.372  10.230  19.229  0.00  0.00    +0.000 C 
ATOM      6  C   UNL     1       0.355  11.511  20.092  0.00  0.00    +0.000 C 
ENDROOT
BRANCH   1  10
ATOM      7  C   UNL     1      -3.520  13.734  22.749  0.00  0.00    +0.000 A 
ATOM      8  C   UNL     1      -2.473  13.382  23.597  0.00  0.00    +0.000 A 
ATOM      9  C   UNL     1      -1.429  12.584  23.118  0.00  0.00    +0.000 A 
ATOM     10  C   UNL     1      -1.393  12.125  21.792  0.00  0.00    +0.000 A 
ATOM     11  C   UNL     1      -2.442  12.526  20.952  0.00  0.00    +0.000 A 
ATOM     12  C   UNL     1      -3.498  13.317  21.420  0.00  0.00    +0.000 A 
BRANCH   7  14
ATOM     13  N   UNL     1      -4.575  15.061  24.454  0.00  0.00    +0.000 NA
ATOM     14  C   UNL     1      -4.653  14.542  23.273  0.00  0.00    +0.000 C 
ATOM     15  N   UNL     1      -5.780  14.709  22.520  0.00  0.00    +0.000 N 
ATOM     16  H   UNL     1      -5.412  15.609  24.649  0.00  0.00    +0.000 HD
ATOM     17  H   UNL     1      -6.614  14.963  23.035  0.00  0.00    +0.000 HD
ATOM     18  H   UNL     1      -5.970  13.962  21.858  0.00  0.00    +0.000 HD
ENDBRANCH   7  14
ENDBRANCH   1  10
BRANCH   4  19
ATOM     19  C   UNL     1       1.724   8.156  19.570  0.00  0.00    +0.000 A 
ATOM     20  C   UNL     1       2.380   8.334  18.349  0.00  0.00    +0.000 A 
ATOM     21  C   UNL     1       3.228   7.365  17.820  0.00  0.00    +0.000 A 
ATOM     22  C   UNL     1       3.452   6.170  18.502  0.00  0.00    +0.000 A 
ATOM     23  C   UNL     1       2.832   5.977  19.729  0.00  0.00    +0.000 A 
ATOM     24  C   UNL     1       1.979   6.962  20.259  0.00  0.00    +0.000 A 
BRANCH  22  25
ATOM     25  O   UNL     1       4.235   5.143  18.040  0.00  0.00    +0.000 OA
BRANCH  25  26
ATOM     26  C   UNL     1       5.141   4.604  19.010  0.00  0.00    +0.000 C 
BRANCH  26  27
ATOM     27  C   UNL     1       6.386   5.476  19.113  0.00  0.00    +0.000 C 
BRANCH  27  28
ATOM     28  C   UNL     1       7.298   5.383  17.896  0.00  0.00    +0.000 C 
BRANCH  28  29
ATOM     29  C   UNL     1       7.130   6.565  16.978  0.00  0.00    +0.000 C 
ATOM     30  O   UNL     1       7.785   7.595  17.064  0.00  0.00    +0.000 OA
BRANCH  29  31
ATOM     31  O   UNL     1       6.142   6.407  16.071  0.00  0.00    +0.000 OA
ATOM     32  H   UNL     1       5.855   7.242  15.647  0.00  0.00    +0.000 HD
ENDBRANCH  29  31
ENDBRANCH  28  29
ENDBRANCH  27  28
ENDBRANCH  26  27
ENDBRANCH  25  26
ENDBRANCH  22  25
ENDBRANCH   4  19
TORSDOF 9
ENDMDL
MODEL 9
REMARK VINA RESULT:      -6.9      1.753      2.971
REMARK  Name = 
REMARK  9 active torsions:
REMARK  status: ('A' for Active; 'I' for Inactive)
REMARK    1  A    between atoms: C_2  and  C_4
REMARK    2  A    between atoms: C_7  and  N_8
REMARK    3  A    between atoms: N_11  and  C_12
REMARK    4  A    between atoms: C_15  and  O_16
REMARK    5  A    between atoms: O_16  and  C_17
REMARK    6  A    between atoms: C_17  and  C_18
REMARK    7  A    between atoms: C_18  and  C_19
REMARK    8  A    between atoms: C_19  and  C_20
REMARK    9  A    between atoms: C_20  and  O_22
REMARK                            x       y       z     vdW  Elec       q    Type
REMARK                         _______ _______ _______ _____ _____    ______ ____
ROOT
ATOM      1  N   UNL     1      -0.664  11.274  21.288  0.00  0.00    +0.000 N 
ATOM      2  C   UNL     1       0.086  10.256  22.044  0.00  0.00    +0.000 C 
ATOM      3  C   UNL     1       0.117   8.925  21.262  0.00  0.00    +0.000 C 
ATOM      4  N   UNL     1       0.630   9.159  19.902  0.00  0.00    +0.000 N 
ATOM      5  C   UNL     1      -0.129  10.154  19.129  0.00  0.00    +0.000 C 
ATOM      6  C   UNL     1      -0.193  11.489  19.905  0.00  0.00    +0.000 C 
ENDROOT
BRANCH   1  10
ATOM      7  C   UNL     1      -3.879  13.373  23.011  0.00  0.00    +0.000 A 
ATOM      8  C   UNL     1      -3.181  12.425  23.757  0.00  0.00    +0.000 A 
ATOM      9  C   UNL     1      -2.104  11.744  23.182  0.00  0.00    +0.000 A 
ATOM     10  C   UNL     1      -1.688  11.990  21.864  0.00  0.00    +0.000 A 
ATOM     11  C   UNL     1      -2.386  12.976  21.150  0.00  0.00    +0.000 A 
ATOM     12  C   UNL     1      -3.473  13.658  21.709  0.00  0.00    +0.000 A 
BRANCH   7  14
ATOM     13  N   UNL     1      -5.903  13.383  24.310  0.00  0.00    +0.000 NA
ATOM     14  C   UNL     1      -5.055  14.061  23.608  0.00  0.00    +0.000 C 
ATOM     15  N   UNL     1      -5.250  15.394  23.389  0.00  0.00    +0.000 N 
ATOM     16  H   UNL     1      -6.626  14.003  24.674  0.00  0.00    +0.000 HD
ATOM     17  H   UNL     1      -6.199  15.722  23.522  0.00  0.00    +0.000 HD
ATOM     18  H   UNL     1      -4.855  15.751  22.524  0.00  0.00    +0.000 HD
ENDBRANCH   7  14
ENDBRANCH   1  10
BRANCH   4  19
ATOM     19  C   UNL     1       1.566   8.330  19.330  0.00  0.00    +0.000 A 
ATOM     20  C   UNL     1       2.017   7.185  19.992  0.00  0.00    +0.000 A 
ATOM     21  C   UNL     1       3.026   6.380  19.467  0.00  0.00    +0.000 A 
ATOM     22  C   UNL     1       3.625   6.698  18.250  0.00  0.00    +0.000 A 
ATOM     23  C   UNL     1       3.179   7.817  17.560  0.00  0.00    +0.000 A 
ATOM     24  C   UNL     1       2.157   8.622  18.093  0.00  0.00    +0.000 A 
BRANCH  22  25
ATOM     25  O   UNL     1       4.652   5.991  17.677  0.00  0.00    +0.000 OA
BRANCH  25  26
ATOM     26  C   UNL     1       4.730   4.620  18.085  0.00  0.00    +0.000 C 
BRANCH  26  27
ATOM     27  C   UNL     1       4.020   3.727  17.076  0.00  0.00    +0.000 C 
BRANCH  27  28
ATOM     28  C   UNL     1       3.495   2.427  17.674  0.00  0.00    +0.000 C 
BRANCH  28  29
ATOM     29  C   UNL     1       2.046   2.536  18.066  0.00  0.00    +0.000 C 
ATOM     30  O   UNL     1       1.313   3.453  17.723  0.00  0.00    +0.000 OA
BRANCH  29  31
ATOM     31  O   UNL     1       1.634   1.546  18.888  0.00  0.00    +0.000 OA
ATOM     32  H   UNL     1       1.956   0.657  18.632  0.00  0.00    +0.000 HD
ENDBRANCH  29  31
ENDBRANCH  28  29
ENDBRANCH  27  28
ENDBRANCH  26  27
ENDBRANCH  25  26
ENDBRANCH  22  25
ENDBRANCH   4  19
TORSDOF 9
ENDMDL
