MODEL 1
REMARK VINA RESULT:      -6.5      0.000      0.000
REMARK  Name = 
REMARK  8 active torsions:
REMARK  status: ('A' for Active; 'I' for Inactive)
REMARK    1  A    between atoms: C_1  and  C_2
REMARK    2  A    between atoms: C_2  and  C_3
REMARK    3  A    between atoms: C_8  and  C_9
REMARK    4  A    between atoms: C_8  and  C_10
REMARK    5  A    between atoms: N_12  and  C_13
REMARK    6  A    between atoms: C_13  and  C_14
REMARK    7  A    between atoms: C_17  and  S_18
REMARK    8  A    between atoms: S_18  and  C_19
REMARK                            x       y       z     vdW  Elec       q    Type
REMARK                         _______ _______ _______ _____ _____    ______ ____
ROOT
ATOM      1  C   UNL     1       4.473   3.497  18.910  0.00  0.00    +0.000 C 
ATOM      2  O   UNL     1       4.989   3.108  19.958  0.00  0.00    +0.000 OA
ATOM      3  N   UNL     1       5.237   4.068  17.904  0.00  0.00    +0.000 N 
ATOM      4  H   UNL     1       4.794   4.349  17.039  0.00  0.00    +0.000 HD
ENDROOT
BRANCH   1  10
ATOM      5  C   UNL     1       2.310   5.749  19.623  0.00  0.00    +0.000 C 
ATOM      6  O   UNL     1       1.873   6.169  20.691  0.00  0.00    +0.000 OA
ATOM      7  N   UNL     1       2.033   4.477  19.188  0.00  0.00    +0.000 N 
ATOM      8  C   UNL     1       1.124   3.526  19.817  0.00  0.00    +0.000 C 
ATOM      9  C   UNL     1       2.132   2.430  19.490  0.00  0.00    +0.000 C 
ATOM     10  C   UNL     1       2.906   3.440  18.597  0.00  0.00    +0.000 C 
ATOM     11  C   UNL     1       2.596   3.273  17.109  0.00  0.00    +0.000 C 
BRANCH   5  13
ATOM     12  C   UNL     1       2.318   7.744  18.086  0.00  0.00    +0.000 C 
ATOM     13  C   UNL     1       3.135   6.603  18.678  0.00  0.00    +0.000 C 
ENDBRANCH   5  13
ENDBRANCH   1  10
BRANCH   3  14
ATOM     14  C   UNL     1       6.675   4.193  17.999  0.00  0.00    +0.000 C 
BRANCH  14  15
ATOM     15  C   UNL     1       7.109   5.635  17.956  0.00  0.00    +0.000 A 
ATOM     16  C   UNL     1       8.019   6.147  18.886  0.00  0.00    +0.000 A 
ATOM     17  C   UNL     1       8.392   7.497  18.840  0.00  0.00    +0.000 A 
ATOM     18  C   UNL     1       7.861   8.361  17.872  0.00  0.00    +0.000 A 
ATOM     19  C   UNL     1       6.941   7.850  16.956  0.00  0.00    +0.000 A 
ATOM     20  C   UNL     1       6.570   6.502  16.996  0.00  0.00    +0.000 A 
BRANCH  18  21
ATOM     21  S   UNL     1       8.353  10.077  17.939  0.00  0.00    +0.000 S 
ATOM     22  C   UNL     1       9.322  10.150  19.470  0.00  0.00    +0.000 C 
ENDBRANCH  18  21
ENDBRANCH  14  15
ENDBRANCH   3  14
TORSDOF 5
ENDMDL
MODEL 2
REMARK VINA RESULT:      -6.4      3.177      5.876
REMARK  Name = 
REMARK  8 active torsions:
REMARK  status: ('A' for Active; 'I' for Inactive)
REMARK    1  A    between atoms: C_1  and  C_2
REMARK    2  A    between atoms: C_2  and  C_3
REMARK    3  A    between atoms: C_8  and  C_9
REMARK    4  A    between atoms: C_8  and  C_10
REMARK    5  A    between atoms: N_12  and  C_13
REMARK    6  A    between atoms: C_13  and  C_14
REMARK    7  A    between atoms: C_17  and  S_18
REMARK    8  A    between atoms: S_18  and  C_19
REMARK                            x       y       z     vdW  Elec       q    Type
REMARK                         _______ _______ _______ _____ _____    ______ ____
ROOT
ATOM      1  C   UNL     1       5.179   6.508  16.429  0.00  0.00    +0.000 C 
ATOM      2  O   UNL     1       5.019   6.801  15.244  0.00  0.00    +0.000 OA
ATOM      3  N   UNL     1       4.324   6.989  17.408  0.00  0.00    +0.000 N 
ATOM      4  H   UNL     1       4.459   6.708  18.370  0.00  0.00    +0.000 HD
ENDROOT
BRANCH   1  10
ATOM      5  C   UNL     1       4.923   4.069  18.489  0.00  0.00    +0.000 C 
ATOM      6  O   UNL     1       4.607   4.015  19.675  0.00  0.00    +0.000 OA
ATOM      7  N   UNL     1       6.094   4.663  18.088  0.00  0.00    +0.000 N 
ATOM      8  C   UNL     1       7.147   5.175  18.957  0.00  0.00    +0.000 C 
ATOM      9  C   UNL     1       7.296   6.348  17.995  0.00  0.00    +0.000 C 
ATOM     10  C   UNL     1       6.377   5.606  16.984  0.00  0.00    +0.000 C 
ATOM     11  C   UNL     1       7.163   4.902  15.876  0.00  0.00    +0.000 C 
BRANCH   5  13
ATOM     12  C   UNL     1       2.616   3.802  17.517  0.00  0.00    +0.000 C 
ATOM     13  C   UNL     1       4.090   3.443  17.385  0.00  0.00    +0.000 C 
ENDBRANCH   5  13
ENDBRANCH   1  10
BRANCH   3  14
ATOM     14  C   UNL     1       3.175   7.810  17.097  0.00  0.00    +0.000 C 
BRANCH  14  15
ATOM     15  C   UNL     1       2.390   8.156  18.336  0.00  0.00    +0.000 A 
ATOM     16  C   UNL     1       2.368   7.302  19.443  0.00  0.00    +0.000 A 
ATOM     17  C   UNL     1       1.614   7.633  20.576  0.00  0.00    +0.000 A 
ATOM     18  C   UNL     1       0.864   8.817  20.625  0.00  0.00    +0.000 A 
ATOM     19  C   UNL     1       0.876   9.660  19.513  0.00  0.00    +0.000 A 
ATOM     20  C   UNL     1       1.632   9.333  18.381  0.00  0.00    +0.000 A 
BRANCH  18  21
ATOM     21  S   UNL     1      -0.112   9.115  22.091  0.00  0.00    +0.000 S 
ATOM     22  C   UNL     1      -0.309  10.918  22.075  0.00  0.00    +0.000 C 
ENDBRANCH  18  21
ENDBRANCH  14  15
ENDBRANCH   3  14
TORSDOF 5
ENDMDL
MODEL 3
REMARK VINA RESULT:      -6.4      3.839      6.598
REMARK  Name = 
REMARK  8 active torsions:
REMARK  status: ('A' for Active; 'I' for Inactive)
REMARK    1  A    between atoms: C_1  and  C_2
REMARK    2  A    between atoms: C_2  and  C_3
REMARK    3  A    between atoms: C_8  and  C_9
REMARK    4  A    between atoms: C_8  and  C_10
REMARK    5  A    between atoms: N_12  and  C_13
REMARK    6  A    between atoms: C_13  and  C_14
REMARK    7  A    between atoms: C_17  and  S_18
REMARK    8  A    between atoms: S_18  and  C_19
REMARK                            x       y       z     vdW  Elec       q    Type
REMARK                         _______ _______ _______ _____ _____    ______ ____
ROOT
ATOM      1  C   UNL     1       3.986   6.690  17.326  0.00  0.00    +0.000 C 
ATOM      2  O   UNL     1       4.346   7.393  16.381  0.00  0.00    +0.000 OA
ATOM      3  N   UNL     1       2.975   7.100  18.181  0.00  0.00    +0.000 N 
ATOM      4  H   UNL     1       2.676   6.490  18.929  0.00  0.00    +0.000 HD
ENDROOT
BRANCH   1  10
ATOM      5  C   UNL     1       6.965   5.734  16.639  0.00  0.00    +0.000 C 
ATOM      6  O   UNL     1       7.529   5.477  15.579  0.00  0.00    +0.000 OA
ATOM      7  N   UNL     1       5.957   4.938  17.125  0.00  0.00    +0.000 N 
ATOM      8  C   UNL     1       5.512   3.668  16.565  0.00  0.00    +0.000 C 
ATOM      9  C   UNL     1       4.082   4.092  16.881  0.00  0.00    +0.000 C 
ATOM     10  C   UNL     1       4.643   5.282  17.708  0.00  0.00    +0.000 C 
ATOM     11  C   UNL     1       4.645   5.009  19.213  0.00  0.00    +0.000 C 
BRANCH   5  13
ATOM     12  C   UNL     1       8.016   6.438  18.817  0.00  0.00    +0.000 C 
ATOM     13  C   UNL     1       7.364   6.903  17.522  0.00  0.00    +0.000 C 
ENDBRANCH   5  13
ENDBRANCH   1  10
BRANCH   3  14
ATOM     14  C   UNL     1       2.253   8.338  17.988  0.00  0.00    +0.000 C 
BRANCH  14  15
ATOM     15  C   UNL     1       1.522   8.753  19.238  0.00  0.00    +0.000 A 
ATOM     16  C   UNL     1       0.711   9.892  19.260  0.00  0.00    +0.000 A 
ATOM     17  C   UNL     1       0.058  10.271  20.441  0.00  0.00    +0.000 A 
ATOM     18  C   UNL     1       0.206   9.527  21.620  0.00  0.00    +0.000 A 
ATOM     19  C   UNL     1       1.029   8.401  21.598  0.00  0.00    +0.000 A 
ATOM     20  C   UNL     1       1.679   8.017  20.420  0.00  0.00    +0.000 A 
BRANCH  18  21
ATOM     21  S   UNL     1      -0.618  10.131  23.086  0.00  0.00    +0.000 S 
ATOM     22  C   UNL     1      -1.478  11.607  22.476  0.00  0.00    +0.000 C 
ENDBRANCH  18  21
ENDBRANCH  14  15
ENDBRANCH   3  14
TORSDOF 5
ENDMDL
MODEL 4
REMARK VINA RESULT:      -6.4      3.837      5.427
REMARK  Name = 
REMARK  8 active torsions:
REMARK  status: ('A' for Active; 'I' for Inactive)
REMARK    1  A    between atoms: C_1  and  C_2
REMARK    2  A    between atoms: C_2  and  C_3
REMARK    3  A    between atoms: C_8  and  C_9
REMARK    4  A    between atoms: C_8  and  C_10
REMARK    5  A    between atoms: N_12  and  C_13
REMARK    6  A    between atoms: C_13  and  C_14
REMARK    7  A    between atoms: C_17  and  S_18
REMARK    8  A    between atoms: S_18  and  C_19
REMARK                            x       y       z     vdW  Elec       q    Type
REMARK                         _______ _______ _______ _____ _____    ______ ____
ROOT
ATOM      1  C   UNL     1       3.766   4.404  19.590  0.00  0.00    +0.000 C 
ATOM      2  O   UNL     1       4.911   4.476  19.145  0.00  0.00    +0.000 OA
ATOM      3  N   UNL     1       2.853   5.428  19.388  0.00  0.00    +0.000 N 
ATOM      4  H   UNL     1       1.908   5.330  19.736  0.00  0.00    +0.000 HD
ENDROOT
BRANCH   1  10
ATOM      5  C   UNL     1       1.466   2.343  18.740  0.00  0.00    +0.000 C 
ATOM      6  O   UNL     1       0.262   2.481  18.541  0.00  0.00    +0.000 OA
ATOM      7  N   UNL     1       2.003   2.475  19.996  0.00  0.00    +0.000 N 
ATOM      8  C   UNL     1       1.263   2.655  21.239  0.00  0.00    +0.000 C 
ATOM      9  C   UNL     1       2.343   3.640  21.675  0.00  0.00    +0.000 C 
ATOM     10  C   UNL     1       3.210   3.188  20.467  0.00  0.00    +0.000 C 
ATOM     11  C   UNL     1       4.297   2.185  20.860  0.00  0.00    +0.000 C 
BRANCH   5  13
ATOM     12  C   UNL     1       2.731   3.137  16.713  0.00  0.00    +0.000 C 
ATOM     13  C   UNL     1       2.443   1.965  17.642  0.00  0.00    +0.000 C 
ENDBRANCH   5  13
ENDBRANCH   1  10
BRANCH   3  14
ATOM     14  C   UNL     1       3.168   6.604  18.608  0.00  0.00    +0.000 C 
BRANCH  14  15
ATOM     15  C   UNL     1       2.242   7.747  18.931  0.00  0.00    +0.000 A 
ATOM     16  C   UNL     1       1.863   8.673  17.954  0.00  0.00    +0.000 A 
ATOM     17  C   UNL     1       1.018   9.741  18.283  0.00  0.00    +0.000 A 
ATOM     18  C   UNL     1       0.539   9.909  19.591  0.00  0.00    +0.000 A 
ATOM     19  C   UNL     1       0.932   8.992  20.566  0.00  0.00    +0.000 A 
ATOM     20  C   UNL     1       1.773   7.922  20.240  0.00  0.00    +0.000 A 
BRANCH  18  21
ATOM     21  S   UNL     1      -0.481  11.338  19.919  0.00  0.00    +0.000 S 
ATOM     22  C   UNL     1      -0.750  11.230  21.709  0.00  0.00    +0.000 C 
ENDBRANCH  18  21
ENDBRANCH  14  15
ENDBRANCH   3  14
TORSDOF 5
ENDMDL
MODEL 5
REMARK VINA RESULT:      -6.4      4.001      5.886
REMARK  Name = 
REMARK  8 active torsions:
REMARK  status: ('A' for Active; 'I' for Inactive)
REMARK    1  A    between atoms: C_1  and  C_2
REMARK    2  A    between atoms: C_2  and  C_3
REMARK    3  A    between atoms: C_8  and  C_9
REMARK    4  A    between atoms: C_8  and  C_10
REMARK    5  A    between atoms: N_12  and  C_13
REMARK    6  A    between atoms: C_13  and  C_14
REMARK    7  A    between atoms: C_17  and  S_18
REMARK    8  A    between atoms: S_18  and  C_19
REMARK                            x       y       z     vdW  Elec       q    Type
REMARK                         _______ _______ _______ _____ _____    ______ ____
ROOT
ATOM      1  C   UNL     1       3.274   5.340  18.321  0.00  0.00    +0.000 C 
ATOM      2  O   UNL     1       4.389   5.600  18.774  0.00  0.00    +0.000 OA
ATOM      3  N   UNL     1       2.360   6.345  18.046  0.00  0.00    +0.000 N 
ATOM      4  H   UNL     1       1.463   6.108  17.644  0.00  0.00    +0.000 HD
ENDROOT
BRANCH   1  10
ATOM      5  C   UNL     1       3.595   2.803  20.250  0.00  0.00    +0.000 C 
ATOM      6  O   UNL     1       4.574   2.156  20.611  0.00  0.00    +0.000 OA
ATOM      7  N   UNL     1       3.159   2.774  18.948  0.00  0.00    +0.000 N 
ATOM      8  C   UNL     1       3.672   1.921  17.883  0.00  0.00    +0.000 C 
ATOM      9  C   UNL     1       3.528   3.109  16.938  0.00  0.00    +0.000 C 
ATOM     10  C   UNL     1       2.733   3.861  18.041  0.00  0.00    +0.000 C 
ATOM     11  C   UNL     1       1.220   3.806  17.823  0.00  0.00    +0.000 C 
BRANCH   5  13
ATOM     12  C   UNL     1       1.463   2.933  21.583  0.00  0.00    +0.000 C 
ATOM     13  C   UNL     1       2.760   3.635  21.206  0.00  0.00    +0.000 C 
ENDBRANCH   5  13
ENDBRANCH   1  10
BRANCH   3  14
ATOM     14  C   UNL     1       2.673   7.746  18.222  0.00  0.00    +0.000 C 
BRANCH  14  15
ATOM     15  C   UNL     1       1.837   8.368  19.310  0.00  0.00    +0.000 A 
ATOM     16  C   UNL     1       1.164   9.576  19.108  0.00  0.00    +0.000 A 
ATOM     17  C   UNL     1       0.409  10.147  20.141  0.00  0.00    +0.000 A 
ATOM     18  C   UNL     1       0.315   9.527  21.396  0.00  0.00    +0.000 A 
ATOM     19  C   UNL     1       1.001   8.329  21.599  0.00  0.00    +0.000 A 
ATOM     20  C   UNL     1       1.753   7.754  20.568  0.00  0.00    +0.000 A 
BRANCH  18  21
ATOM     21  S   UNL     1      -0.620  10.368  22.664  0.00  0.00    +0.000 S 
ATOM     22  C   UNL     1      -1.304  11.792  21.772  0.00  0.00    +0.000 C 
ENDBRANCH  18  21
ENDBRANCH  14  15
ENDBRANCH   3  14
TORSDOF 5
ENDMDL
MODEL 6
REMARK VINA RESULT:      -6.4      3.794      5.601
REMARK  Name = 
REMARK  8 active torsions:
REMARK  status: ('A' for Active; 'I' for Inactive)
REMARK    1  A    between atoms: C_1  and  C_2
REMARK    2  A    between atoms: C_2  and  C_3
REMARK    3  A    between atoms: C_8  and  C_9
REMARK    4  A    between atoms: C_8  and  C_10
REMARK    5  A    between atoms: N_12  and  C_13
REMARK    6  A    between atoms: C_13  and  C_14
REMARK    7  A    between atoms: C_17  and  S_18
REMARK    8  A    between atoms: S_18  and  C_19
REMARK                            x       y       z     vdW  Elec       q    Type
REMARK                         _______ _______ _______ _____ _____    ______ ____
ROOT
ATOM      1  C   UNL     1       3.520   4.920  18.535  0.00  0.00    +0.000 C 
ATOM      2  O   UNL     1       4.468   5.169  19.280  0.00  0.00    +0.000 OA
ATOM      3  N   UNL     1       2.876   5.927  17.833  0.00  0.00    +0.000 N 
ATOM      4  H   UNL     1       2.121   5.692  17.203  0.00  0.00    +0.000 HD
ENDROOT
BRANCH   1  10
ATOM      5  C   UNL     1       3.488   2.534  20.672  0.00  0.00    +0.000 C 
ATOM      6  O   UNL     1       4.382   1.853  21.168  0.00  0.00    +0.000 OA
ATOM      7  N   UNL     1       3.162   2.427  19.342  0.00  0.00    +0.000 N 
ATOM      8  C   UNL     1       3.698   1.458  18.395  0.00  0.00    +0.000 C 
ATOM      9  C   UNL     1       3.724   2.571  17.354  0.00  0.00    +0.000 C 
ATOM     10  C   UNL     1       2.896   3.463  18.321  0.00  0.00    +0.000 C 
ATOM     11  C   UNL     1       1.407   3.492  17.972  0.00  0.00    +0.000 C 
BRANCH   5  13
ATOM     12  C   UNL     1       1.225   2.969  21.686  0.00  0.00    +0.000 C 
ATOM     13  C   UNL     1       2.639   3.496  21.483  0.00  0.00    +0.000 C 
ENDBRANCH   5  13
ENDBRANCH   1  10
BRANCH   3  14
ATOM     14  C   UNL     1       3.306   7.307  17.889  0.00  0.00    +0.000 C 
BRANCH  14  15
ATOM     15  C   UNL     1       2.275   8.181  18.555  0.00  0.00    +0.000 A 
ATOM     16  C   UNL     1       1.673   9.242  17.871  0.00  0.00    +0.000 A 
ATOM     17  C   UNL     1       0.733  10.055  18.517  0.00  0.00    +0.000 A 
ATOM     18  C   UNL     1       0.379   9.830  19.855  0.00  0.00    +0.000 A 
ATOM     19  C   UNL     1       0.993   8.780  20.539  0.00  0.00    +0.000 A 
ATOM     20  C   UNL     1       1.930   7.963  19.895  0.00  0.00    +0.000 A 
BRANCH  18  21
ATOM     21  S   UNL     1      -0.783  10.962  20.604  0.00  0.00    +0.000 S 
ATOM     22  C   UNL     1      -1.455  11.845  19.169  0.00  0.00    +0.000 C 
ENDBRANCH  18  21
ENDBRANCH  14  15
ENDBRANCH   3  14
TORSDOF 5
ENDMDL
MODEL 7
REMARK VINA RESULT:      -6.4      0.419      1.129
REMARK  Name = 
REMARK  8 active torsions:
REMARK  status: ('A' for Active; 'I' for Inactive)
REMARK    1  A    between atoms: C_1  and  C_2
REMARK    2  A    between atoms: C_2  and  C_3
REMARK    3  A    between atoms: C_8  and  C_9
REMARK    4  A    between atoms: C_8  and  C_10
REMARK    5  A    between atoms: N_12  and  C_13
REMARK    6  A    between atoms: C_13  and  C_14
REMARK    7  A    between atoms: C_17  and  S_18
REMARK    8  A    between atoms: S_18  and  C_19
REMARK                            x       y       z     vdW  Elec       q    Type
REMARK                         _______ _______ _______ _____ _____    ______ ____
ROOT
ATOM      1  C   UNL     1       4.411   3.415  18.948  0.00  0.00    +0.000 C 
ATOM      2  O   UNL     1       5.055   3.205  19.976  0.00  0.00    +0.000 OA
ATOM      3  N   UNL     1       5.039   3.811  17.778  0.00  0.00    +0.000 N 
ATOM      4  H   UNL     1       4.491   3.945  16.938  0.00  0.00    +0.000 HD
ENDROOT
BRANCH   1  10
ATOM      5  C   UNL     1       2.317   5.817  19.278  0.00  0.00    +0.000 C 
ATOM      6  O   UNL     1       1.999   6.512  20.239  0.00  0.00    +0.000 OA
ATOM      7  N   UNL     1       2.007   4.480  19.229  0.00  0.00    +0.000 N 
ATOM      8  C   UNL     1       1.186   3.747  20.185  0.00  0.00    +0.000 C 
ATOM      9  C   UNL     1       2.162   2.584  20.048  0.00  0.00    +0.000 C 
ATOM     10  C   UNL     1       2.819   3.307  18.839  0.00  0.00    +0.000 C 
ATOM     11  C   UNL     1       2.344   2.760  17.492  0.00  0.00    +0.000 C 
BRANCH   5  13
ATOM     12  C   UNL     1       2.992   7.897  18.030  0.00  0.00    +0.000 C 
ATOM     13  C   UNL     1       3.020   6.375  18.054  0.00  0.00    +0.000 C 
ENDBRANCH   5  13
ENDBRANCH   1  10
BRANCH   3  14
ATOM     14  C   UNL     1       6.475   3.950  17.678  0.00  0.00    +0.000 C 
BRANCH  14  15
ATOM     15  C   UNL     1       6.898   5.394  17.747  0.00  0.00    +0.000 A 
ATOM     16  C   UNL     1       6.381   6.345  16.862  0.00  0.00    +0.000 A 
ATOM     17  C   UNL     1       6.805   7.679  16.931  0.00  0.00    +0.000 A 
ATOM     18  C   UNL     1       7.754   8.088  17.878  0.00  0.00    +0.000 A 
ATOM     19  C   UNL     1       8.280   7.133  18.750  0.00  0.00    +0.000 A 
ATOM     20  C   UNL     1       7.855   5.801  18.686  0.00  0.00    +0.000 A 
BRANCH  18  21
ATOM     21  S   UNL     1       8.273   9.797  17.841  0.00  0.00    +0.000 S 
ATOM     22  C   UNL     1       9.216   9.957  19.382  0.00  0.00    +0.000 C 
ENDBRANCH  18  21
ENDBRANCH  14  15
ENDBRANCH   3  14
TORSDOF 5
ENDMDL
MODEL 8
REMARK VINA RESULT:      -6.3      3.777      6.385
REMARK  Name = 
REMARK  8 active torsions:
REMARK  status: ('A' for Active; 'I' for Inactive)
REMARK    1  A    between atoms: C_1  and  C_2
REMARK    2  A    between atoms: C_2  and  C_3
REMARK    3  A    between atoms: C_8  and  C_9
REMARK    4  A    between atoms: C_8  and  C_10
REMARK    5  A    between atoms: N_12  and  C_13
REMARK    6  A    between atoms: C_13  and  C_14
REMARK    7  A    between atoms: C_17  and  S_18
REMARK    8  A    between atoms: S_18  and  C_19
REMARK                            x       y       z     vdW  Elec       q    Type
REMARK                         _______ _______ _______ _____ _____    ______ ____
ROOT
ATOM      1  C   UNL     1       3.942   6.476  17.445  0.00  0.00    +0.000 C 
ATOM      2  O   UNL     1       4.432   7.148  16.536  0.00  0.00    +0.000 OA
ATOM      3  N   UNL     1       2.927   6.981  18.242  0.00  0.00    +0.000 N 
ATOM      4  H   UNL     1       2.519   6.397  18.960  0.00  0.00    +0.000 HD
ENDROOT
BRANCH   1  10
ATOM      5  C   UNL     1       6.919   5.320  17.199  0.00  0.00    +0.000 C 
ATOM      6  O   UNL     1       7.634   5.070  16.231  0.00  0.00    +0.000 OA
ATOM      7  N   UNL     1       5.790   4.584  17.462  0.00  0.00    +0.000 N 
ATOM      8  C   UNL     1       5.356   3.382  16.760  0.00  0.00    +0.000 C 
ATOM      9  C   UNL     1       3.928   3.903  16.863  0.00  0.00    +0.000 C 
ATOM     10  C   UNL     1       4.424   5.004  17.842  0.00  0.00    +0.000 C 
ATOM     11  C   UNL     1       4.153   4.658  19.308  0.00  0.00    +0.000 C 
BRANCH   5  13
ATOM     12  C   UNL     1       7.679   7.698  17.521  0.00  0.00    +0.000 C 
ATOM     13  C   UNL     1       7.246   6.409  18.204  0.00  0.00    +0.000 C 
ENDBRANCH   5  13
ENDBRANCH   1  10
BRANCH   3  14
ATOM     14  C   UNL     1       2.351   8.290  18.026  0.00  0.00    +0.000 C 
BRANCH  14  15
ATOM     15  C   UNL     1       1.610   8.776  19.244  0.00  0.00    +0.000 A 
ATOM     16  C   UNL     1       1.714   8.111  20.470  0.00  0.00    +0.000 A 
ATOM     17  C   UNL     1       0.999   8.569  21.585  0.00  0.00    +0.000 A 
ATOM     18  C   UNL     1       0.164   9.693  21.497  0.00  0.00    +0.000 A 
ATOM     19  C   UNL     1       0.051  10.344  20.269  0.00  0.00    +0.000 A 
ATOM     20  C   UNL     1       0.767   9.892  19.155  0.00  0.00    +0.000 A 
BRANCH  18  21
ATOM     21  S   UNL     1      -0.752  10.156  22.960  0.00  0.00    +0.000 S 
ATOM     22  C   UNL     1      -0.979  11.941  22.735  0.00  0.00    +0.000 C 
ENDBRANCH  18  21
ENDBRANCH  14  15
ENDBRANCH   3  14
TORSDOF 5
ENDMDL
MODEL 9
REMARK VINA RESULT:      -6.3      3.905      6.391
REMARK  Name = 
REMARK  8 active torsions:
REMARK  status: ('A' for Active; 'I' for Inactive)
REMARK    1  A    between atoms: C_1  and  C_2
REMARK    2  A    between atoms: C_2  and  C_3
REMARK    3  A    between atoms: C_8  and  C_9
REMARK    4  A    between atoms: C_8  and  C_10
REMARK    5  A    between atoms: N_12  and  C_13
REMARK    6  A    between atoms: C_13  and  C_14
REMARK    7  A    between atoms: C_17  and  S_18
REMARK    8  A    between atoms: S_18  and  C_19
REMARK                            x       y       z     vdW  Elec       q    Type
REMARK                         _______ _______ _______ _____ _____    ______ ____
ROOT
ATOM      1  C   UNL     1       1.987   5.391  19.257  0.00  0.00    +0.000 C 
ATOM      2  O   UNL     1       1.823   5.539  18.045  0.00  0.00    +0.000 OA
ATOM      3  N   UNL     1       2.208   6.477  20.089  0.00  0.00    +0.000 N 
ATOM      4  H   UNL     1       2.307   6.330  21.084  0.00  0.00    +0.000 HD
ENDROOT
BRANCH   1  10
ATOM      5  C   UNL     1       3.958   2.946  18.624  0.00  0.00    +0.000 C 
ATOM      6  O   UNL     1       4.074   2.206  17.650  0.00  0.00    +0.000 OA
ATOM      7  N   UNL     1       2.848   2.896  19.431  0.00  0.00    +0.000 N 
ATOM      8  C   UNL     1       1.760   1.929  19.347  0.00  0.00    +0.000 C 
ATOM      9  C   UNL     1       0.795   3.070  19.650  0.00  0.00    +0.000 C 
ATOM     10  C   UNL     1       2.010   3.974  19.999  0.00  0.00    +0.000 C 
ATOM     11  C   UNL     1       2.248   4.090  21.506  0.00  0.00    +0.000 C 
BRANCH   5  13
ATOM     12  C   UNL     1       5.404   4.884  17.924  0.00  0.00    +0.000 C 
ATOM     13  C   UNL     1       5.037   3.925  19.048  0.00  0.00    +0.000 C 
ENDBRANCH   5  13
ENDBRANCH   1  10
BRANCH   3  14
ATOM     14  C   UNL     1       2.208   7.838  19.601  0.00  0.00    +0.000 C 
BRANCH  14  15
ATOM     15  C   UNL     1       1.284   8.714  20.407  0.00  0.00    +0.000 A 
ATOM     16  C   UNL     1       0.643   9.815  19.830  0.00  0.00    +0.000 A 
ATOM     17  C   UNL     1      -0.195  10.629  20.604  0.00  0.00    +0.000 A 
ATOM     18  C   UNL     1      -0.405  10.364  21.965  0.00  0.00    +0.000 A 
ATOM     19  C   UNL     1       0.249   9.274  22.540  0.00  0.00    +0.000 A 
ATOM     20  C   UNL     1       1.084   8.457  21.769  0.00  0.00    +0.000 A 
BRANCH  18  21
ATOM     21  S   UNL     1      -1.442  11.499  22.876  0.00  0.00    +0.000 S 
ATOM     22  C   UNL     1      -0.821  13.117  22.343  0.00  0.00    +0.000 C 
ENDBRANCH  18  21
ENDBRANCH  14  15
ENDBRANCH   3  14
TORSDOF 5
ENDMDL
