MODEL 1
REMARK VINA RESULT:      -8.4      0.000      0.000
REMARK  Name = 
REMARK  4 active torsions:
REMARK  status: ('A' for Active; 'I' for Inactive)
REMARK    1  A    between atoms: C_5  and  C_6
REMARK    2  A    between atoms: C_6  and  C_7
REMARK    3  A    between atoms: C_7  and  N_8
REMARK    4  A    between atoms: C_19  and  N_20
REMARK                            x       y       z     vdW  Elec       q    Type
REMARK                         _______ _______ _______ _____ _____    ______ ____
ROOT
ATOM      1  N   UNL     1       1.986   8.451  18.385  0.00  0.00    +0.000 N 
ATOM      2  C   UNL     1       2.785   7.303  18.297  0.00  0.00    +0.000 A 
ATOM      3  N   UNL     1       2.544   6.293  19.140  0.00  0.00    +0.000 NA
ATOM      4  C   UNL     1       3.322   5.212  19.102  0.00  0.00    +0.000 A 
ATOM      5  N   UNL     1       3.092   4.204  20.010  0.00  0.00    +0.000 N 
ATOM      6  C   UNL     1       3.376   2.793  19.739  0.00  0.00    +0.000 C 
ATOM      7  C   UNL     1       2.091   1.958  19.845  0.00  0.00    +0.000 C 
ATOM      8  O   UNL     1       1.421   2.166  21.098  0.00  0.00    +0.000 OA
ATOM      9  C   UNL     1       1.048   3.549  21.231  0.00  0.00    +0.000 C 
ATOM     10  C   UNL     1       2.277   4.464  21.205  0.00  0.00    +0.000 C 
ATOM     11  C   UNL     1       4.359   5.153  18.199  0.00  0.00    +0.000 A 
ATOM     12  C   UNL     1       4.582   6.223  17.349  0.00  0.00    +0.000 A 
ATOM     13  N   UNL     1       3.778   7.303  17.396  0.00  0.00    +0.000 NA
ATOM     14  H   UNL     1       2.551   9.211  18.020  0.00  0.00    +0.000 HD
ENDROOT
BRANCH  12  15
ATOM     15  N   UNL     1       5.625   6.177  16.445  0.00  0.00    +0.000 N 
ATOM     16  C   UNL     1       5.432   6.030  14.995  0.00  0.00    +0.000 C 
ATOM     17  C   UNL     1       6.157   4.774  14.486  0.00  0.00    +0.000 C 
ATOM     18  O   UNL     1       7.540   4.766  14.869  0.00  0.00    +0.000 OA
ATOM     19  C   UNL     1       7.656   4.793  16.302  0.00  0.00    +0.000 C 
ATOM     20  C   UNL     1       7.013   6.052  16.899  0.00  0.00    +0.000 C 
ENDBRANCH  12  15
BRANCH   1  21
ATOM     21  C   UNL     1       1.428   8.643  19.728  0.00  0.00    +0.000 C 
BRANCH  21  22
ATOM     22  C   UNL     1       0.981  10.088  19.972  0.00  0.00    +0.000 C 
BRANCH  22  27
ATOM     23  C   UNL     1      -2.876  12.729  22.724  0.00  0.00    +0.000 A 
ATOM     24  C   UNL     1      -2.460  12.999  21.420  0.00  0.00    +0.000 A 
ATOM     25  C   UNL     1      -1.453  12.235  20.817  0.00  0.00    +0.000 A 
ATOM     26  C   UNL     1      -0.847  11.182  21.535  0.00  0.00    +0.000 A 
ATOM     27  C   UNL     1       0.189  10.228  21.245  0.00  0.00    +0.000 A 
ATOM     28  C   UNL     1       0.322   9.437  22.371  0.00  0.00    +0.000 A 
ATOM     29  N   UNL     1      -0.566   9.872  23.317  0.00  0.00    +0.000 N 
ATOM     30  C   UNL     1      -1.292  10.936  22.837  0.00  0.00    +0.000 A 
ATOM     31  C   UNL     1      -2.298  11.688  23.457  0.00  0.00    +0.000 A 
ATOM     32  H   UNL     1      -0.678   9.475  24.239  0.00  0.00    +0.000 HD
ENDBRANCH  22  27
ENDBRANCH  21  22
ENDBRANCH   1  21
TORSDOF 4
ENDMDL
MODEL 2
REMARK VINA RESULT:      -8.1      1.889      2.440
REMARK  Name = 
REMARK  4 active torsions:
REMARK  status: ('A' for Active; 'I' for Inactive)
REMARK    1  A    between atoms: C_5  and  C_6
REMARK    2  A    between atoms: C_6  and  C_7
REMARK    3  A    between atoms: C_7  and  N_8
REMARK    4  A    between atoms: C_19  and  N_20
REMARK                            x       y       z     vdW  Elec       q    Type
REMARK                         _______ _______ _______ _____ _____    ______ ____
ROOT
ATOM      1  N   UNL     1       1.937   8.652  17.854  0.00  0.00    +0.000 N 
ATOM      2  C   UNL     1       2.734   7.502  17.909  0.00  0.00    +0.000 A 
ATOM      3  N   UNL     1       2.426   6.554  18.802  0.00  0.00    +0.000 NA
ATOM      4  C   UNL     1       3.199   5.474  18.901  0.00  0.00    +0.000 A 
ATOM      5  N   UNL     1       2.895   4.534  19.859  0.00  0.00    +0.000 N 
ATOM      6  C   UNL     1       3.193   3.107  19.713  0.00  0.00    +0.000 C 
ATOM      7  C   UNL     1       1.899   2.281  19.780  0.00  0.00    +0.000 C 
ATOM      8  O   UNL     1       1.137   2.578  20.959  0.00  0.00    +0.000 OA
ATOM      9  C   UNL     1       0.761   3.966  20.964  0.00  0.00    +0.000 C 
ATOM     10  C   UNL     1       1.994   4.878  20.966  0.00  0.00    +0.000 C 
ATOM     11  C   UNL     1       4.302   5.351  18.087  0.00  0.00    +0.000 A 
ATOM     12  C   UNL     1       4.594   6.357  17.182  0.00  0.00    +0.000 A 
ATOM     13  N   UNL     1       3.793   7.437  17.090  0.00  0.00    +0.000 NA
ATOM     14  H   UNL     1       2.531   9.384  17.479  0.00  0.00    +0.000 HD
ENDROOT
BRANCH  12  15
ATOM     15  N   UNL     1       5.702   6.247  16.365  0.00  0.00    +0.000 N 
ATOM     16  C   UNL     1       5.619   6.046  14.911  0.00  0.00    +0.000 C 
ATOM     17  C   UNL     1       6.344   4.752  14.510  0.00  0.00    +0.000 C 
ATOM     18  O   UNL     1       7.692   4.724  15.002  0.00  0.00    +0.000 OA
ATOM     19  C   UNL     1       7.697   4.807  16.438  0.00  0.00    +0.000 C 
ATOM     20  C   UNL     1       7.046   6.105  16.932  0.00  0.00    +0.000 C 
ENDBRANCH  12  15
BRANCH   1  21
ATOM     21  C   UNL     1       1.279   8.939  19.132  0.00  0.00    +0.000 C 
BRANCH  21  22
ATOM     22  C   UNL     1       1.213  10.441  19.429  0.00  0.00    +0.000 C 
BRANCH  22  27
ATOM     23  C   UNL     1      -3.647  10.631  17.026  0.00  0.00    +0.000 A 
ATOM     24  C   UNL     1      -2.527   9.935  16.570  0.00  0.00    +0.000 A 
ATOM     25  C   UNL     1      -1.326   9.962  17.290  0.00  0.00    +0.000 A 
ATOM     26  C   UNL     1      -1.244  10.702  18.489  0.00  0.00    +0.000 A 
ATOM     27  C   UNL     1      -0.204  10.952  19.450  0.00  0.00    +0.000 A 
ATOM     28  C   UNL     1      -0.757  11.760  20.426  0.00  0.00    +0.000 A 
ATOM     29  N   UNL     1      -2.061  12.013  20.095  0.00  0.00    +0.000 N 
ATOM     30  C   UNL     1      -2.386  11.382  18.918  0.00  0.00    +0.000 A 
ATOM     31  C   UNL     1      -3.596  11.368  18.213  0.00  0.00    +0.000 A 
ATOM     32  H   UNL     1      -2.700  12.581  20.633  0.00  0.00    +0.000 HD
ENDBRANCH  22  27
ENDBRANCH  21  22
ENDBRANCH   1  21
TORSDOF 4
ENDMDL
MODEL 3
REMARK VINA RESULT:      -8.0      4.677     10.269
REMARK  Name = 
REMARK  4 active torsions:
REMARK  status: ('A' for Active; 'I' for Inactive)
REMARK    1  A    between atoms: C_5  and  C_6
REMARK    2  A    between atoms: C_6  and  C_7
REMARK    3  A    between atoms: C_7  and  N_8
REMARK    4  A    between atoms: C_19  and  N_20
REMARK                            x       y       z     vdW  Elec       q    Type
REMARK                         _______ _______ _______ _____ _____    ______ ____
ROOT
ATOM      1  N   UNL     1      -0.267  10.036  17.599  0.00  0.00    +0.000 N 
ATOM      2  C   UNL     1      -1.259  10.814  18.209  0.00  0.00    +0.000 A 
ATOM      3  N   UNL     1      -0.921  11.568  19.261  0.00  0.00    +0.000 NA
ATOM      4  C   UNL     1      -1.860  12.281  19.882  0.00  0.00    +0.000 A 
ATOM      5  N   UNL     1      -1.504  13.011  20.992  0.00  0.00    +0.000 N 
ATOM      6  C   UNL     1      -2.170  14.254  21.389  0.00  0.00    +0.000 C 
ATOM      7  C   UNL     1      -1.165  15.416  21.413  0.00  0.00    +0.000 C 
ATOM      8  O   UNL     1      -0.016  15.112  22.220  0.00  0.00    +0.000 OA
ATOM      9  C   UNL     1       0.667  13.963  21.687  0.00  0.00    +0.000 C 
ATOM     10  C   UNL     1      -0.240  12.727  21.684  0.00  0.00    +0.000 C 
ATOM     11  C   UNL     1      -3.160  12.227  19.434  0.00  0.00    +0.000 A 
ATOM     12  C   UNL     1      -3.473  11.428  18.349  0.00  0.00    +0.000 A 
ATOM     13  N   UNL     1      -2.507  10.723  17.727  0.00  0.00    +0.000 NA
ATOM     14  H   UNL     1      -0.753   9.261  17.159  0.00  0.00    +0.000 HD
ENDROOT
BRANCH  12  15
ATOM     15  N   UNL     1      -4.776  11.361  17.896  0.00  0.00    +0.000 N 
ATOM     16  C   UNL     1      -5.286  12.168  16.777  0.00  0.00    +0.000 C 
ATOM     17  C   UNL     1      -6.468  13.033  17.241  0.00  0.00    +0.000 C 
ATOM     18  O   UNL     1      -7.489  12.246  17.872  0.00  0.00    +0.000 OA
ATOM     19  C   UNL     1      -6.953  11.575  19.026  0.00  0.00    +0.000 C 
ATOM     20  C   UNL     1      -5.801  10.634  18.650  0.00  0.00    +0.000 C 
ENDBRANCH  12  15
BRANCH   1  21
ATOM     21  C   UNL     1       0.815   9.683  18.524  0.00  0.00    +0.000 C 
BRANCH  21  22
ATOM     22  C   UNL     1       2.002   9.029  17.809  0.00  0.00    +0.000 C 
BRANCH  22  27
ATOM     23  C   UNL     1       5.217   4.660  17.806  0.00  0.00    +0.000 A 
ATOM     24  C   UNL     1       5.105   5.603  16.784  0.00  0.00    +0.000 A 
ATOM     25  C   UNL     1       4.238   6.695  16.911  0.00  0.00    +0.000 A 
ATOM     26  C   UNL     1       3.466   6.845  18.083  0.00  0.00    +0.000 A 
ATOM     27  C   UNL     1       2.498   7.807  18.537  0.00  0.00    +0.000 A 
ATOM     28  C   UNL     1       2.102   7.401  19.798  0.00  0.00    +0.000 A 
ATOM     29  N   UNL     1       2.770   6.249  20.115  0.00  0.00    +0.000 N 
ATOM     30  C   UNL     1       3.607   5.885  19.088  0.00  0.00    +0.000 A 
ATOM     31  C   UNL     1       4.469   4.786  18.980  0.00  0.00    +0.000 A 
ATOM     32  H   UNL     1       2.667   5.734  20.977  0.00  0.00    +0.000 HD
ENDBRANCH  22  27
ENDBRANCH  21  22
ENDBRANCH   1  21
TORSDOF 4
ENDMDL
MODEL 4
REMARK VINA RESULT:      -8.0      1.883      2.390
REMARK  Name = 
REMARK  4 active torsions:
REMARK  status: ('A' for Active; 'I' for Inactive)
REMARK    1  A    between atoms: C_5  and  C_6
REMARK    2  A    between atoms: C_6  and  C_7
REMARK    3  A    between atoms: C_7  and  N_8
REMARK    4  A    between atoms: C_19  and  N_20
REMARK                            x       y       z     vdW  Elec       q    Type
REMARK                         _______ _______ _______ _____ _____    ______ ____
ROOT
ATOM      1  N   UNL     1       1.765   8.601  19.051  0.00  0.00    +0.000 N 
ATOM      2  C   UNL     1       2.581   7.494  18.785  0.00  0.00    +0.000 A 
ATOM      3  N   UNL     1       2.403   6.383  19.508  0.00  0.00    +0.000 NA
ATOM      4  C   UNL     1       3.199   5.335  19.301  0.00  0.00    +0.000 A 
ATOM      5  N   UNL     1       3.034   4.218  20.089  0.00  0.00    +0.000 N 
ATOM      6  C   UNL     1       3.332   2.858  19.634  0.00  0.00    +0.000 C 
ATOM      7  C   UNL     1       2.070   1.984  19.696  0.00  0.00    +0.000 C 
ATOM      8  O   UNL     1       1.459   2.021  20.995  0.00  0.00    +0.000 OA
ATOM      9  C   UNL     1       1.066   3.367  21.314  0.00  0.00    +0.000 C 
ATOM     10  C   UNL     1       2.274   4.310  21.342  0.00  0.00    +0.000 C 
ATOM     11  C   UNL     1       4.191   5.413  18.351  0.00  0.00    +0.000 A 
ATOM     12  C   UNL     1       4.351   6.583  17.629  0.00  0.00    +0.000 A 
ATOM     13  N   UNL     1       3.528   7.629  17.846  0.00  0.00    +0.000 NA
ATOM     14  H   UNL     1       2.296   9.414  18.756  0.00  0.00    +0.000 HD
ENDROOT
BRANCH  12  15
ATOM     15  N   UNL     1       5.348   6.675  16.679  0.00  0.00    +0.000 N 
ATOM     16  C   UNL     1       5.147   6.344  15.260  0.00  0.00    +0.000 C 
ATOM     17  C   UNL     1       6.115   5.231  14.830  0.00  0.00    +0.000 C 
ATOM     18  O   UNL     1       7.477   5.563  15.138  0.00  0.00    +0.000 OA
ATOM     19  C   UNL     1       7.630   5.759  16.555  0.00  0.00    +0.000 C 
ATOM     20  C   UNL     1       6.743   6.901  17.067  0.00  0.00    +0.000 C 
ENDBRANCH  12  15
BRANCH   1  21
ATOM     21  C   UNL     1       1.270   8.614  20.431  0.00  0.00    +0.000 C 
BRANCH  21  22
ATOM     22  C   UNL     1      -0.146   9.187  20.537  0.00  0.00    +0.000 C 
BRANCH  22  27
ATOM     23  C   UNL     1       0.902  14.402  19.468  0.00  0.00    +0.000 A 
ATOM     24  C   UNL     1       1.383  13.668  20.553  0.00  0.00    +0.000 A 
ATOM     25  C   UNL     1       1.041  12.319  20.713  0.00  0.00    +0.000 A 
ATOM     26  C   UNL     1       0.199  11.693  19.770  0.00  0.00    +0.000 A 
ATOM     27  C   UNL     1      -0.348  10.371  19.627  0.00  0.00    +0.000 A 
ATOM     28  C   UNL     1      -1.102  10.380  18.469  0.00  0.00    +0.000 A 
ATOM     29  N   UNL     1      -1.045  11.634  17.921  0.00  0.00    +0.000 N 
ATOM     30  C   UNL     1      -0.260  12.456  18.693  0.00  0.00    +0.000 A 
ATOM     31  C   UNL     1       0.070  13.806  18.516  0.00  0.00    +0.000 A 
ATOM     32  H   UNL     1      -1.510  11.922  17.072  0.00  0.00    +0.000 HD
ENDBRANCH  22  27
ENDBRANCH  21  22
ENDBRANCH   1  21
TORSDOF 4
ENDMDL
MODEL 5
REMARK VINA RESULT:      -7.9      1.769      2.371
REMARK  Name = 
REMARK  4 active torsions:
REMARK  status: ('A' for Active; 'I' for Inactive)
REMARK    1  A    between atoms: C_5  and  C_6
REMARK    2  A    between atoms: C_6  and  C_7
REMARK    3  A    between atoms: C_7  and  N_8
REMARK    4  A    between atoms: C_19  and  N_20
REMARK                            x       y       z     vdW  Elec       q    Type
REMARK                         _______ _______ _______ _____ _____    ______ ____
ROOT
ATOM      1  N   UNL     1       1.739   8.420  19.604  0.00  0.00    +0.000 N 
ATOM      2  C   UNL     1       2.537   7.343  19.198  0.00  0.00    +0.000 A 
ATOM      3  N   UNL     1       2.382   6.166  19.816  0.00  0.00    +0.000 NA
ATOM      4  C   UNL     1       3.163   5.142  19.474  0.00  0.00    +0.000 A 
ATOM      5  N   UNL     1       3.025   3.954  20.155  0.00  0.00    +0.000 N 
ATOM      6  C   UNL     1       3.296   2.645  19.558  0.00  0.00    +0.000 C 
ATOM      7  C   UNL     1       2.033   1.771  19.588  0.00  0.00    +0.000 C 
ATOM      8  O   UNL     1       1.477   1.681  20.909  0.00  0.00    +0.000 OA
ATOM      9  C   UNL     1       1.105   2.991  21.374  0.00  0.00    +0.000 C 
ATOM     10  C   UNL     1       2.319   3.924  21.443  0.00  0.00    +0.000 C 
ATOM     11  C   UNL     1       4.115   5.311  18.495  0.00  0.00    +0.000 A 
ATOM     12  C   UNL     1       4.251   6.546  17.885  0.00  0.00    +0.000 A 
ATOM     13  N   UNL     1       3.444   7.567  18.237  0.00  0.00    +0.000 NA
ATOM     14  H   UNL     1       2.262   9.257  19.368  0.00  0.00    +0.000 HD
ENDROOT
BRANCH  12  15
ATOM     15  N   UNL     1       5.208   6.728  16.906  0.00  0.00    +0.000 N 
ATOM     16  C   UNL     1       5.124   6.121  15.570  0.00  0.00    +0.000 C 
ATOM     17  C   UNL     1       6.355   5.239  15.308  0.00  0.00    +0.000 C 
ATOM     18  O   UNL     1       7.579   5.957  15.519  0.00  0.00    +0.000 OA
ATOM     19  C   UNL     1       7.651   6.423  16.878  0.00  0.00    +0.000 C 
ATOM     20  C   UNL     1       6.490   7.368  17.214  0.00  0.00    +0.000 C 
ENDBRANCH  12  15
BRANCH   1  21
ATOM     21  C   UNL     1       1.302   8.299  20.999  0.00  0.00    +0.000 C 
BRANCH  21  22
ATOM     22  C   UNL     1      -0.101   8.870  21.222  0.00  0.00    +0.000 C 
BRANCH  22  27
ATOM     23  C   UNL     1      -2.156  11.627  17.026  0.00  0.00    +0.000 A 
ATOM     24  C   UNL     1      -2.271  10.254  17.248  0.00  0.00    +0.000 A 
ATOM     25  C   UNL     1      -1.697   9.662  18.380  0.00  0.00    +0.000 A 
ATOM     26  C   UNL     1      -0.991  10.459  19.306  0.00  0.00    +0.000 A 
ATOM     27  C   UNL     1      -0.288  10.196  20.533  0.00  0.00    +0.000 A 
ATOM     28  C   UNL     1       0.187  11.415  20.982  0.00  0.00    +0.000 A 
ATOM     29  N   UNL     1      -0.182  12.383  20.088  0.00  0.00    +0.000 N 
ATOM     30  C   UNL     1      -0.900  11.830  19.055  0.00  0.00    +0.000 A 
ATOM     31  C   UNL     1      -1.467  12.441  17.929  0.00  0.00    +0.000 A 
ATOM     32  H   UNL     1       0.038  13.365  20.168  0.00  0.00    +0.000 HD
ENDBRANCH  22  27
ENDBRANCH  21  22
ENDBRANCH   1  21
TORSDOF 4
ENDMDL
MODEL 6
REMARK VINA RESULT:      -7.8      4.590      9.620
REMARK  Name = 
REMARK  4 active torsions:
REMARK  status: ('A' for Active; 'I' for Inactive)
REMARK    1  A    between atoms: C_5  and  C_6
REMARK    2  A    between atoms: C_6  and  C_7
REMARK    3  A    between atoms: C_7  and  N_8
REMARK    4  A    between atoms: C_19  and  N_20
REMARK                            x       y       z     vdW  Elec       q    Type
REMARK                         _______ _______ _______ _____ _____    ______ ____
ROOT
ATOM      1  N   UNL     1       0.879   9.246  17.488  0.00  0.00    +0.000 N 
ATOM      2  C   UNL     1       0.131  10.320  17.985  0.00  0.00    +0.000 A 
ATOM      3  N   UNL     1       0.783  11.356  18.526  0.00  0.00    +0.000 NA
ATOM      4  C   UNL     1       0.087  12.367  19.045  0.00  0.00    +0.000 A 
ATOM      5  N   UNL     1       0.775  13.399  19.641  0.00  0.00    +0.000 N 
ATOM      6  C   UNL     1       0.283  14.778  19.682  0.00  0.00    +0.000 C 
ATOM      7  C   UNL     1       1.273  15.720  18.980  0.00  0.00    +0.000 C 
ATOM      8  O   UNL     1       2.604  15.582  19.502  0.00  0.00    +0.000 OA
ATOM      9  C   UNL     1       3.073  14.237  19.300  0.00  0.00    +0.000 C 
ATOM     10  C   UNL     1       2.181  13.221  20.024  0.00  0.00    +0.000 C 
ATOM     11  C   UNL     1      -1.288  12.329  19.019  0.00  0.00    +0.000 A 
ATOM     12  C   UNL     1      -1.927  11.236  18.460  0.00  0.00    +0.000 A 
ATOM     13  N   UNL     1      -1.206  10.228  17.930  0.00  0.00    +0.000 NA
ATOM     14  H   UNL     1       0.267   8.437  17.534  0.00  0.00    +0.000 HD
ENDROOT
BRANCH  12  15
ATOM     15  N   UNL     1      -3.307  11.184  18.436  0.00  0.00    +0.000 N 
ATOM     16  C   UNL     1      -4.081  10.761  17.259  0.00  0.00    +0.000 C 
ATOM     17  C   UNL     1      -5.037  11.880  16.820  0.00  0.00    +0.000 C 
ATOM     18  O   UNL     1      -5.867  12.326  17.903  0.00  0.00    +0.000 OA
ATOM     19  C   UNL     1      -5.052  12.835  18.973  0.00  0.00    +0.000 C 
ATOM     20  C   UNL     1      -4.103  11.762  19.522  0.00  0.00    +0.000 C 
ENDBRANCH  12  15
BRANCH   1  21
ATOM     21  C   UNL     1       2.180   9.115  18.151  0.00  0.00    +0.000 C 
BRANCH  21  22
ATOM     22  C   UNL     1       2.799   7.728  17.951  0.00  0.00    +0.000 C 
BRANCH  22  27
ATOM     23  C   UNL     1       1.447   2.657  19.323  0.00  0.00    +0.000 A 
ATOM     24  C   UNL     1       1.794   3.102  18.047  0.00  0.00    +0.000 A 
ATOM     25  C   UNL     1       2.131   4.443  17.825  0.00  0.00    +0.000 A 
ATOM     26  C   UNL     1       2.116   5.357  18.900  0.00  0.00    +0.000 A 
ATOM     27  C   UNL     1       2.388   6.763  19.032  0.00  0.00    +0.000 A 
ATOM     28  C   UNL     1       2.207   7.074  20.367  0.00  0.00    +0.000 A 
ATOM     29  N   UNL     1       1.834   5.938  21.033  0.00  0.00    +0.000 N 
ATOM     30  C   UNL     1       1.769   4.875  20.165  0.00  0.00    +0.000 A 
ATOM     31  C   UNL     1       1.429   3.538  20.407  0.00  0.00    +0.000 A 
ATOM     32  H   UNL     1       1.633   5.880  22.021  0.00  0.00    +0.000 HD
ENDBRANCH  22  27
ENDBRANCH  21  22
ENDBRANCH   1  21
TORSDOF 4
ENDMDL
MODEL 7
REMARK VINA RESULT:      -7.8      3.858     10.168
REMARK  Name = 
REMARK  4 active torsions:
REMARK  status: ('A' for Active; 'I' for Inactive)
REMARK    1  A    between atoms: C_5  and  C_6
REMARK    2  A    between atoms: C_6  and  C_7
REMARK    3  A    between atoms: C_7  and  N_8
REMARK    4  A    between atoms: C_19  and  N_20
REMARK                            x       y       z     vdW  Elec       q    Type
REMARK                         _______ _______ _______ _____ _____    ______ ____
ROOT
ATOM      1  N   UNL     1       0.454   9.499  22.800  0.00  0.00    +0.000 N 
ATOM      2  C   UNL     1      -0.458  10.456  22.338  0.00  0.00    +0.000 A 
ATOM      3  N   UNL     1      -0.684  10.539  21.022  0.00  0.00    +0.000 NA
ATOM      4  C   UNL     1      -1.515  11.472  20.560  0.00  0.00    +0.000 A 
ATOM      5  N   UNL     1      -1.695  11.575  19.199  0.00  0.00    +0.000 N 
ATOM      6  C   UNL     1      -2.938  12.048  18.584  0.00  0.00    +0.000 C 
ATOM      7  C   UNL     1      -3.530  10.961  17.673  0.00  0.00    +0.000 C 
ATOM      8  O   UNL     1      -2.573  10.487  16.714  0.00  0.00    +0.000 OA
ATOM      9  C   UNL     1      -1.443   9.910  17.393  0.00  0.00    +0.000 C 
ATOM     10  C   UNL     1      -0.739  10.943  18.281  0.00  0.00    +0.000 C 
ATOM     11  C   UNL     1      -2.123  12.336  21.441  0.00  0.00    +0.000 A 
ATOM     12  C   UNL     1      -1.858  12.226  22.795  0.00  0.00    +0.000 A 
ATOM     13  N   UNL     1      -1.023  11.268  23.244  0.00  0.00    +0.000 NA
ATOM     14  H   UNL     1       0.807   9.855  23.683  0.00  0.00    +0.000 HD
ENDROOT
BRANCH  12  15
ATOM     15  N   UNL     1      -2.458  13.092  23.687  0.00  0.00    +0.000 N 
ATOM     16  C   UNL     1      -3.821  12.903  24.206  0.00  0.00    +0.000 C 
ATOM     17  C   UNL     1      -4.695  14.119  23.863  0.00  0.00    +0.000 C 
ATOM     18  O   UNL     1      -4.095  15.347  24.303  0.00  0.00    +0.000 OA
ATOM     19  C   UNL     1      -2.816  15.528  23.669  0.00  0.00    +0.000 C 
ATOM     20  C   UNL     1      -1.849  14.386  24.008  0.00  0.00    +0.000 C 
ENDBRANCH  12  15
BRANCH   1  21
ATOM     21  C   UNL     1       1.460   9.152  21.792  0.00  0.00    +0.000 C 
BRANCH  21  22
ATOM     22  C   UNL     1       1.236   7.756  21.202  0.00  0.00    +0.000 C 
BRANCH  22  27
ATOM     23  C   UNL     1       4.286   4.599  18.015  0.00  0.00    +0.000 A 
ATOM     24  C   UNL     1       3.822   4.280  19.291  0.00  0.00    +0.000 A 
ATOM     25  C   UNL     1       3.033   5.185  20.012  0.00  0.00    +0.000 A 
ATOM     26  C   UNL     1       2.705   6.435  19.445  0.00  0.00    +0.000 A 
ATOM     27  C   UNL     1       1.948   7.575  19.887  0.00  0.00    +0.000 A 
ATOM     28  C   UNL     1       1.985   8.495  18.856  0.00  0.00    +0.000 A 
ATOM     29  N   UNL     1       2.729   7.973  17.832  0.00  0.00    +0.000 N 
ATOM     30  C   UNL     1       3.182   6.718  18.163  0.00  0.00    +0.000 A 
ATOM     31  C   UNL     1       3.972   5.827  17.427  0.00  0.00    +0.000 A 
ATOM     32  H   UNL     1       2.923   8.436  16.956  0.00  0.00    +0.000 HD
ENDBRANCH  22  27
ENDBRANCH  21  22
ENDBRANCH   1  21
TORSDOF 4
ENDMDL
MODEL 8
REMARK VINA RESULT:      -7.8      4.176      9.854
REMARK  Name = 
REMARK  4 active torsions:
REMARK  status: ('A' for Active; 'I' for Inactive)
REMARK    1  A    between atoms: C_5  and  C_6
REMARK    2  A    between atoms: C_6  and  C_7
REMARK    3  A    between atoms: C_7  and  N_8
REMARK    4  A    between atoms: C_19  and  N_20
REMARK                            x       y       z     vdW  Elec       q    Type
REMARK                         _______ _______ _______ _____ _____    ______ ____
ROOT
ATOM      1  N   UNL     1       0.837   9.416  21.760  0.00  0.00    +0.000 N 
ATOM      2  C   UNL     1       0.066  10.534  21.417  0.00  0.00    +0.000 A 
ATOM      3  N   UNL     1      -0.683  10.476  20.310  0.00  0.00    +0.000 NA
ATOM      4  C   UNL     1      -1.389  11.545  19.943  0.00  0.00    +0.000 A 
ATOM      5  N   UNL     1      -2.114  11.484  18.775  0.00  0.00    +0.000 N 
ATOM      6  C   UNL     1      -3.352  12.235  18.554  0.00  0.00    +0.000 C 
ATOM      7  C   UNL     1      -4.517  11.275  18.272  0.00  0.00    +0.000 C 
ATOM      8  O   UNL     1      -4.213  10.365  17.203  0.00  0.00    +0.000 OA
ATOM      9  C   UNL     1      -3.070   9.564  17.551  0.00  0.00    +0.000 C 
ATOM     10  C   UNL     1      -1.830  10.434  17.788  0.00  0.00    +0.000 C 
ATOM     11  C   UNL     1      -1.332  12.690  20.704  0.00  0.00    +0.000 A 
ATOM     12  C   UNL     1      -0.538  12.714  21.838  0.00  0.00    +0.000 A 
ATOM     13  N   UNL     1       0.159  11.619  22.199  0.00  0.00    +0.000 NA
ATOM     14  H   UNL     1       1.611   9.771  22.312  0.00  0.00    +0.000 HD
ENDROOT
BRANCH  12  15
ATOM     15  N   UNL     1      -0.469  13.860  22.605  0.00  0.00    +0.000 N 
ATOM     16  C   UNL     1      -1.375  14.137  23.730  0.00  0.00    +0.000 C 
ATOM     17  C   UNL     1      -2.133  15.452  23.492  0.00  0.00    +0.000 C 
ATOM     18  O   UNL     1      -1.238  16.540  23.216  0.00  0.00    +0.000 OA
ATOM     19  C   UNL     1      -0.464  16.256  22.037  0.00  0.00    +0.000 C 
ATOM     20  C   UNL     1       0.380  14.986  22.206  0.00  0.00    +0.000 C 
ENDBRANCH  12  15
BRANCH   1  21
ATOM     21  C   UNL     1       1.192   8.600  20.594  0.00  0.00    +0.000 C 
BRANCH  21  22
ATOM     22  C   UNL     1       1.855   7.277  20.988  0.00  0.00    +0.000 C 
BRANCH  22  27
ATOM     23  C   UNL     1       1.412   2.464  18.525  0.00  0.00    +0.000 A 
ATOM     24  C   UNL     1       0.879   2.807  19.768  0.00  0.00    +0.000 A 
ATOM     25  C   UNL     1       1.060   4.093  20.293  0.00  0.00    +0.000 A 
ATOM     26  C   UNL     1       1.791   5.053  19.561  0.00  0.00    +0.000 A 
ATOM     27  C   UNL     1       2.169   6.422  19.789  0.00  0.00    +0.000 A 
ATOM     28  C   UNL     1       2.883   6.823  18.675  0.00  0.00    +0.000 A 
ATOM     29  N   UNL     1       2.961   5.770  17.804  0.00  0.00    +0.000 N 
ATOM     30  C   UNL     1       2.305   4.676  18.318  0.00  0.00    +0.000 A 
ATOM     31  C   UNL     1       2.135   3.396  17.776  0.00  0.00    +0.000 A 
ATOM     32  H   UNL     1       3.430   5.785  16.910  0.00  0.00    +0.000 HD
ENDBRANCH  22  27
ENDBRANCH  21  22
ENDBRANCH   1  21
TORSDOF 4
ENDMDL
MODEL 9
REMARK VINA RESULT:      -7.8      1.228      1.552
REMARK  Name = 
REMARK  4 active torsions:
REMARK  status: ('A' for Active; 'I' for Inactive)
REMARK    1  A    between atoms: C_5  and  C_6
REMARK    2  A    between atoms: C_6  and  C_7
REMARK    3  A    between atoms: C_7  and  N_8
REMARK    4  A    between atoms: C_19  and  N_20
REMARK                            x       y       z     vdW  Elec       q    Type
REMARK                         _______ _______ _______ _____ _____    ______ ____
ROOT
ATOM      1  N   UNL     1       2.001   8.526  18.512  0.00  0.00    +0.000 N 
ATOM      2  C   UNL     1       2.789   7.374  18.393  0.00  0.00    +0.000 A 
ATOM      3  N   UNL     1       2.545   6.348  19.215  0.00  0.00    +0.000 NA
ATOM      4  C   UNL     1       3.313   5.261  19.147  0.00  0.00    +0.000 A 
ATOM      5  N   UNL     1       3.079   4.235  20.034  0.00  0.00    +0.000 N 
ATOM      6  C   UNL     1       3.350   2.828  19.730  0.00  0.00    +0.000 C 
ATOM      7  C   UNL     1       2.057   2.002  19.826  0.00  0.00    +0.000 C 
ATOM      8  O   UNL     1       1.397   2.187  21.087  0.00  0.00    +0.000 OA
ATOM      9  C   UNL     1       1.037   3.570  21.253  0.00  0.00    +0.000 C 
ATOM     10  C   UNL     1       2.274   4.475  21.239  0.00  0.00    +0.000 C 
ATOM     11  C   UNL     1       4.344   5.213  18.237  0.00  0.00    +0.000 A 
ATOM     12  C   UNL     1       4.571   6.300  17.410  0.00  0.00    +0.000 A 
ATOM     13  N   UNL     1       3.776   7.385  17.486  0.00  0.00    +0.000 NA
ATOM     14  H   UNL     1       2.570   9.289  18.160  0.00  0.00    +0.000 HD
ENDROOT
BRANCH  12  15
ATOM     15  N   UNL     1       5.608   6.265  16.499  0.00  0.00    +0.000 N 
ATOM     16  C   UNL     1       5.406   6.130  15.048  0.00  0.00    +0.000 C 
ATOM     17  C   UNL     1       6.131   4.881  14.524  0.00  0.00    +0.000 C 
ATOM     18  O   UNL     1       7.517   4.874  14.898  0.00  0.00    +0.000 OA
ATOM     19  C   UNL     1       7.643   4.890  16.331  0.00  0.00    +0.000 C 
ATOM     20  C   UNL     1       6.999   6.142  16.942  0.00  0.00    +0.000 C 
ENDBRANCH  12  15
BRANCH   1  21
ATOM     21  C   UNL     1       1.452   8.693  19.861  0.00  0.00    +0.000 C 
BRANCH  21  22
ATOM     22  C   UNL     1       0.159   9.514  19.867  0.00  0.00    +0.000 C 
BRANCH  22  27
ATOM     23  C   UNL     1      -1.062  13.671  23.131  0.00  0.00    +0.000 A 
ATOM     24  C   UNL     1      -1.617  12.392  23.182  0.00  0.00    +0.000 A 
ATOM     25  C   UNL     1      -1.209  11.400  22.281  0.00  0.00    +0.000 A 
ATOM     26  C   UNL     1      -0.229  11.695  21.309  0.00  0.00    +0.000 A 
ATOM     27  C   UNL     1       0.402  10.950  20.253  0.00  0.00    +0.000 A 
ATOM     28  C   UNL     1       1.301  11.808  19.649  0.00  0.00    +0.000 A 
ATOM     29  N   UNL     1       1.233  13.023  20.276  0.00  0.00    +0.000 N 
ATOM     30  C   UNL     1       0.308  12.985  21.291  0.00  0.00    +0.000 A 
ATOM     31  C   UNL     1      -0.087  13.990  22.183  0.00  0.00    +0.000 A 
ATOM     32  H   UNL     1       1.780  13.836  20.033  0.00  0.00    +0.000 HD
ENDBRANCH  22  27
ENDBRANCH  21  22
ENDBRANCH   1  21
TORSDOF 4
ENDMDL
