MODEL 1
REMARK VINA RESULT:      -8.9      0.000      0.000
REMARK  Name = 
REMARK  8 active torsions:
REMARK  status: ('A' for Active; 'I' for Inactive)
REMARK    1  A    between atoms: C_2  and  C_3
REMARK    2  A    between atoms: C_7  and  C_8
REMARK    3  A    between atoms: C_8  and  C_9
REMARK    4  A    between atoms: C_8  and  N_11
REMARK    5  A    between atoms: C_15  and  C_17
REMARK    6  A    between atoms: C_17  and  C_18
REMARK    7  A    between atoms: C_18  and  C_19
REMARK    8  A    between atoms: C_18  and  C_25
REMARK                            x       y       z     vdW  Elec       q    Type
REMARK                         _______ _______ _______ _____ _____    ______ ____
ROOT
ATOM      1  N   UNL     1      -0.862  10.873  20.669  0.00  0.00    +0.000 NA
ATOM      2  C   UNL     1      -0.850  10.168  19.372  0.00  0.00    +0.000 C 
ATOM      3  C   UNL     1       0.576  10.099  18.847  0.00  0.00    +0.000 C 
ATOM      4  N   UNL     1       1.250   9.047  19.553  0.00  0.00    +0.000 N 
ATOM      5  C   UNL     1       2.092   8.289  18.768  0.00  0.00    +0.000 C 
ATOM      6  O   UNL     1       2.350   8.598  17.600  0.00  0.00    +0.000 OA
ATOM      7  C   UNL     1       1.097   9.079  21.028  0.00  0.00    +0.000 C 
ATOM      8  C   UNL     1      -0.027  10.057  21.598  0.00  0.00    +0.000 C 
ENDROOT
BRANCH   1   9
ATOM      9  C   UNL     1      -0.469  12.323  20.498  0.00  0.00    +0.000 C 
BRANCH   9  14
ATOM     10  C   UNL     1      -3.337  13.321  22.851  0.00  0.00    +0.000 A 
ATOM     11  C   UNL     1      -3.864  14.430  22.183  0.00  0.00    +0.000 A 
ATOM     12  C   UNL     1      -3.174  14.985  21.104  0.00  0.00    +0.000 A 
ATOM     13  C   UNL     1      -1.990  14.396  20.649  0.00  0.00    +0.000 A 
ATOM     14  C   UNL     1      -1.481  13.230  21.262  0.00  0.00    +0.000 A 
ATOM     15  C   UNL     1      -2.129  12.749  22.420  0.00  0.00    +0.000 A 
BRANCH  10  17
ATOM     16  N   UNL     1      -4.729  12.144  24.699  0.00  0.00    +0.000 NA
ATOM     17  C   UNL     1      -4.098  12.688  23.889  0.00  0.00    +0.000 C 
ENDBRANCH  10  17
ENDBRANCH   9  14
BRANCH   9  18
ATOM     18  C   UNL     1       0.934  12.651  20.878  0.00  0.00    +0.000 C 
ATOM     19  N   UNL     1       2.024  12.967  21.102  0.00  0.00    +0.000 NA
ENDBRANCH   9  18
ENDBRANCH   1   9
BRANCH   5  20
ATOM     20  C   UNL     1       2.532   6.960  19.309  0.00  0.00    +0.000 C 
BRANCH  20  21
ATOM     21  C   UNL     1       3.047   6.033  18.180  0.00  0.00    +0.000 C 
BRANCH  21  22
ATOM     22  C   UNL     1       4.572   6.012  18.144  0.00  0.00    +0.000 A 
ATOM     23  C   UNL     1       5.314   5.419  19.175  0.00  0.00    +0.000 A 
ATOM     24  C   UNL     1       6.707   5.489  19.178  0.00  0.00    +0.000 A 
ATOM     25  C   UNL     1       7.377   6.142  18.145  0.00  0.00    +0.000 A 
ATOM     26  C   UNL     1       6.659   6.726  17.107  0.00  0.00    +0.000 A 
ATOM     27  C   UNL     1       5.264   6.663  17.106  0.00  0.00    +0.000 A 
ENDBRANCH  21  22
BRANCH  21  28
ATOM     28  C   UNL     1       2.399   4.652  18.267  0.00  0.00    +0.000 A 
ATOM     29  C   UNL     1       1.495   4.373  19.303  0.00  0.00    +0.000 A 
ATOM     30  C   UNL     1       1.040   3.069  19.514  0.00  0.00    +0.000 A 
ATOM     31  C   UNL     1       1.481   2.030  18.696  0.00  0.00    +0.000 A 
ATOM     32  C   UNL     1       2.334   2.302  17.634  0.00  0.00    +0.000 A 
ATOM     33  C   UNL     1       2.766   3.605  17.405  0.00  0.00    +0.000 A 
ENDBRANCH  21  28
ENDBRANCH  20  21
ENDBRANCH   5  20
TORSDOF 8
ENDMDL
MODEL 2
REMARK VINA RESULT:      -8.7      0.810      1.162
REMARK  Name = 
REMARK  8 active torsions:
REMARK  status: ('A' for Active; 'I' for Inactive)
REMARK    1  A    between atoms: C_2  and  C_3
REMARK    2  A    between atoms: C_7  and  C_8
REMARK    3  A    between atoms: C_8  and  C_9
REMARK    4  A    between atoms: C_8  and  N_11
REMARK    5  A    between atoms: C_15  and  C_17
REMARK    6  A    between atoms: C_17  and  C_18
REMARK    7  A    between atoms: C_18  and  C_19
REMARK    8  A    between atoms: C_18  and  C_25
REMARK                            x       y       z     vdW  Elec       q    Type
REMARK                         _______ _______ _______ _____ _____    ______ ____
ROOT
ATOM      1  N   UNL     1      -0.874  10.894  20.462  0.00  0.00    +0.000 NA
ATOM      2  C   UNL     1      -0.851  10.167  19.177  0.00  0.00    +0.000 C 
ATOM      3  C   UNL     1       0.577  10.105  18.658  0.00  0.00    +0.000 C 
ATOM      4  N   UNL     1       1.261   9.071  19.383  0.00  0.00    +0.000 N 
ATOM      5  C   UNL     1       2.113   8.309  18.613  0.00  0.00    +0.000 C 
ATOM      6  O   UNL     1       2.371   8.602  17.441  0.00  0.00    +0.000 OA
ATOM      7  C   UNL     1       1.103   9.127  20.856  0.00  0.00    +0.000 C 
ATOM      8  C   UNL     1      -0.033  10.102  21.407  0.00  0.00    +0.000 C 
ENDROOT
BRANCH   1   9
ATOM      9  C   UNL     1      -0.496  12.345  20.268  0.00  0.00    +0.000 C 
BRANCH   9  14
ATOM     10  C   UNL     1      -3.952  13.471  21.510  0.00  0.00    +0.000 A 
ATOM     11  C   UNL     1      -3.909  14.841  21.230  0.00  0.00    +0.000 A 
ATOM     12  C   UNL     1      -2.706  15.435  20.848  0.00  0.00    +0.000 A 
ATOM     13  C   UNL     1      -1.557  14.654  20.683  0.00  0.00    +0.000 A 
ATOM     14  C   UNL     1      -1.597  13.258  20.888  0.00  0.00    +0.000 A 
ATOM     15  C   UNL     1      -2.791  12.691  21.381  0.00  0.00    +0.000 A 
BRANCH  10  17
ATOM     16  N   UNL     1      -6.204  12.294  22.035  0.00  0.00    +0.000 NA
ATOM     17  C   UNL     1      -5.208  12.843  21.797  0.00  0.00    +0.000 C 
ENDBRANCH  10  17
ENDBRANCH   9  14
BRANCH   9  18
ATOM     18  C   UNL     1       0.855  12.722  20.771  0.00  0.00    +0.000 C 
ATOM     19  N   UNL     1       1.862  13.080  21.216  0.00  0.00    +0.000 NA
ENDBRANCH   9  18
ENDBRANCH   1   9
BRANCH   5  20
ATOM     20  C   UNL     1       2.564   6.994  19.177  0.00  0.00    +0.000 C 
BRANCH  20  21
ATOM     21  C   UNL     1       3.087   6.051  18.066  0.00  0.00    +0.000 C 
BRANCH  21  22
ATOM     22  C   UNL     1       4.611   6.034  18.036  0.00  0.00    +0.000 A 
ATOM     23  C   UNL     1       5.319   6.410  16.887  0.00  0.00    +0.000 A 
ATOM     24  C   UNL     1       6.710   6.300  16.841  0.00  0.00    +0.000 A 
ATOM     25  C   UNL     1       7.410   5.823  17.946  0.00  0.00    +0.000 A 
ATOM     26  C   UNL     1       6.727   5.455  19.100  0.00  0.00    +0.000 A 
ATOM     27  C   UNL     1       5.335   5.558  19.146  0.00  0.00    +0.000 A 
ENDBRANCH  21  22
BRANCH  21  28
ATOM     28  C   UNL     1       2.442   4.670  18.171  0.00  0.00    +0.000 A 
ATOM     29  C   UNL     1       1.500   4.419  19.181  0.00  0.00    +0.000 A 
ATOM     30  C   UNL     1       1.044   3.119  19.415  0.00  0.00    +0.000 A 
ATOM     31  C   UNL     1       1.520   2.058  18.646  0.00  0.00    +0.000 A 
ATOM     32  C   UNL     1       2.412   2.302  17.609  0.00  0.00    +0.000 A 
ATOM     33  C   UNL     1       2.846   3.599  17.357  0.00  0.00    +0.000 A 
ENDBRANCH  21  28
ENDBRANCH  20  21
ENDBRANCH   5  20
TORSDOF 8
ENDMDL
MODEL 3
REMARK VINA RESULT:      -8.6      1.176      1.516
REMARK  Name = 
REMARK  8 active torsions:
REMARK  status: ('A' for Active; 'I' for Inactive)
REMARK    1  A    between atoms: C_2  and  C_3
REMARK    2  A    between atoms: C_7  and  C_8
REMARK    3  A    between atoms: C_8  and  C_9
REMARK    4  A    between atoms: C_8  and  N_11
REMARK    5  A    between atoms: C_15  and  C_17
REMARK    6  A    between atoms: C_17  and  C_18
REMARK    7  A    between atoms: C_18  and  C_19
REMARK    8  A    between atoms: C_18  and  C_25
REMARK                            x       y       z     vdW  Elec       q    Type
REMARK                         _______ _______ _______ _____ _____    ______ ____
ROOT
ATOM      1  N   UNL     1      -0.803  11.013  20.472  0.00  0.00    +0.000 NA
ATOM      2  C   UNL     1      -0.802  10.278  19.192  0.00  0.00    +0.000 C 
ATOM      3  C   UNL     1       0.624  10.168  18.673  0.00  0.00    +0.000 C 
ATOM      4  N   UNL     1       1.274   9.118  19.405  0.00  0.00    +0.000 N 
ATOM      5  C   UNL     1       2.103   8.325  18.641  0.00  0.00    +0.000 C 
ATOM      6  O   UNL     1       2.370   8.602  17.467  0.00  0.00    +0.000 OA
ATOM      7  C   UNL     1       1.118   9.188  20.878  0.00  0.00    +0.000 C 
ATOM      8  C   UNL     1       0.013  10.202  21.422  0.00  0.00    +0.000 C 
ENDROOT
BRANCH   1   9
ATOM      9  C   UNL     1      -0.380  12.450  20.268  0.00  0.00    +0.000 C 
BRANCH   9  14
ATOM     10  C   UNL     1      -1.779  14.545  23.169  0.00  0.00    +0.000 A 
ATOM     11  C   UNL     1      -3.156  14.407  22.965  0.00  0.00    +0.000 A 
ATOM     12  C   UNL     1      -3.630  13.829  21.787  0.00  0.00    +0.000 A 
ATOM     13  C   UNL     1      -2.732  13.331  20.837  0.00  0.00    +0.000 A 
ATOM     14  C   UNL     1      -1.339  13.393  21.057  0.00  0.00    +0.000 A 
ATOM     15  C   UNL     1      -0.875  14.079  22.200  0.00  0.00    +0.000 A 
BRANCH  10  17
ATOM     16  N   UNL     1      -0.894  15.397  25.454  0.00  0.00    +0.000 NA
ATOM     17  C   UNL     1      -1.291  15.040  24.423  0.00  0.00    +0.000 C 
ENDBRANCH  10  17
ENDBRANCH   9  14
BRANCH   9  18
ATOM     18  C   UNL     1       1.044  12.746  20.593  0.00  0.00    +0.000 C 
ATOM     19  N   UNL     1       2.142  12.915  20.918  0.00  0.00    +0.000 NA
ENDBRANCH   9  18
ENDBRANCH   1   9
BRANCH   5  20
ATOM     20  C   UNL     1       2.513   7.000  19.214  0.00  0.00    +0.000 C 
BRANCH  20  21
ATOM     21  C   UNL     1       3.067   6.058  18.118  0.00  0.00    +0.000 C 
BRANCH  21  22
ATOM     22  C   UNL     1       4.593   6.059  18.117  0.00  0.00    +0.000 A 
ATOM     23  C   UNL     1       5.318   6.556  17.026  0.00  0.00    +0.000 A 
ATOM     24  C   UNL     1       6.710   6.465  16.997  0.00  0.00    +0.000 A 
ATOM     25  C   UNL     1       7.395   5.886  18.062  0.00  0.00    +0.000 A 
ATOM     26  C   UNL     1       6.695   5.397  19.160  0.00  0.00    +0.000 A 
ATOM     27  C   UNL     1       5.301   5.481  19.188  0.00  0.00    +0.000 A 
ENDBRANCH  21  22
BRANCH  21  28
ATOM     28  C   UNL     1       2.438   4.669  18.219  0.00  0.00    +0.000 A 
ATOM     29  C   UNL     1       1.555   4.383  19.272  0.00  0.00    +0.000 A 
ATOM     30  C   UNL     1       1.119   3.073  19.494  0.00  0.00    +0.000 A 
ATOM     31  C   UNL     1       1.559   2.038  18.670  0.00  0.00    +0.000 A 
ATOM     32  C   UNL     1       2.390   2.317  17.593  0.00  0.00    +0.000 A 
ATOM     33  C   UNL     1       2.802   3.625  17.354  0.00  0.00    +0.000 A 
ENDBRANCH  21  28
ENDBRANCH  20  21
ENDBRANCH   5  20
TORSDOF 8
ENDMDL
MODEL 4
REMARK VINA RESULT:      -8.6      1.374      1.671
REMARK  Name = 
REMARK  8 active torsions:
REMARK  status: ('A' for Active; 'I' for Inactive)
REMARK    1  A    between atoms: C_2  and  C_3
REMARK    2  A    between atoms: C_7  and  C_8
REMARK    3  A    between atoms: C_8  and  C_9
REMARK    4  A    between atoms: C_8  and  N_11
REMARK    5  A    between atoms: C_15  and  C_17
REMARK    6  A    between atoms: C_17  and  C_18
REMARK    7  A    between atoms: C_18  and  C_19
REMARK    8  A    between atoms: C_18  and  C_25
REMARK                            x       y       z     vdW  Elec       q    Type
REMARK                         _______ _______ _______ _____ _____    ______ ____
ROOT
ATOM      1  N   UNL     1      -0.938  10.949  20.065  0.00  0.00    +0.000 NA
ATOM      2  C   UNL     1      -0.824  10.195  18.801  0.00  0.00    +0.000 C 
ATOM      3  C   UNL     1       0.638  10.117  18.389  0.00  0.00    +0.000 C 
ATOM      4  N   UNL     1       1.262   9.099  19.184  0.00  0.00    +0.000 N 
ATOM      5  C   UNL     1       2.165   8.318  18.496  0.00  0.00    +0.000 C 
ATOM      6  O   UNL     1       2.510   8.584  17.340  0.00  0.00    +0.000 OA
ATOM      7  C   UNL     1       0.997   9.187  20.641  0.00  0.00    +0.000 C 
ATOM      8  C   UNL     1      -0.172  10.176  21.085  0.00  0.00    +0.000 C 
ENDROOT
BRANCH   1   9
ATOM      9  C   UNL     1      -0.542  12.395  19.867  0.00  0.00    +0.000 C 
BRANCH   9  14
ATOM     10  C   UNL     1      -2.611  15.344  21.200  0.00  0.00    +0.000 A 
ATOM     11  C   UNL     1      -3.857  14.739  21.389  0.00  0.00    +0.000 A 
ATOM     12  C   UNL     1      -4.091  13.457  20.890  0.00  0.00    +0.000 A 
ATOM     13  C   UNL     1      -3.062  12.750  20.258  0.00  0.00    +0.000 A 
ATOM     14  C   UNL     1      -1.774  13.313  20.124  0.00  0.00    +0.000 A 
ATOM     15  C   UNL     1      -1.587  14.652  20.533  0.00  0.00    +0.000 A 
BRANCH  10  17
ATOM     16  N   UNL     1      -2.133  17.630  22.332  0.00  0.00    +0.000 NA
ATOM     17  C   UNL     1      -2.338  16.616  21.804  0.00  0.00    +0.000 C 
ENDBRANCH  10  17
ENDBRANCH   9  14
BRANCH   9  18
ATOM     18  C   UNL     1       0.635  12.845  20.663  0.00  0.00    +0.000 C 
ATOM     19  N   UNL     1       1.573  13.104  21.289  0.00  0.00    +0.000 NA
ENDBRANCH   9  18
ENDBRANCH   1   9
BRANCH   5  20
ATOM     20  C   UNL     1       2.569   7.014  19.120  0.00  0.00    +0.000 C 
BRANCH  20  21
ATOM     21  C   UNL     1       3.121   6.028  18.062  0.00  0.00    +0.000 C 
BRANCH  21  22
ATOM     22  C   UNL     1       4.646   5.995  18.088  0.00  0.00    +0.000 A 
ATOM     23  C   UNL     1       5.340   5.384  19.141  0.00  0.00    +0.000 A 
ATOM     24  C   UNL     1       6.733   5.442  19.202  0.00  0.00    +0.000 A 
ATOM     25  C   UNL     1       7.449   6.102  18.206  0.00  0.00    +0.000 A 
ATOM     26  C   UNL     1       6.779   6.705  17.147  0.00  0.00    +0.000 A 
ATOM     27  C   UNL     1       5.385   6.653  17.088  0.00  0.00    +0.000 A 
ENDBRANCH  21  22
BRANCH  21  28
ATOM     28  C   UNL     1       2.458   4.657  18.192  0.00  0.00    +0.000 A 
ATOM     29  C   UNL     1       1.517   4.436  19.209  0.00  0.00    +0.000 A 
ATOM     30  C   UNL     1       1.044   3.146  19.466  0.00  0.00    +0.000 A 
ATOM     31  C   UNL     1       1.503   2.066  18.714  0.00  0.00    +0.000 A 
ATOM     32  C   UNL     1       2.394   2.281  17.669  0.00  0.00    +0.000 A 
ATOM     33  C   UNL     1       2.845   3.568  17.394  0.00  0.00    +0.000 A 
ENDBRANCH  21  28
ENDBRANCH  20  21
ENDBRANCH   5  20
TORSDOF 8
ENDMDL
MODEL 5
REMARK VINA RESULT:      -8.5      1.381      1.689
REMARK  Name = 
REMARK  8 active torsions:
REMARK  status: ('A' for Active; 'I' for Inactive)
REMARK    1  A    between atoms: C_2  and  C_3
REMARK    2  A    between atoms: C_7  and  C_8
REMARK    3  A    between atoms: C_8  and  C_9
REMARK    4  A    between atoms: C_8  and  N_11
REMARK    5  A    between atoms: C_15  and  C_17
REMARK    6  A    between atoms: C_17  and  C_18
REMARK    7  A    between atoms: C_18  and  C_19
REMARK    8  A    between atoms: C_18  and  C_25
REMARK                            x       y       z     vdW  Elec       q    Type
REMARK                         _______ _______ _______ _____ _____    ______ ____
ROOT
ATOM      1  N   UNL     1      -1.051  10.316  20.307  0.00  0.00    +0.000 NA
ATOM      2  C   UNL     1      -0.905   9.691  18.978  0.00  0.00    +0.000 C 
ATOM      3  C   UNL     1       0.499   9.946  18.451  0.00  0.00    +0.000 C 
ATOM      4  N   UNL     1       1.385   9.026  19.106  0.00  0.00    +0.000 N 
ATOM      5  C   UNL     1       2.359   8.498  18.286  0.00  0.00    +0.000 C 
ATOM      6  O   UNL     1       2.535   8.909  17.135  0.00  0.00    +0.000 OA
ATOM      7  C   UNL     1       1.242   8.956  20.580  0.00  0.00    +0.000 C 
ATOM      8  C   UNL     1      -0.056   9.649  21.196  0.00  0.00    +0.000 C 
ENDROOT
BRANCH   1   9
ATOM      9  C   UNL     1      -0.971  11.822  20.206  0.00  0.00    +0.000 C 
BRANCH   9  14
ATOM     10  C   UNL     1      -3.883  12.729  22.542  0.00  0.00    +0.000 A 
ATOM     11  C   UNL     1      -4.953  12.767  21.642  0.00  0.00    +0.000 A 
ATOM     12  C   UNL     1      -4.709  12.717  20.269  0.00  0.00    +0.000 A 
ATOM     13  C   UNL     1      -3.402  12.565  19.792  0.00  0.00    +0.000 A 
ATOM     14  C   UNL     1      -2.316  12.449  20.686  0.00  0.00    +0.000 A 
ATOM     15  C   UNL     1      -2.567  12.614  22.065  0.00  0.00    +0.000 A 
BRANCH  10  17
ATOM     16  N   UNL     1      -4.394  12.618  25.084  0.00  0.00    +0.000 NA
ATOM     17  C   UNL     1      -4.141  12.672  23.951  0.00  0.00    +0.000 C 
ENDBRANCH  10  17
ENDBRANCH   9  14
BRANCH   9  18
ATOM     18  C   UNL     1       0.187  12.446  20.906  0.00  0.00    +0.000 C 
ATOM     19  N   UNL     1       1.045  12.907  21.531  0.00  0.00    +0.000 NA
ENDBRANCH   9  18
ENDBRANCH   1   9
BRANCH   5  20
ATOM     20  C   UNL     1       3.071   7.266  18.762  0.00  0.00    +0.000 C 
BRANCH  20  21
ATOM     21  C   UNL     1       2.726   6.039  17.884  0.00  0.00    +0.000 C 
BRANCH  21  22
ATOM     22  C   UNL     1       3.963   5.525  17.153  0.00  0.00    +0.000 A 
ATOM     23  C   UNL     1       4.802   6.397  16.445  0.00  0.00    +0.000 A 
ATOM     24  C   UNL     1       5.876   5.903  15.704  0.00  0.00    +0.000 A 
ATOM     25  C   UNL     1       6.131   4.534  15.669  0.00  0.00    +0.000 A 
ATOM     26  C   UNL     1       5.316   3.654  16.373  0.00  0.00    +0.000 A 
ATOM     27  C   UNL     1       4.238   4.145  17.111  0.00  0.00    +0.000 A 
ENDBRANCH  21  22
BRANCH  21  28
ATOM     28  C   UNL     1       1.985   4.976  18.693  0.00  0.00    +0.000 A 
ATOM     29  C   UNL     1       1.983   5.048  20.095  0.00  0.00    +0.000 A 
ATOM     30  C   UNL     1       1.480   3.990  20.857  0.00  0.00    +0.000 A 
ATOM     31  C   UNL     1       0.974   2.851  20.231  0.00  0.00    +0.000 A 
ATOM     32  C   UNL     1       0.922   2.791  18.844  0.00  0.00    +0.000 A 
ATOM     33  C   UNL     1       1.397   3.855  18.084  0.00  0.00    +0.000 A 
ENDBRANCH  21  28
ENDBRANCH  20  21
ENDBRANCH   5  20
TORSDOF 8
ENDMDL
MODEL 6
REMARK VINA RESULT:      -8.5      1.141      1.645
REMARK  Name = 
REMARK  8 active torsions:
REMARK  status: ('A' for Active; 'I' for Inactive)
REMARK    1  A    between atoms: C_2  and  C_3
REMARK    2  A    between atoms: C_7  and  C_8
REMARK    3  A    between atoms: C_8  and  C_9
REMARK    4  A    between atoms: C_8  and  N_11
REMARK    5  A    between atoms: C_15  and  C_17
REMARK    6  A    between atoms: C_17  and  C_18
REMARK    7  A    between atoms: C_18  and  C_19
REMARK    8  A    between atoms: C_18  and  C_25
REMARK                            x       y       z     vdW  Elec       q    Type
REMARK                         _______ _______ _______ _____ _____    ______ ____
ROOT
ATOM      1  N   UNL     1      -0.996  10.279  20.292  0.00  0.00    +0.000 NA
ATOM      2  C   UNL     1      -0.837   9.567  19.009  0.00  0.00    +0.000 C 
ATOM      3  C   UNL     1       0.569   9.795  18.475  0.00  0.00    +0.000 C 
ATOM      4  N   UNL     1       1.455   8.926  19.196  0.00  0.00    +0.000 N 
ATOM      5  C   UNL     1       2.438   8.350  18.421  0.00  0.00    +0.000 C 
ATOM      6  O   UNL     1       2.620   8.684  17.245  0.00  0.00    +0.000 OA
ATOM      7  C   UNL     1       1.302   8.954  20.671  0.00  0.00    +0.000 C 
ATOM      8  C   UNL     1      -0.004   9.679  21.230  0.00  0.00    +0.000 C 
ENDROOT
BRANCH   1   9
ATOM      9  C   UNL     1      -0.924  11.776  20.091  0.00  0.00    +0.000 C 
BRANCH   9  14
ATOM     10  C   UNL     1      -3.835  12.722  22.412  0.00  0.00    +0.000 A 
ATOM     11  C   UNL     1      -4.894  12.805  21.501  0.00  0.00    +0.000 A 
ATOM     12  C   UNL     1      -4.636  12.772  20.130  0.00  0.00    +0.000 A 
ATOM     13  C   UNL     1      -3.329  12.592  19.665  0.00  0.00    +0.000 A 
ATOM     14  C   UNL     1      -2.256  12.431  20.568  0.00  0.00    +0.000 A 
ATOM     15  C   UNL     1      -2.518  12.579  21.947  0.00  0.00    +0.000 A 
BRANCH  10  17
ATOM     16  N   UNL     1      -4.328  12.543  24.953  0.00  0.00    +0.000 NA
ATOM     17  C   UNL     1      -4.110  12.648  23.817  0.00  0.00    +0.000 C 
ENDBRANCH  10  17
ENDBRANCH   9  14
BRANCH   9  18
ATOM     18  C   UNL     1       0.252  12.445  20.715  0.00  0.00    +0.000 C 
ATOM     19  N   UNL     1       1.154  12.907  21.274  0.00  0.00    +0.000 NA
ENDBRANCH   9  18
ENDBRANCH   1   9
BRANCH   5  20
ATOM     20  C   UNL     1       3.153   7.157  18.983  0.00  0.00    +0.000 C 
BRANCH  20  21
ATOM     21  C   UNL     1       3.121   5.963  17.998  0.00  0.00    +0.000 C 
BRANCH  21  22
ATOM     22  C   UNL     1       4.522   5.634  17.492  0.00  0.00    +0.000 A 
ATOM     23  C   UNL     1       4.858   5.781  16.140  0.00  0.00    +0.000 A 
ATOM     24  C   UNL     1       6.113   5.389  15.673  0.00  0.00    +0.000 A 
ATOM     25  C   UNL     1       7.051   4.855  16.553  0.00  0.00    +0.000 A 
ATOM     26  C   UNL     1       6.741   4.711  17.901  0.00  0.00    +0.000 A 
ATOM     27  C   UNL     1       5.483   5.097  18.369  0.00  0.00    +0.000 A 
ENDBRANCH  21  22
BRANCH  21  28
ATOM     28  C   UNL     1       2.374   4.774  18.602  0.00  0.00    +0.000 A 
ATOM     29  C   UNL     1       2.139   3.633  17.820  0.00  0.00    +0.000 A 
ATOM     30  C   UNL     1       1.297   2.619  18.284  0.00  0.00    +0.000 A 
ATOM     31  C   UNL     1       0.683   2.731  19.530  0.00  0.00    +0.000 A 
ATOM     32  C   UNL     1       0.951   3.830  20.336  0.00  0.00    +0.000 A 
ATOM     33  C   UNL     1       1.811   4.828  19.887  0.00  0.00    +0.000 A 
ENDBRANCH  21  28
ENDBRANCH  20  21
ENDBRANCH   5  20
TORSDOF 8
ENDMDL
MODEL 7
REMARK VINA RESULT:      -8.4      0.890      1.260
REMARK  Name = 
REMARK  8 active torsions:
REMARK  status: ('A' for Active; 'I' for Inactive)
REMARK    1  A    between atoms: C_2  and  C_3
REMARK    2  A    between atoms: C_7  and  C_8
REMARK    3  A    between atoms: C_8  and  C_9
REMARK    4  A    between atoms: C_8  and  N_11
REMARK    5  A    between atoms: C_15  and  C_17
REMARK    6  A    between atoms: C_17  and  C_18
REMARK    7  A    between atoms: C_18  and  C_19
REMARK    8  A    between atoms: C_18  and  C_25
REMARK                            x       y       z     vdW  Elec       q    Type
REMARK                         _______ _______ _______ _____ _____    ______ ____
ROOT
ATOM      1  N   UNL     1      -0.992  10.788  20.574  0.00  0.00    +0.000 NA
ATOM      2  C   UNL     1      -0.931  10.010  19.321  0.00  0.00    +0.000 C 
ATOM      3  C   UNL     1       0.499   9.997  18.804  0.00  0.00    +0.000 C 
ATOM      4  N   UNL     1       1.231   9.030  19.571  0.00  0.00    +0.000 N 
ATOM      5  C   UNL     1       2.122   8.280  18.834  0.00  0.00    +0.000 C 
ATOM      6  O   UNL     1       2.367   8.535  17.651  0.00  0.00    +0.000 OA
ATOM      7  C   UNL     1       1.069   9.139  21.041  0.00  0.00    +0.000 C 
ATOM      8  C   UNL     1      -0.115  10.079  21.551  0.00  0.00    +0.000 C 
ENDROOT
BRANCH   1   9
ATOM      9  C   UNL     1      -0.687  12.247  20.319  0.00  0.00    +0.000 C 
BRANCH   9  14
ATOM     10  C   UNL     1      -2.906  14.185  22.783  0.00  0.00    +0.000 A 
ATOM     11  C   UNL     1      -4.170  14.005  22.212  0.00  0.00    +0.000 A 
ATOM     12  C   UNL     1      -4.283  13.453  20.936  0.00  0.00    +0.000 A 
ATOM     13  C   UNL     1      -3.142  13.021  20.252  0.00  0.00    +0.000 A 
ATOM     14  C   UNL     1      -1.863  13.125  20.842  0.00  0.00    +0.000 A 
ATOM     15  C   UNL     1      -1.755  13.787  22.084  0.00  0.00    +0.000 A 
BRANCH  10  17
ATOM     16  N   UNL     1      -2.717  14.989  25.244  0.00  0.00    +0.000 NA
ATOM     17  C   UNL     1      -2.796  14.652  24.134  0.00  0.00    +0.000 C 
ENDBRANCH  10  17
ENDBRANCH   9  14
BRANCH   9  18
ATOM     18  C   UNL     1       0.617  12.726  20.858  0.00  0.00    +0.000 C 
ATOM     19  N   UNL     1       1.670  13.022  21.237  0.00  0.00    +0.000 NA
ENDBRANCH   9  18
ENDBRANCH   1   9
BRANCH   5  20
ATOM     20  C   UNL     1       2.637   7.013  19.452  0.00  0.00    +0.000 C 
BRANCH  20  21
ATOM     21  C   UNL     1       3.114   6.010  18.374  0.00  0.00    +0.000 C 
BRANCH  21  22
ATOM     22  C   UNL     1       4.635   6.015  18.257  0.00  0.00    +0.000 A 
ATOM     23  C   UNL     1       5.439   5.414  19.235  0.00  0.00    +0.000 A 
ATOM     24  C   UNL     1       6.830   5.507  19.166  0.00  0.00    +0.000 A 
ATOM     25  C   UNL     1       7.434   6.191  18.114  0.00  0.00    +0.000 A 
ATOM     26  C   UNL     1       6.653   6.786  17.128  0.00  0.00    +0.000 A 
ATOM     27  C   UNL     1       5.261   6.699  17.199  0.00  0.00    +0.000 A 
ENDBRANCH  21  22
BRANCH  21  28
ATOM     28  C   UNL     1       2.503   4.629  18.602  0.00  0.00    +0.000 A 
ATOM     29  C   UNL     1       2.727   3.608  17.664  0.00  0.00    +0.000 A 
ATOM     30  C   UNL     1       2.027   2.401  17.752  0.00  0.00    +0.000 A 
ATOM     31  C   UNL     1       1.099   2.200  18.772  0.00  0.00    +0.000 A 
ATOM     32  C   UNL     1       0.908   3.181  19.737  0.00  0.00    +0.000 A 
ATOM     33  C   UNL     1       1.625   4.372  19.667  0.00  0.00    +0.000 A 
ENDBRANCH  21  28
ENDBRANCH  20  21
ENDBRANCH   5  20
TORSDOF 8
ENDMDL
MODEL 8
REMARK VINA RESULT:      -8.3      1.422      1.512
REMARK  Name = 
REMARK  8 active torsions:
REMARK  status: ('A' for Active; 'I' for Inactive)
REMARK    1  A    between atoms: C_2  and  C_3
REMARK    2  A    between atoms: C_7  and  C_8
REMARK    3  A    between atoms: C_8  and  C_9
REMARK    4  A    between atoms: C_8  and  N_11
REMARK    5  A    between atoms: C_15  and  C_17
REMARK    6  A    between atoms: C_17  and  C_18
REMARK    7  A    between atoms: C_18  and  C_19
REMARK    8  A    between atoms: C_18  and  C_25
REMARK                            x       y       z     vdW  Elec       q    Type
REMARK                         _______ _______ _______ _____ _____    ______ ____
ROOT
ATOM      1  N   UNL     1      -1.249  11.077  20.192  0.00  0.00    +0.000 NA
ATOM      2  C   UNL     1      -1.161  10.222  18.992  0.00  0.00    +0.000 C 
ATOM      3  C   UNL     1       0.265  10.239  18.462  0.00  0.00    +0.000 C 
ATOM      4  N   UNL     1       1.046   9.359  19.284  0.00  0.00    +0.000 N 
ATOM      5  C   UNL     1       1.965   8.603  18.589  0.00  0.00    +0.000 C 
ATOM      6  O   UNL     1       2.189   8.791  17.389  0.00  0.00    +0.000 OA
ATOM      7  C   UNL     1       0.889   9.558  20.745  0.00  0.00    +0.000 C 
ATOM      8  C   UNL     1      -0.333  10.475  21.204  0.00  0.00    +0.000 C 
ENDROOT
BRANCH   1   9
ATOM      9  C   UNL     1      -1.012  12.528  19.838  0.00  0.00    +0.000 C 
BRANCH   9  14
ATOM     10  C   UNL     1      -4.532  13.851  20.624  0.00  0.00    +0.000 A 
ATOM     11  C   UNL     1      -4.277  15.213  20.807  0.00  0.00    +0.000 A 
ATOM     12  C   UNL     1      -2.961  15.668  20.893  0.00  0.00    +0.000 A 
ATOM     13  C   UNL     1      -1.896  14.775  20.733  0.00  0.00    +0.000 A 
ATOM     14  C   UNL     1      -2.132  13.408  20.471  0.00  0.00    +0.000 A 
ATOM     15  C   UNL     1      -3.465  12.945  20.499  0.00  0.00    +0.000 A 
BRANCH  10  17
ATOM     16  N   UNL     1      -6.957  13.011  20.234  0.00  0.00    +0.000 NA
ATOM     17  C   UNL     1      -5.879  13.399  20.429  0.00  0.00    +0.000 C 
ENDBRANCH  10  17
ENDBRANCH   9  14
BRANCH   9  18
ATOM     18  C   UNL     1       0.339  13.054  20.184  0.00  0.00    +0.000 C 
ATOM     19  N   UNL     1       1.397  13.486  20.361  0.00  0.00    +0.000 NA
ENDBRANCH   9  18
ENDBRANCH   1   9
BRANCH   5  20
ATOM     20  C   UNL     1       2.541   7.405  19.284  0.00  0.00    +0.000 C 
BRANCH  20  21
ATOM     21  C   UNL     1       2.717   6.215  18.309  0.00  0.00    +0.000 C 
BRANCH  21  22
ATOM     22  C   UNL     1       4.191   5.972  18.003  0.00  0.00    +0.000 A 
ATOM     23  C   UNL     1       5.059   5.457  18.977  0.00  0.00    +0.000 A 
ATOM     24  C   UNL     1       6.423   5.328  18.715  0.00  0.00    +0.000 A 
ATOM     25  C   UNL     1       6.936   5.700  17.475  0.00  0.00    +0.000 A 
ATOM     26  C   UNL     1       6.090   6.203  16.492  0.00  0.00    +0.000 A 
ATOM     27  C   UNL     1       4.725   6.339  16.754  0.00  0.00    +0.000 A 
ENDBRANCH  21  22
BRANCH  21  28
ATOM     28  C   UNL     1       1.965   4.982  18.807  0.00  0.00    +0.000 A 
ATOM     29  C   UNL     1       1.689   4.844  20.176  0.00  0.00    +0.000 A 
ATOM     30  C   UNL     1       1.177   3.644  20.677  0.00  0.00    +0.000 A 
ATOM     31  C   UNL     1       0.933   2.572  19.820  0.00  0.00    +0.000 A 
ATOM     32  C   UNL     1       1.151   2.715  18.455  0.00  0.00    +0.000 A 
ATOM     33  C   UNL     1       1.635   3.918  17.951  0.00  0.00    +0.000 A 
ENDBRANCH  21  28
ENDBRANCH  20  21
ENDBRANCH   5  20
TORSDOF 8
ENDMDL
MODEL 9
REMARK VINA RESULT:      -8.3      1.256      1.536
REMARK  Name = 
REMARK  8 active torsions:
REMARK  status: ('A' for Active; 'I' for Inactive)
REMARK    1  A    between atoms: C_2  and  C_3
REMARK    2  A    between atoms: C_7  and  C_8
REMARK    3  A    between atoms: C_8  and  C_9
REMARK    4  A    between atoms: C_8  and  N_11
REMARK    5  A    between atoms: C_15  and  C_17
REMARK    6  A    between atoms: C_17  and  C_18
REMARK    7  A    between atoms: C_18  and  C_19
REMARK    8  A    between atoms: C_18  and  C_25
REMARK                            x       y       z     vdW  Elec       q    Type
REMARK                         _______ _______ _______ _____ _____    ______ ____
ROOT
ATOM      1  N   UNL     1      -1.036  10.432  19.761  0.00  0.00    +0.000 NA
ATOM      2  C   UNL     1      -0.769   9.720  18.496  0.00  0.00    +0.000 C 
ATOM      3  C   UNL     1       0.703   9.864  18.137  0.00  0.00    +0.000 C 
ATOM      4  N   UNL     1       1.442   8.937  18.946  0.00  0.00    +0.000 N 
ATOM      5  C   UNL     1       2.474   8.307  18.284  0.00  0.00    +0.000 C 
ATOM      6  O   UNL     1       2.815   8.637  17.144  0.00  0.00    +0.000 OA
ATOM      7  C   UNL     1       1.116   8.965  20.392  0.00  0.00    +0.000 C 
ATOM      8  C   UNL     1      -0.201   9.766  20.802  0.00  0.00    +0.000 C 
ENDROOT
BRANCH   1   9
ATOM      9  C   UNL     1      -0.850  11.923  19.591  0.00  0.00    +0.000 C 
BRANCH   9  14
ATOM     10  C   UNL     1      -3.122  13.580  22.208  0.00  0.00    +0.000 A 
ATOM     11  C   UNL     1      -4.388  13.298  21.687  0.00  0.00    +0.000 A 
ATOM     12  C   UNL     1      -4.510  12.772  20.400  0.00  0.00    +0.000 A 
ATOM     13  C   UNL     1      -3.366  12.467  19.654  0.00  0.00    +0.000 A 
ATOM     14  C   UNL     1      -2.077  12.674  20.191  0.00  0.00    +0.000 A 
ATOM     15  C   UNL     1      -1.972  13.309  21.448  0.00  0.00    +0.000 A 
BRANCH  10  17
ATOM     16  N   UNL     1      -2.887  14.417  24.653  0.00  0.00    +0.000 NA
ATOM     17  C   UNL     1      -2.993  14.019  23.567  0.00  0.00    +0.000 C 
ENDBRANCH  10  17
ENDBRANCH   9  14
BRANCH   9  18
ATOM     18  C   UNL     1       0.427  12.469  20.132  0.00  0.00    +0.000 C 
ATOM     19  N   UNL     1       1.442  12.805  20.573  0.00  0.00    +0.000 NA
ENDBRANCH   9  18
ENDBRANCH   1   9
BRANCH   5  20
ATOM     20  C   UNL     1       3.043   7.068  18.911  0.00  0.00    +0.000 C 
BRANCH  20  21
ATOM     21  C   UNL     1       3.056   5.884  17.913  0.00  0.00    +0.000 C 
BRANCH  21  22
ATOM     22  C   UNL     1       4.484   5.520  17.517  0.00  0.00    +0.000 A 
ATOM     23  C   UNL     1       4.857   5.407  16.170  0.00  0.00    +0.000 A 
ATOM     24  C   UNL     1       6.139   4.981  15.822  0.00  0.00    +0.000 A 
ATOM     25  C   UNL     1       7.068   4.675  16.814  0.00  0.00    +0.000 A 
ATOM     26  C   UNL     1       6.721   4.792  18.156  0.00  0.00    +0.000 A 
ATOM     27  C   UNL     1       5.436   5.211  18.506  0.00  0.00    +0.000 A 
ENDBRANCH  21  22
BRANCH  21  28
ATOM     28  C   UNL     1       2.230   4.713  18.441  0.00  0.00    +0.000 A 
ATOM     29  C   UNL     1       1.642   4.795  19.712  0.00  0.00    +0.000 A 
ATOM     30  C   UNL     1       1.048   3.671  20.292  0.00  0.00    +0.000 A 
ATOM     31  C   UNL     1       1.033   2.455  19.610  0.00  0.00    +0.000 A 
ATOM     32  C   UNL     1       1.564   2.374  18.329  0.00  0.00    +0.000 A 
ATOM     33  C   UNL     1       2.131   3.499  17.740  0.00  0.00    +0.000 A 
ENDBRANCH  21  28
ENDBRANCH  20  21
ENDBRANCH   5  20
TORSDOF 8
ENDMDL
