MODEL 1
REMARK VINA RESULT:      -7.7      0.000      0.000
REMARK  Name = 
REMARK  11 active torsions:
REMARK  status: ('A' for Active; 'I' for Inactive)
REMARK    1  A    between atoms: C_1  and  O_2
REMARK    2  A    between atoms: O_2  and  C_3
REMARK    3  A    between atoms: C_6  and  C_7
REMARK    4  A    between atoms: C_7  and  C_8
REMARK    5  A    between atoms: C_14  and  C_15
REMARK    6  A    between atoms: N_16  and  C_17
REMARK    7  A    between atoms: C_17  and  C_18
REMARK    8  A    between atoms: C_18  and  C_19
REMARK    9  A    between atoms: C_18  and  N_20
REMARK   10  A    between atoms: C_21  and  C_23
REMARK   11  A    between atoms: C_26  and  C_27
REMARK                            x       y       z     vdW  Elec       q    Type
REMARK                         _______ _______ _______ _____ _____    ______ ____
ROOT
ATOM      1  C   UNL     1       4.545   5.428  16.911  0.00  0.00    +0.000 C 
ATOM      2  C   UNL     1       4.398   4.381  15.760  0.00  0.00    +0.000 C 
ATOM      3  N   UNL     1       5.510   4.726  14.902  0.00  0.00    +0.000 N 
ATOM      4  C   UNL     1       6.470   5.436  15.569  0.00  0.00    +0.000 C 
ATOM      5  N   UNL     1       7.664   5.462  15.083  0.00  0.00    +0.000 NA
ATOM      6  C   UNL     1       7.566   4.506  13.921  0.00  0.00    +0.000 C 
ATOM      7  C   UNL     1       6.176   3.819  14.006  0.00  0.00    +0.000 C 
ATOM      8  C   UNL     1       5.467   3.732  12.667  0.00  0.00    +0.000 C 
ATOM      9  N   UNL     1       5.929   5.919  16.723  0.00  0.00    +0.000 N 
ENDROOT
BRANCH   1  10
ATOM     10  C   UNL     1       4.374   4.790  18.296  0.00  0.00    +0.000 C 
BRANCH  10  14
ATOM     11  C   UNL     1       1.450   6.769  20.801  0.00  0.00    +0.000 A 
ATOM     12  C   UNL     1       2.137   7.476  19.815  0.00  0.00    +0.000 A 
ATOM     13  C   UNL     1       3.079   6.836  19.006  0.00  0.00    +0.000 A 
ATOM     14  C   UNL     1       3.365   5.476  19.188  0.00  0.00    +0.000 A 
ATOM     15  C   UNL     1       2.681   4.773  20.186  0.00  0.00    +0.000 A 
ATOM     16  C   UNL     1       1.730   5.415  20.990  0.00  0.00    +0.000 A 
BRANCH  11  18
ATOM     17  C   UNL     1       0.661   8.921  21.404  0.00  0.00    +0.000 C 
ATOM     18  O   UNL     1       0.559   7.507  21.531  0.00  0.00    +0.000 OA
ENDBRANCH  11  18
ENDBRANCH  10  14
ENDBRANCH   1  10
BRANCH   9  19
ATOM     19  C   UNL     1       6.413   7.093  17.441  0.00  0.00    +0.000 C 
BRANCH  19  20
ATOM     20  C   UNL     1       7.812   6.891  18.087  0.00  0.00    +0.000 C 
ATOM     21  C   UNL     1       7.716   5.797  19.162  0.00  0.00    +0.000 C 
BRANCH  20  22
ATOM     22  N   UNL     1       8.335   8.122  18.670  0.00  0.00    +0.000 N 
ATOM     23  C   UNL     1       8.328   9.322  17.981  0.00  0.00    +0.000 C 
ATOM     24  O   UNL     1       7.927   9.439  16.830  0.00  0.00    +0.000 OA
ATOM     25  H   UNL     1       8.489   8.113  19.676  0.00  0.00    +0.000 HD
BRANCH  23  26
ATOM     26  C   UNL     1       8.890  10.507  18.682  0.00  0.00    +0.000 A 
ATOM     27  C   UNL     1       9.578  10.307  19.884  0.00  0.00    +0.000 A 
ATOM     28  C   UNL     1      10.127  11.391  20.574  0.00  0.00    +0.000 A 
ATOM     29  C   UNL     1      10.005  12.697  20.073  0.00  0.00    +0.000 A 
ATOM     30  C   UNL     1      10.629  13.838  20.824  0.00  0.00    +0.000 C 
ATOM     31  C   UNL     1       9.313  12.887  18.867  0.00  0.00    +0.000 A 
ATOM     32 BR   UNL     1       9.090  14.610  18.094  0.00  0.00    +0.000 Br
ATOM     33  C   UNL     1       8.766  11.802  18.177  0.00  0.00    +0.000 A 
ENDBRANCH  23  26
ENDBRANCH  20  22
ENDBRANCH  19  20
ENDBRANCH   9  19
TORSDOF 7
ENDMDL
MODEL 2
REMARK VINA RESULT:      -7.6      5.973      9.900
REMARK  Name = 
REMARK  11 active torsions:
REMARK  status: ('A' for Active; 'I' for Inactive)
REMARK    1  A    between atoms: C_1  and  O_2
REMARK    2  A    between atoms: O_2  and  C_3
REMARK    3  A    between atoms: C_6  and  C_7
REMARK    4  A    between atoms: C_7  and  C_8
REMARK    5  A    between atoms: C_14  and  C_15
REMARK    6  A    between atoms: N_16  and  C_17
REMARK    7  A    between atoms: C_17  and  C_18
REMARK    8  A    between atoms: C_18  and  C_19
REMARK    9  A    between atoms: C_18  and  N_20
REMARK   10  A    between atoms: C_21  and  C_23
REMARK   11  A    between atoms: C_26  and  C_27
REMARK                            x       y       z     vdW  Elec       q    Type
REMARK                         _______ _______ _______ _____ _____    ______ ____
ROOT
ATOM      1  C   UNL     1      -1.640  12.100  20.343  0.00  0.00    +0.000 C 
ATOM      2  C   UNL     1      -3.087  12.215  19.762  0.00  0.00    +0.000 C 
ATOM      3  N   UNL     1      -2.945  11.558  18.482  0.00  0.00    +0.000 N 
ATOM      4  C   UNL     1      -1.855  10.733  18.447  0.00  0.00    +0.000 C 
ATOM      5  N   UNL     1      -1.821   9.796  17.563  0.00  0.00    +0.000 NA
ATOM      6  C   UNL     1      -3.183   9.899  16.924  0.00  0.00    +0.000 C 
ATOM      7  C   UNL     1      -4.009  10.911  17.762  0.00  0.00    +0.000 C 
ATOM      8  C   UNL     1      -4.791  11.896  16.912  0.00  0.00    +0.000 C 
ATOM      9  N   UNL     1      -1.032  11.058  19.485  0.00  0.00    +0.000 N 
ENDROOT
BRANCH   1  10
ATOM     10  C   UNL     1      -1.643  11.665  21.814  0.00  0.00    +0.000 C 
BRANCH  10  14
ATOM     11  C   UNL     1      -2.780  14.803  24.572  0.00  0.00    +0.000 A 
ATOM     12  C   UNL     1      -1.489  14.749  24.049  0.00  0.00    +0.000 A 
ATOM     13  C   UNL     1      -1.123  13.736  23.159  0.00  0.00    +0.000 A 
ATOM     14  C   UNL     1      -2.043  12.746  22.792  0.00  0.00    +0.000 A 
ATOM     15  C   UNL     1      -3.336  12.798  23.326  0.00  0.00    +0.000 A 
ATOM     16  C   UNL     1      -3.703  13.820  24.213  0.00  0.00    +0.000 A 
BRANCH  11  18
ATOM     17  C   UNL     1      -4.036  16.752  25.062  0.00  0.00    +0.000 C 
ATOM     18  O   UNL     1      -3.014  15.836  25.438  0.00  0.00    +0.000 OA
ENDBRANCH  11  18
ENDBRANCH  10  14
ENDBRANCH   1  10
BRANCH   9  19
ATOM     19  C   UNL     1       0.403  10.799  19.521  0.00  0.00    +0.000 C 
BRANCH  19  20
ATOM     20  C   UNL     1       0.772   9.451  20.200  0.00  0.00    +0.000 C 
ATOM     21  C   UNL     1       1.489   9.739  21.529  0.00  0.00    +0.000 C 
BRANCH  20  22
ATOM     22  N   UNL     1       1.612   8.614  19.348  0.00  0.00    +0.000 N 
ATOM     23  C   UNL     1       1.918   7.306  19.676  0.00  0.00    +0.000 C 
ATOM     24  O   UNL     1       1.548   6.764  20.711  0.00  0.00    +0.000 OA
ATOM     25  H   UNL     1       1.770   8.952  18.402  0.00  0.00    +0.000 HD
BRANCH  23  26
ATOM     26  C   UNL     1       2.784   6.556  18.729  0.00  0.00    +0.000 A 
ATOM     27  C   UNL     1       3.598   7.282  17.852  0.00  0.00    +0.000 A 
ATOM     28  C   UNL     1       4.431   6.619  16.947  0.00  0.00    +0.000 A 
ATOM     29  C   UNL     1       4.473   5.216  16.906  0.00  0.00    +0.000 A 
ATOM     30  C   UNL     1       5.400   4.533  15.941  0.00  0.00    +0.000 C 
ATOM     31  C   UNL     1       3.654   4.497  17.789  0.00  0.00    +0.000 A 
ATOM     32 BR   UNL     1       3.632   2.596  17.823  0.00  0.00    +0.000 Br
ATOM     33  C   UNL     1       2.822   5.161  18.695  0.00  0.00    +0.000 A 
ENDBRANCH  23  26
ENDBRANCH  20  22
ENDBRANCH  19  20
ENDBRANCH   9  19
TORSDOF 7
ENDMDL
MODEL 3
REMARK VINA RESULT:      -7.6      4.578      7.934
REMARK  Name = 
REMARK  11 active torsions:
REMARK  status: ('A' for Active; 'I' for Inactive)
REMARK    1  A    between atoms: C_1  and  O_2
REMARK    2  A    between atoms: O_2  and  C_3
REMARK    3  A    between atoms: C_6  and  C_7
REMARK    4  A    between atoms: C_7  and  C_8
REMARK    5  A    between atoms: C_14  and  C_15
REMARK    6  A    between atoms: N_16  and  C_17
REMARK    7  A    between atoms: C_17  and  C_18
REMARK    8  A    between atoms: C_18  and  C_19
REMARK    9  A    between atoms: C_18  and  N_20
REMARK   10  A    between atoms: C_21  and  C_23
REMARK   11  A    between atoms: C_26  and  C_27
REMARK                            x       y       z     vdW  Elec       q    Type
REMARK                         _______ _______ _______ _____ _____    ______ ____
ROOT
ATOM      1  C   UNL     1       4.740   5.467  19.135  0.00  0.00    +0.000 C 
ATOM      2  C   UNL     1       5.086   3.943  19.105  0.00  0.00    +0.000 C 
ATOM      3  N   UNL     1       3.797   3.353  18.822  0.00  0.00    +0.000 N 
ATOM      4  C   UNL     1       2.934   4.251  18.259  0.00  0.00    +0.000 C 
ATOM      5  N   UNL     1       1.927   3.802  17.591  0.00  0.00    +0.000 NA
ATOM      6  C   UNL     1       2.178   2.315  17.581  0.00  0.00    +0.000 C 
ATOM      7  C   UNL     1       3.593   2.083  18.177  0.00  0.00    +0.000 C 
ATOM      8  C   UNL     1       3.645   0.935  19.169  0.00  0.00    +0.000 C 
ATOM      9  N   UNL     1       3.417   5.508  18.473  0.00  0.00    +0.000 N 
ENDROOT
BRANCH   1  10
ATOM     10  C   UNL     1       5.765   6.306  18.361  0.00  0.00    +0.000 C 
BRANCH  10  14
ATOM     11  C   UNL     1       6.532   4.887  14.343  0.00  0.00    +0.000 A 
ATOM     12  C   UNL     1       7.378   4.537  15.395  0.00  0.00    +0.000 A 
ATOM     13  C   UNL     1       7.129   4.995  16.691  0.00  0.00    +0.000 A 
ATOM     14  C   UNL     1       6.035   5.831  16.952  0.00  0.00    +0.000 A 
ATOM     15  C   UNL     1       5.195   6.188  15.892  0.00  0.00    +0.000 A 
ATOM     16  C   UNL     1       5.442   5.721  14.593  0.00  0.00    +0.000 A 
BRANCH  11  18
ATOM     17  C   UNL     1       6.032   3.377  12.587  0.00  0.00    +0.000 C 
ATOM     18  O   UNL     1       6.885   4.383  13.121  0.00  0.00    +0.000 OA
ENDBRANCH  11  18
ENDBRANCH  10  14
ENDBRANCH   1  10
BRANCH   9  19
ATOM     19  C   UNL     1       2.602   6.719  18.497  0.00  0.00    +0.000 C 
BRANCH  19  20
ATOM     20  C   UNL     1       2.180   7.153  19.928  0.00  0.00    +0.000 C 
ATOM     21  C   UNL     1       1.538   5.955  20.647  0.00  0.00    +0.000 C 
BRANCH  20  22
ATOM     22  N   UNL     1       1.256   8.283  19.913  0.00  0.00    +0.000 N 
ATOM     23  C   UNL     1       1.043   9.073  21.029  0.00  0.00    +0.000 C 
ATOM     24  O   UNL     1       1.574   8.868  22.114  0.00  0.00    +0.000 OA
ATOM     25  H   UNL     1       0.954   8.604  18.997  0.00  0.00    +0.000 HD
BRANCH  23  26
ATOM     26  C   UNL     1       0.076  10.193  20.889  0.00  0.00    +0.000 A 
ATOM     27  C   UNL     1      -0.578  10.361  19.664  0.00  0.00    +0.000 A 
ATOM     28  C   UNL     1      -1.498  11.398  19.489  0.00  0.00    +0.000 A 
ATOM     29  C   UNL     1      -1.789  12.284  20.538  0.00  0.00    +0.000 A 
ATOM     30  C   UNL     1      -2.803  13.372  20.328  0.00  0.00    +0.000 C 
ATOM     31  C   UNL     1      -1.127  12.108  21.764  0.00  0.00    +0.000 A 
ATOM     32 BR   UNL     1      -1.445  13.245  23.253  0.00  0.00    +0.000 Br
ATOM     33  C   UNL     1      -0.209  11.069  21.938  0.00  0.00    +0.000 A 
ENDBRANCH  23  26
ENDBRANCH  20  22
ENDBRANCH  19  20
ENDBRANCH   9  19
TORSDOF 7
ENDMDL
MODEL 4
REMARK VINA RESULT:      -7.6      4.630      7.965
REMARK  Name = 
REMARK  11 active torsions:
REMARK  status: ('A' for Active; 'I' for Inactive)
REMARK    1  A    between atoms: C_1  and  O_2
REMARK    2  A    between atoms: O_2  and  C_3
REMARK    3  A    between atoms: C_6  and  C_7
REMARK    4  A    between atoms: C_7  and  C_8
REMARK    5  A    between atoms: C_14  and  C_15
REMARK    6  A    between atoms: N_16  and  C_17
REMARK    7  A    between atoms: C_17  and  C_18
REMARK    8  A    between atoms: C_18  and  C_19
REMARK    9  A    between atoms: C_18  and  N_20
REMARK   10  A    between atoms: C_21  and  C_23
REMARK   11  A    between atoms: C_26  and  C_27
REMARK                            x       y       z     vdW  Elec       q    Type
REMARK                         _______ _______ _______ _____ _____    ______ ____
ROOT
ATOM      1  C   UNL     1       4.725   5.565  18.725  0.00  0.00    +0.000 C 
ATOM      2  C   UNL     1       5.117   4.053  18.663  0.00  0.00    +0.000 C 
ATOM      3  N   UNL     1       3.822   3.413  18.619  0.00  0.00    +0.000 N 
ATOM      4  C   UNL     1       2.841   4.269  18.198  0.00  0.00    +0.000 C 
ATOM      5  N   UNL     1       1.751   3.770  17.723  0.00  0.00    +0.000 NA
ATOM      6  C   UNL     1       2.052   2.292  17.696  0.00  0.00    +0.000 C 
ATOM      7  C   UNL     1       3.556   2.122  18.042  0.00  0.00    +0.000 C 
ATOM      8  C   UNL     1       3.821   1.001  19.030  0.00  0.00    +0.000 C 
ATOM      9  N   UNL     1       3.307   5.546  18.302  0.00  0.00    +0.000 N 
ENDROOT
BRANCH   1  10
ATOM     10  C   UNL     1       5.569   6.419  17.770  0.00  0.00    +0.000 C 
BRANCH  10  14
ATOM     11  C   UNL     1       6.614   4.511  14.027  0.00  0.00    +0.000 A 
ATOM     12  C   UNL     1       5.281   4.761  14.350  0.00  0.00    +0.000 A 
ATOM     13  C   UNL     1       4.945   5.378  15.558  0.00  0.00    +0.000 A 
ATOM     14  C   UNL     1       5.942   5.736  16.474  0.00  0.00    +0.000 A 
ATOM     15  C   UNL     1       7.278   5.474  16.150  0.00  0.00    +0.000 A 
ATOM     16  C   UNL     1       7.613   4.863  14.934  0.00  0.00    +0.000 A 
BRANCH  11  18
ATOM     17  C   UNL     1       5.683   3.248  12.250  0.00  0.00    +0.000 C 
ATOM     18  O   UNL     1       6.814   3.896  12.820  0.00  0.00    +0.000 OA
ENDBRANCH  11  18
ENDBRANCH  10  14
ENDBRANCH   1  10
BRANCH   9  19
ATOM     19  C   UNL     1       2.464   6.729  18.445  0.00  0.00    +0.000 C 
BRANCH  19  20
ATOM     20  C   UNL     1       2.197   7.123  19.924  0.00  0.00    +0.000 C 
ATOM     21  C   UNL     1       1.684   5.891  20.687  0.00  0.00    +0.000 C 
BRANCH  20  22
ATOM     22  N   UNL     1       1.238   8.218  20.040  0.00  0.00    +0.000 N 
ATOM     23  C   UNL     1       1.113   8.965  21.197  0.00  0.00    +0.000 C 
ATOM     24  O   UNL     1       1.756   8.746  22.217  0.00  0.00    +0.000 OA
ATOM     25  H   UNL     1       0.835   8.556  19.169  0.00  0.00    +0.000 HD
BRANCH  23  26
ATOM     26  C   UNL     1       0.099  10.053  21.193  0.00  0.00    +0.000 A 
ATOM     27  C   UNL     1      -0.247  10.648  22.411  0.00  0.00    +0.000 A 
ATOM     28  C   UNL     1      -1.192  11.677  22.453  0.00  0.00    +0.000 A 
ATOM     29  C   UNL     1      -1.805  12.137  21.276  0.00  0.00    +0.000 A 
ATOM     30  C   UNL     1      -2.796  13.263  21.351  0.00  0.00    +0.000 C 
ATOM     31  C   UNL     1      -1.451  11.534  20.059  0.00  0.00    +0.000 A 
ATOM     32 BR   UNL     1      -2.214  12.078  18.406  0.00  0.00    +0.000 Br
ATOM     33  C   UNL     1      -0.505  10.506  20.018  0.00  0.00    +0.000 A 
ENDBRANCH  23  26
ENDBRANCH  20  22
ENDBRANCH  19  20
ENDBRANCH   9  19
TORSDOF 7
ENDMDL
MODEL 5
REMARK VINA RESULT:      -7.6      4.707      7.908
REMARK  Name = 
REMARK  11 active torsions:
REMARK  status: ('A' for Active; 'I' for Inactive)
REMARK    1  A    between atoms: C_1  and  O_2
REMARK    2  A    between atoms: O_2  and  C_3
REMARK    3  A    between atoms: C_6  and  C_7
REMARK    4  A    between atoms: C_7  and  C_8
REMARK    5  A    between atoms: C_14  and  C_15
REMARK    6  A    between atoms: N_16  and  C_17
REMARK    7  A    between atoms: C_17  and  C_18
REMARK    8  A    between atoms: C_18  and  C_19
REMARK    9  A    between atoms: C_18  and  N_20
REMARK   10  A    between atoms: C_21  and  C_23
REMARK   11  A    between atoms: C_26  and  C_27
REMARK                            x       y       z     vdW  Elec       q    Type
REMARK                         _______ _______ _______ _____ _____    ______ ____
ROOT
ATOM      1  C   UNL     1       4.641   5.669  18.926  0.00  0.00    +0.000 C 
ATOM      2  C   UNL     1       5.054   4.162  18.880  0.00  0.00    +0.000 C 
ATOM      3  N   UNL     1       3.773   3.510  18.720  0.00  0.00    +0.000 N 
ATOM      4  C   UNL     1       2.822   4.361  18.228  0.00  0.00    +0.000 C 
ATOM      5  N   UNL     1       1.781   3.856  17.658  0.00  0.00    +0.000 NA
ATOM      6  C   UNL     1       2.099   2.382  17.641  0.00  0.00    +0.000 C 
ATOM      7  C   UNL     1       3.571   2.223  18.109  0.00  0.00    +0.000 C 
ATOM      8  C   UNL     1       3.765   1.093  19.104  0.00  0.00    +0.000 C 
ATOM      9  N   UNL     1       3.263   5.641  18.385  0.00  0.00    +0.000 N 
ENDROOT
BRANCH   1  10
ATOM     10  C   UNL     1       5.553   6.543  18.054  0.00  0.00    +0.000 C 
BRANCH  10  14
ATOM     11  C   UNL     1       6.720   4.804  14.265  0.00  0.00    +0.000 A 
ATOM     12  C   UNL     1       5.482   5.428  14.410  0.00  0.00    +0.000 A 
ATOM     13  C   UNL     1       5.106   5.989  15.633  0.00  0.00    +0.000 A 
ATOM     14  C   UNL     1       5.961   5.916  16.741  0.00  0.00    +0.000 A 
ATOM     15  C   UNL     1       7.199   5.280  16.594  0.00  0.00    +0.000 A 
ATOM     16  C   UNL     1       7.576   4.725  15.363  0.00  0.00    +0.000 A 
BRANCH  11  18
ATOM     17  C   UNL     1       5.988   3.395  12.505  0.00  0.00    +0.000 C 
ATOM     18  O   UNL     1       6.968   4.287  13.022  0.00  0.00    +0.000 OA
ENDBRANCH  11  18
ENDBRANCH  10  14
ENDBRANCH   1  10
BRANCH   9  19
ATOM     19  C   UNL     1       2.399   6.813  18.470  0.00  0.00    +0.000 C 
BRANCH  19  20
ATOM     20  C   UNL     1       2.140   7.287  19.928  0.00  0.00    +0.000 C 
ATOM     21  C   UNL     1       1.485   6.143  20.718  0.00  0.00    +0.000 C 
BRANCH  20  22
ATOM     22  N   UNL     1       1.297   8.478  19.980  0.00  0.00    +0.000 N 
ATOM     23  C   UNL     1       1.179   9.244  21.126  0.00  0.00    +0.000 C 
ATOM     24  O   UNL     1       1.730   8.968  22.184  0.00  0.00    +0.000 OA
ATOM     25  H   UNL     1       0.988   8.849  19.085  0.00  0.00    +0.000 HD
BRANCH  23  26
ATOM     26  C   UNL     1       0.289  10.433  21.055  0.00  0.00    +0.000 A 
ATOM     27  C   UNL     1       0.384  11.272  19.940  0.00  0.00    +0.000 A 
ATOM     28  C   UNL     1      -0.436  12.399  19.829  0.00  0.00    +0.000 A 
ATOM     29  C   UNL     1      -1.373  12.705  20.829  0.00  0.00    +0.000 A 
ATOM     30  C   UNL     1      -2.260  13.907  20.668  0.00  0.00    +0.000 C 
ATOM     31  C   UNL     1      -1.461  11.857  21.944  0.00  0.00    +0.000 A 
ATOM     32 BR   UNL     1      -2.695  12.172  23.355  0.00  0.00    +0.000 Br
ATOM     33  C   UNL     1      -0.642  10.730  22.052  0.00  0.00    +0.000 A 
ENDBRANCH  23  26
ENDBRANCH  20  22
ENDBRANCH  19  20
ENDBRANCH   9  19
TORSDOF 7
ENDMDL
MODEL 6
REMARK VINA RESULT:      -7.5      4.846      8.590
REMARK  Name = 
REMARK  11 active torsions:
REMARK  status: ('A' for Active; 'I' for Inactive)
REMARK    1  A    between atoms: C_1  and  O_2
REMARK    2  A    between atoms: O_2  and  C_3
REMARK    3  A    between atoms: C_6  and  C_7
REMARK    4  A    between atoms: C_7  and  C_8
REMARK    5  A    between atoms: C_14  and  C_15
REMARK    6  A    between atoms: N_16  and  C_17
REMARK    7  A    between atoms: C_17  and  C_18
REMARK    8  A    between atoms: C_18  and  C_19
REMARK    9  A    between atoms: C_18  and  N_20
REMARK   10  A    between atoms: C_21  and  C_23
REMARK   11  A    between atoms: C_26  and  C_27
REMARK                            x       y       z     vdW  Elec       q    Type
REMARK                         _______ _______ _______ _____ _____    ______ ____
ROOT
ATOM      1  C   UNL     1       4.555   6.157  18.903  0.00  0.00    +0.000 C 
ATOM      2  C   UNL     1       4.467   4.705  19.475  0.00  0.00    +0.000 C 
ATOM      3  N   UNL     1       3.070   4.391  19.274  0.00  0.00    +0.000 N 
ATOM      4  C   UNL     1       2.498   5.188  18.320  0.00  0.00    +0.000 C 
ATOM      5  N   UNL     1       1.417   4.781  17.747  0.00  0.00    +0.000 NA
ATOM      6  C   UNL     1       1.248   3.394  18.312  0.00  0.00    +0.000 C 
ATOM      7  C   UNL     1       2.534   3.065  19.118  0.00  0.00    +0.000 C 
ATOM      8  C   UNL     1       2.250   2.415  20.460  0.00  0.00    +0.000 C 
ATOM      9  N   UNL     1       3.305   6.267  18.117  0.00  0.00    +0.000 N 
ENDROOT
BRANCH   1  10
ATOM     10  C   UNL     1       5.784   6.350  18.007  0.00  0.00    +0.000 C 
BRANCH  10  14
ATOM     11  C   UNL     1       5.712   4.186  14.257  0.00  0.00    +0.000 A 
ATOM     12  C   UNL     1       5.291   5.513  14.321  0.00  0.00    +0.000 A 
ATOM     13  C   UNL     1       5.315   6.211  15.531  0.00  0.00    +0.000 A 
ATOM     14  C   UNL     1       5.745   5.580  16.706  0.00  0.00    +0.000 A 
ATOM     15  C   UNL     1       6.158   4.245  16.640  0.00  0.00    +0.000 A 
ATOM     16  C   UNL     1       6.141   3.550  15.422  0.00  0.00    +0.000 A 
BRANCH  11  18
ATOM     17  C   UNL     1       6.840   3.581  12.263  0.00  0.00    +0.000 C 
ATOM     18  O   UNL     1       5.635   3.610  13.018  0.00  0.00    +0.000 OA
ENDBRANCH  11  18
ENDBRANCH  10  14
ENDBRANCH   1  10
BRANCH   9  19
ATOM     19  C   UNL     1       2.857   7.555  17.597  0.00  0.00    +0.000 C 
BRANCH  19  20
ATOM     20  C   UNL     1       2.197   8.461  18.673  0.00  0.00    +0.000 C 
ATOM     21  C   UNL     1       2.033   7.659  19.974  0.00  0.00    +0.000 C 
BRANCH  20  22
ATOM     22  N   UNL     1       0.903   8.982  18.240  0.00  0.00    +0.000 N 
ATOM     23  C   UNL     1       0.271  10.020  18.900  0.00  0.00    +0.000 C 
ATOM     24  O   UNL     1       0.718  10.552  19.909  0.00  0.00    +0.000 OA
ATOM     25  H   UNL     1       0.599   8.710  17.308  0.00  0.00    +0.000 HD
BRANCH  23  26
ATOM     26  C   UNL     1      -1.044  10.460  18.364  0.00  0.00    +0.000 A 
ATOM     27  C   UNL     1      -1.867  11.246  19.178  0.00  0.00    +0.000 A 
ATOM     28  C   UNL     1      -3.110  11.686  18.714  0.00  0.00    +0.000 A 
ATOM     29  C   UNL     1      -3.552  11.354  17.423  0.00  0.00    +0.000 A 
ATOM     30  C   UNL     1      -4.880  11.865  16.943  0.00  0.00    +0.000 C 
ATOM     31  C   UNL     1      -2.719  10.566  16.614  0.00  0.00    +0.000 A 
ATOM     32 BR   UNL     1      -3.214  10.060  14.850  0.00  0.00    +0.000 Br
ATOM     33  C   UNL     1      -1.476  10.128  17.079  0.00  0.00    +0.000 A 
ENDBRANCH  23  26
ENDBRANCH  20  22
ENDBRANCH  19  20
ENDBRANCH   9  19
TORSDOF 7
ENDMDL
MODEL 7
REMARK VINA RESULT:      -7.5      4.431      7.712
REMARK  Name = 
REMARK  11 active torsions:
REMARK  status: ('A' for Active; 'I' for Inactive)
REMARK    1  A    between atoms: C_1  and  O_2
REMARK    2  A    between atoms: O_2  and  C_3
REMARK    3  A    between atoms: C_6  and  C_7
REMARK    4  A    between atoms: C_7  and  C_8
REMARK    5  A    between atoms: C_14  and  C_15
REMARK    6  A    between atoms: N_16  and  C_17
REMARK    7  A    between atoms: C_17  and  C_18
REMARK    8  A    between atoms: C_18  and  C_19
REMARK    9  A    between atoms: C_18  and  N_20
REMARK   10  A    between atoms: C_21  and  C_23
REMARK   11  A    between atoms: C_26  and  C_27
REMARK                            x       y       z     vdW  Elec       q    Type
REMARK                         _______ _______ _______ _____ _____    ______ ____
ROOT
ATOM      1  C   UNL     1       4.934   5.440  19.139  0.00  0.00    +0.000 C 
ATOM      2  C   UNL     1       5.010   3.955  18.659  0.00  0.00    +0.000 C 
ATOM      3  N   UNL     1       3.667   3.490  18.922  0.00  0.00    +0.000 N 
ATOM      4  C   UNL     1       2.777   4.523  19.023  0.00  0.00    +0.000 C 
ATOM      5  N   UNL     1       1.524   4.276  18.848  0.00  0.00    +0.000 NA
ATOM      6  C   UNL     1       1.531   2.825  18.437  0.00  0.00    +0.000 C 
ATOM      7  C   UNL     1       3.013   2.413  18.226  0.00  0.00    +0.000 C 
ATOM      8  C   UNL     1       3.353   1.065  18.834  0.00  0.00    +0.000 C 
ATOM      9  N   UNL     1       3.475   5.678  19.214  0.00  0.00    +0.000 N 
ENDROOT
BRANCH   1  10
ATOM     10  C   UNL     1       5.596   6.402  18.144  0.00  0.00    +0.000 C 
BRANCH  10  14
ATOM     11  C   UNL     1       6.621   4.680  14.307  0.00  0.00    +0.000 A 
ATOM     12  C   UNL     1       5.294   4.959  14.629  0.00  0.00    +0.000 A 
ATOM     13  C   UNL     1       4.964   5.516  15.868  0.00  0.00    +0.000 A 
ATOM     14  C   UNL     1       5.961   5.783  16.815  0.00  0.00    +0.000 A 
ATOM     15  C   UNL     1       7.291   5.492  16.491  0.00  0.00    +0.000 A 
ATOM     16  C   UNL     1       7.620   4.942  15.244  0.00  0.00    +0.000 A 
BRANCH  11  18
ATOM     17  C   UNL     1       5.717   3.408  12.523  0.00  0.00    +0.000 C 
ATOM     18  O   UNL     1       6.814   4.131  13.068  0.00  0.00    +0.000 OA
ENDBRANCH  11  18
ENDBRANCH  10  14
ENDBRANCH   1  10
BRANCH   9  19
ATOM     19  C   UNL     1       2.942   6.876  19.854  0.00  0.00    +0.000 C 
BRANCH  19  20
ATOM     20  C   UNL     1       1.921   7.647  18.972  0.00  0.00    +0.000 C 
ATOM     21  C   UNL     1       2.596   8.039  17.648  0.00  0.00    +0.000 C 
BRANCH  20  22
ATOM     22  N   UNL     1       1.400   8.837  19.640  0.00  0.00    +0.000 N 
ATOM     23  C   UNL     1       0.650   8.759  20.799  0.00  0.00    +0.000 C 
ATOM     24  O   UNL     1       0.332   7.701  21.329  0.00  0.00    +0.000 OA
ATOM     25  H   UNL     1       1.802   9.725  19.352  0.00  0.00    +0.000 HD
BRANCH  23  26
ATOM     26  C   UNL     1       0.175  10.041  21.384  0.00  0.00    +0.000 A 
ATOM     27  C   UNL     1      -0.662   9.993  22.504  0.00  0.00    +0.000 A 
ATOM     28  C   UNL     1      -1.129  11.174  23.089  0.00  0.00    +0.000 A 
ATOM     29  C   UNL     1      -0.763  12.426  22.569  0.00  0.00    +0.000 A 
ATOM     30  C   UNL     1      -1.259  13.677  23.237  0.00  0.00    +0.000 C 
ATOM     31  C   UNL     1       0.077  12.463  21.446  0.00  0.00    +0.000 A 
ATOM     32 BR   UNL     1       0.640  14.100  20.662  0.00  0.00    +0.000 Br
ATOM     33  C   UNL     1       0.545  11.282  20.863  0.00  0.00    +0.000 A 
ENDBRANCH  23  26
ENDBRANCH  20  22
ENDBRANCH  19  20
ENDBRANCH   9  19
TORSDOF 7
ENDMDL
MODEL 8
REMARK VINA RESULT:      -7.5      6.044     10.464
REMARK  Name = 
REMARK  11 active torsions:
REMARK  status: ('A' for Active; 'I' for Inactive)
REMARK    1  A    between atoms: C_1  and  O_2
REMARK    2  A    between atoms: O_2  and  C_3
REMARK    3  A    between atoms: C_6  and  C_7
REMARK    4  A    between atoms: C_7  and  C_8
REMARK    5  A    between atoms: C_14  and  C_15
REMARK    6  A    between atoms: N_16  and  C_17
REMARK    7  A    between atoms: C_17  and  C_18
REMARK    8  A    between atoms: C_18  and  C_19
REMARK    9  A    between atoms: C_18  and  N_20
REMARK   10  A    between atoms: C_21  and  C_23
REMARK   11  A    between atoms: C_26  and  C_27
REMARK                            x       y       z     vdW  Elec       q    Type
REMARK                         _______ _______ _______ _____ _____    ______ ____
ROOT
ATOM      1  C   UNL     1      -1.449  12.422  18.959  0.00  0.00    +0.000 C 
ATOM      2  C   UNL     1      -2.072  13.114  20.213  0.00  0.00    +0.000 C 
ATOM      3  N   UNL     1      -1.927  12.087  21.221  0.00  0.00    +0.000 N 
ATOM      4  C   UNL     1      -0.966  11.174  20.887  0.00  0.00    +0.000 C 
ATOM      5  N   UNL     1      -0.442  10.462  21.825  0.00  0.00    +0.000 NA
ATOM      6  C   UNL     1      -1.059  11.051  23.068  0.00  0.00    +0.000 C 
ATOM      7  C   UNL     1      -1.835  12.325  22.637  0.00  0.00    +0.000 C 
ATOM      8  C   UNL     1      -3.206  12.438  23.277  0.00  0.00    +0.000 C 
ATOM      9  N   UNL     1      -0.700  11.293  19.555  0.00  0.00    +0.000 N 
ENDROOT
BRANCH   1  10
ATOM     10  C   UNL     1      -0.507  13.359  18.192  0.00  0.00    +0.000 C 
BRANCH  10  14
ATOM     11  C   UNL     1       1.523  16.325  20.605  0.00  0.00    +0.000 A 
ATOM     12  C   UNL     1       1.924  14.991  20.632  0.00  0.00    +0.000 A 
ATOM     13  C   UNL     1       1.269  14.034  19.852  0.00  0.00    +0.000 A 
ATOM     14  C   UNL     1       0.183  14.398  19.045  0.00  0.00    +0.000 A 
ATOM     15  C   UNL     1      -0.223  15.737  19.028  0.00  0.00    +0.000 A 
ATOM     16  C   UNL     1       0.441  16.696  19.806  0.00  0.00    +0.000 A 
BRANCH  11  18
ATOM     17  C   UNL     1       2.522  18.454  20.892  0.00  0.00    +0.000 C 
ATOM     18  O   UNL     1       2.237  17.163  21.417  0.00  0.00    +0.000 OA
ENDBRANCH  11  18
ENDBRANCH  10  14
ENDBRANCH   1  10
BRANCH   9  19
ATOM     19  C   UNL     1      -0.151  10.230  18.719  0.00  0.00    +0.000 C 
BRANCH  19  20
ATOM     20  C   UNL     1       1.374  10.009  18.920  0.00  0.00    +0.000 C 
ATOM     21  C   UNL     1       2.145  10.891  17.925  0.00  0.00    +0.000 C 
BRANCH  20  22
ATOM     22  N   UNL     1       1.757   8.611  18.751  0.00  0.00    +0.000 N 
ATOM     23  C   UNL     1       1.880   7.747  19.825  0.00  0.00    +0.000 C 
ATOM     24  O   UNL     1       1.719   8.090  20.990  0.00  0.00    +0.000 OA
ATOM     25  H   UNL     1       1.704   8.242  17.804  0.00  0.00    +0.000 HD
BRANCH  23  26
ATOM     26  C   UNL     1       2.278   6.347  19.524  0.00  0.00    +0.000 A 
ATOM     27  C   UNL     1       2.846   6.068  18.276  0.00  0.00    +0.000 A 
ATOM     28  C   UNL     1       3.239   4.766  17.952  0.00  0.00    +0.000 A 
ATOM     29  C   UNL     1       3.078   3.718  18.872  0.00  0.00    +0.000 A 
ATOM     30  C   UNL     1       3.536   2.336  18.505  0.00  0.00    +0.000 C 
ATOM     31  C   UNL     1       2.507   4.008  20.121  0.00  0.00    +0.000 A 
ATOM     32 BR   UNL     1       2.245   2.669  21.444  0.00  0.00    +0.000 Br
ATOM     33  C   UNL     1       2.116   5.310  20.445  0.00  0.00    +0.000 A 
ENDBRANCH  23  26
ENDBRANCH  20  22
ENDBRANCH  19  20
ENDBRANCH   9  19
TORSDOF 7
ENDMDL
MODEL 9
REMARK VINA RESULT:      -7.5      5.839      9.540
REMARK  Name = 
REMARK  11 active torsions:
REMARK  status: ('A' for Active; 'I' for Inactive)
REMARK    1  A    between atoms: C_1  and  O_2
REMARK    2  A    between atoms: O_2  and  C_3
REMARK    3  A    between atoms: C_6  and  C_7
REMARK    4  A    between atoms: C_7  and  C_8
REMARK    5  A    between atoms: C_14  and  C_15
REMARK    6  A    between atoms: N_16  and  C_17
REMARK    7  A    between atoms: C_17  and  C_18
REMARK    8  A    between atoms: C_18  and  C_19
REMARK    9  A    between atoms: C_18  and  N_20
REMARK   10  A    between atoms: C_21  and  C_23
REMARK   11  A    between atoms: C_26  and  C_27
REMARK                            x       y       z     vdW  Elec       q    Type
REMARK                         _______ _______ _______ _____ _____    ______ ____
ROOT
ATOM      1  C   UNL     1      -0.437  12.944  19.221  0.00  0.00    +0.000 C 
ATOM      2  C   UNL     1      -0.214  14.353  18.584  0.00  0.00    +0.000 C 
ATOM      3  N   UNL     1       1.042  14.752  19.179  0.00  0.00    +0.000 N 
ATOM      4  C   UNL     1       1.750  13.679  19.647  0.00  0.00    +0.000 C 
ATOM      5  N   UNL     1       3.021  13.811  19.822  0.00  0.00    +0.000 NA
ATOM      6  C   UNL     1       3.286  15.191  19.275  0.00  0.00    +0.000 C 
ATOM      7  C   UNL     1       1.977  15.676  18.595  0.00  0.00    +0.000 C 
ATOM      8  C   UNL     1       1.626  17.114  18.928  0.00  0.00    +0.000 C 
ATOM      9  N   UNL     1       0.907  12.613  19.746  0.00  0.00    +0.000 N 
ENDROOT
BRANCH   1  10
ATOM     10  C   UNL     1      -0.890  11.907  18.184  0.00  0.00    +0.000 C 
BRANCH  10  14
ATOM     11  C   UNL     1      -5.185  11.442  17.908  0.00  0.00    +0.000 A 
ATOM     12  C   UNL     1      -4.599  11.969  19.058  0.00  0.00    +0.000 A 
ATOM     13  C   UNL     1      -3.213  12.119  19.146  0.00  0.00    +0.000 A 
ATOM     14  C   UNL     1      -2.387  11.723  18.086  0.00  0.00    +0.000 A 
ATOM     15  C   UNL     1      -2.978  11.186  16.937  0.00  0.00    +0.000 A 
ATOM     16  C   UNL     1      -4.370  11.045  16.848  0.00  0.00    +0.000 A 
BRANCH  11  18
ATOM     17  C   UNL     1      -7.191  11.910  19.079  0.00  0.00    +0.000 C 
ATOM     18  O   UNL     1      -6.549  11.339  17.946  0.00  0.00    +0.000 OA
ENDBRANCH  11  18
ENDBRANCH  10  14
ENDBRANCH   1  10
BRANCH   9  19
ATOM     19  C   UNL     1       1.106  11.476  20.639  0.00  0.00    +0.000 C 
BRANCH  19  20
ATOM     20  C   UNL     1       0.290  10.218  20.231  0.00  0.00    +0.000 C 
ATOM     21  C   UNL     1      -0.737   9.908  21.331  0.00  0.00    +0.000 C 
BRANCH  20  22
ATOM     22  N   UNL     1       1.143   9.056  20.000  0.00  0.00    +0.000 N 
ATOM     23  C   UNL     1       1.717   8.801  18.767  0.00  0.00    +0.000 C 
ATOM     24  O   UNL     1       1.527   9.494  17.775  0.00  0.00    +0.000 OA
ATOM     25  H   UNL     1       1.483   8.577  20.829  0.00  0.00    +0.000 HD
BRANCH  23  26
ATOM     26  C   UNL     1       2.565   7.584  18.657  0.00  0.00    +0.000 A 
ATOM     27  C   UNL     1       2.490   6.624  19.671  0.00  0.00    +0.000 A 
ATOM     28  C   UNL     1       3.266   5.463  19.606  0.00  0.00    +0.000 A 
ATOM     29  C   UNL     1       4.129   5.237  18.521  0.00  0.00    +0.000 A 
ATOM     30  C   UNL     1       4.929   3.967  18.467  0.00  0.00    +0.000 C 
ATOM     31  C   UNL     1       4.197   6.206  17.509  0.00  0.00    +0.000 A 
ATOM     32 BR   UNL     1       5.326   6.002  15.993  0.00  0.00    +0.000 Br
ATOM     33  C   UNL     1       3.419   7.365  17.574  0.00  0.00    +0.000 A 
ENDBRANCH  23  26
ENDBRANCH  20  22
ENDBRANCH  19  20
ENDBRANCH   9  19
TORSDOF 7
ENDMDL
