MODEL 1
REMARK VINA RESULT:      -7.6      0.000      0.000
REMARK  Name = 
REMARK  2 active torsions:
REMARK  status: ('A' for Active; 'I' for Inactive)
REMARK    1  A    between atoms: C_4  and  N_5
REMARK    2  A    between atoms: C_9  and  C_10
REMARK                            x       y       z     vdW  Elec       q    Type
REMARK                         _______ _______ _______ _____ _____    ______ ____
ROOT
ATOM      1  N   UNL     1       5.515   4.621  17.475  0.00  0.00    +0.000 N 
ATOM      2  N   UNL     1       6.439   4.200  18.385  0.00  0.00    +0.000 NA
ATOM      3  N   UNL     1       7.489   4.879  18.246  0.00  0.00    +0.000 NA
ATOM      4  C   UNL     1       7.314   5.981  17.286  0.00  0.00    +0.000 C 
ATOM      5  C   UNL     1       6.036   5.622  16.563  0.00  0.00    +0.000 C 
ENDROOT
BRANCH   1   9
ATOM      6  C   UNL     1       1.457   3.577  18.052  0.00  0.00    +0.000 A 
ATOM      7  C   UNL     1       1.834   4.916  18.029  0.00  0.00    +0.000 A 
ATOM      8  C   UNL     1       3.171   5.266  17.807  0.00  0.00    +0.000 A 
ATOM      9  C   UNL     1       4.169   4.294  17.636  0.00  0.00    +0.000 A 
ATOM     10  C   UNL     1       3.753   2.950  17.645  0.00  0.00    +0.000 A 
ATOM     11  C   UNL     1       2.415   2.593  17.847  0.00  0.00    +0.000 A 
ENDBRANCH   1   9
BRANCH   5  12
ATOM     12  C   UNL     1       6.319   5.096  15.165  0.00  0.00    +0.000 A 
ATOM     13  C   UNL     1       5.473   4.191  14.518  0.00  0.00    +0.000 A 
ATOM     14  C   UNL     1       5.818   3.719  13.253  0.00  0.00    +0.000 A 
ATOM     15  C   UNL     1       6.997   4.151  12.663  0.00  0.00    +0.000 A 
ATOM     16  C   UNL     1       7.789   5.041  13.366  0.00  0.00    +0.000 A 
ATOM     17  N   UNL     1       7.482   5.517  14.595  0.00  0.00    +0.000 NA
ENDBRANCH   5  12
TORSDOF 2
ENDMDL
MODEL 2
REMARK VINA RESULT:      -7.6      0.192      1.178
REMARK  Name = 
REMARK  2 active torsions:
REMARK  status: ('A' for Active; 'I' for Inactive)
REMARK    1  A    between atoms: C_4  and  N_5
REMARK    2  A    between atoms: C_9  and  C_10
REMARK                            x       y       z     vdW  Elec       q    Type
REMARK                         _______ _______ _______ _____ _____    ______ ____
ROOT
ATOM      1  N   UNL     1       5.625   4.650  17.351  0.00  0.00    +0.000 N 
ATOM      2  N   UNL     1       6.602   4.314  18.242  0.00  0.00    +0.000 NA
ATOM      3  N   UNL     1       7.606   5.047  18.045  0.00  0.00    +0.000 NA
ATOM      4  C   UNL     1       7.335   6.104  17.057  0.00  0.00    +0.000 C 
ATOM      5  C   UNL     1       6.057   5.649  16.391  0.00  0.00    +0.000 C 
ENDROOT
BRANCH   1   9
ATOM      6  C   UNL     1       1.599   3.491  17.923  0.00  0.00    +0.000 A 
ATOM      7  C   UNL     1       2.589   2.523  17.793  0.00  0.00    +0.000 A 
ATOM      8  C   UNL     1       3.927   2.903  17.634  0.00  0.00    +0.000 A 
ATOM      9  C   UNL     1       4.308   4.253  17.569  0.00  0.00    +0.000 A 
ATOM     10  C   UNL     1       3.286   5.207  17.724  0.00  0.00    +0.000 A 
ATOM     11  C   UNL     1       1.949   4.835  17.902  0.00  0.00    +0.000 A 
ENDBRANCH   1   9
BRANCH   5  12
ATOM     12  C   UNL     1       6.324   5.095  15.001  0.00  0.00    +0.000 A 
ATOM     13  C   UNL     1       5.463   4.189  14.377  0.00  0.00    +0.000 A 
ATOM     14  C   UNL     1       5.793   3.690  13.118  0.00  0.00    +0.000 A 
ATOM     15  C   UNL     1       6.973   4.096  12.512  0.00  0.00    +0.000 A 
ATOM     16  C   UNL     1       7.780   4.990  13.194  0.00  0.00    +0.000 A 
ATOM     17  N   UNL     1       7.487   5.492  14.415  0.00  0.00    +0.000 NA
ENDBRANCH   5  12
TORSDOF 2
ENDMDL
MODEL 3
REMARK VINA RESULT:      -7.4      1.574      1.687
REMARK  Name = 
REMARK  2 active torsions:
REMARK  status: ('A' for Active; 'I' for Inactive)
REMARK    1  A    between atoms: C_4  and  N_5
REMARK    2  A    between atoms: C_9  and  C_10
REMARK                            x       y       z     vdW  Elec       q    Type
REMARK                         _______ _______ _______ _____ _____    ______ ____
ROOT
ATOM      1  N   UNL     1       5.737   5.280  18.891  0.00  0.00    +0.000 N 
ATOM      2  N   UNL     1       6.799   4.954  19.683  0.00  0.00    +0.000 NA
ATOM      3  N   UNL     1       7.811   5.593  19.295  0.00  0.00    +0.000 NA
ATOM      4  C   UNL     1       7.478   6.576  18.250  0.00  0.00    +0.000 C 
ATOM      5  C   UNL     1       6.100   6.157  17.794  0.00  0.00    +0.000 C 
ENDROOT
BRANCH   1   9
ATOM      6  C   UNL     1       1.831   4.388  20.244  0.00  0.00    +0.000 A 
ATOM      7  C   UNL     1       2.188   5.704  19.971  0.00  0.00    +0.000 A 
ATOM      8  C   UNL     1       3.471   6.000  19.494  0.00  0.00    +0.000 A 
ATOM      9  C   UNL     1       4.437   4.999  19.307  0.00  0.00    +0.000 A 
ATOM     10  C   UNL     1       4.038   3.676  19.573  0.00  0.00    +0.000 A 
ATOM     11  C   UNL     1       2.753   3.370  20.032  0.00  0.00    +0.000 A 
ENDBRANCH   1   9
BRANCH   5  12
ATOM     12  C   UNL     1       6.152   5.464  16.442  0.00  0.00    +0.000 A 
ATOM     13  C   UNL     1       5.115   4.651  15.975  0.00  0.00    +0.000 A 
ATOM     14  C   UNL     1       5.249   4.014  14.744  0.00  0.00    +0.000 A 
ATOM     15  C   UNL     1       6.411   4.193  14.007  0.00  0.00    +0.000 A 
ATOM     16  C   UNL     1       7.398   5.006  14.535  0.00  0.00    +0.000 A 
ATOM     17  N   UNL     1       7.298   5.638  15.727  0.00  0.00    +0.000 NA
ENDBRANCH   5  12
TORSDOF 2
ENDMDL
MODEL 4
REMARK VINA RESULT:      -7.4      0.898      1.424
REMARK  Name = 
REMARK  2 active torsions:
REMARK  status: ('A' for Active; 'I' for Inactive)
REMARK    1  A    between atoms: C_4  and  N_5
REMARK    2  A    between atoms: C_9  and  C_10
REMARK                            x       y       z     vdW  Elec       q    Type
REMARK                         _______ _______ _______ _____ _____    ______ ____
ROOT
ATOM      1  N   UNL     1       5.150   4.493  18.216  0.00  0.00    +0.000 N 
ATOM      2  N   UNL     1       6.108   4.220  19.147  0.00  0.00    +0.000 NA
ATOM      3  N   UNL     1       7.031   5.069  19.046  0.00  0.00    +0.000 NA
ATOM      4  C   UNL     1       6.696   6.142  18.095  0.00  0.00    +0.000 C 
ATOM      5  C   UNL     1       5.517   5.583  17.332  0.00  0.00    +0.000 C 
ENDROOT
BRANCH   1   9
ATOM      6  C   UNL     1       1.274   2.821  18.471  0.00  0.00    +0.000 A 
ATOM      7  C   UNL     1       2.375   2.094  18.913  0.00  0.00    +0.000 A 
ATOM      8  C   UNL     1       3.656   2.656  18.858  0.00  0.00    +0.000 A 
ATOM      9  C   UNL     1       3.876   3.940  18.335  0.00  0.00    +0.000 A 
ATOM     10  C   UNL     1       2.740   4.657  17.916  0.00  0.00    +0.000 A 
ATOM     11  C   UNL     1       1.455   4.109  17.984  0.00  0.00    +0.000 A 
ENDBRANCH   1   9
BRANCH   5  12
ATOM     12  C   UNL     1       5.921   5.138  15.936  0.00  0.00    +0.000 A 
ATOM     13  C   UNL     1       5.116   4.309  15.151  0.00  0.00    +0.000 A 
ATOM     14  C   UNL     1       5.570   3.906  13.897  0.00  0.00    +0.000 A 
ATOM     15  C   UNL     1       6.815   4.329  13.455  0.00  0.00    +0.000 A 
ATOM     16  C   UNL     1       7.560   5.142  14.290  0.00  0.00    +0.000 A 
ATOM     17  N   UNL     1       7.148   5.550  15.511  0.00  0.00    +0.000 NA
ENDBRANCH   5  12
TORSDOF 2
ENDMDL
MODEL 5
REMARK VINA RESULT:      -7.3      1.247      5.151
REMARK  Name = 
REMARK  2 active torsions:
REMARK  status: ('A' for Active; 'I' for Inactive)
REMARK    1  A    between atoms: C_4  and  N_5
REMARK    2  A    between atoms: C_9  and  C_10
REMARK                            x       y       z     vdW  Elec       q    Type
REMARK                         _______ _______ _______ _____ _____    ______ ____
ROOT
ATOM      1  N   UNL     1       6.752   5.185  15.864  0.00  0.00    +0.000 N 
ATOM      2  N   UNL     1       7.488   6.269  16.244  0.00  0.00    +0.000 NA
ATOM      3  N   UNL     1       7.637   6.244  17.493  0.00  0.00    +0.000 NA
ATOM      4  C   UNL     1       7.124   5.000  18.089  0.00  0.00    +0.000 C 
ATOM      5  C   UNL     1       6.274   4.404  16.989  0.00  0.00    +0.000 C 
ENDROOT
BRANCH   1   9
ATOM      6  C   UNL     1       6.806   3.912  11.831  0.00  0.00    +0.000 A 
ATOM      7  C   UNL     1       5.867   3.388  12.713  0.00  0.00    +0.000 A 
ATOM      8  C   UNL     1       5.827   3.829  14.041  0.00  0.00    +0.000 A 
ATOM      9  C   UNL     1       6.738   4.778  14.531  0.00  0.00    +0.000 A 
ATOM     10  C   UNL     1       7.662   5.304  13.609  0.00  0.00    +0.000 A 
ATOM     11  C   UNL     1       7.696   4.881  12.276  0.00  0.00    +0.000 A 
ENDBRANCH   1   9
BRANCH   5  12
ATOM     12  C   UNL     1       4.793   4.579  17.278  0.00  0.00    +0.000 A 
ATOM     13  C   UNL     1       4.252   5.791  17.717  0.00  0.00    +0.000 A 
ATOM     14  C   UNL     1       2.890   5.867  18.003  0.00  0.00    +0.000 A 
ATOM     15  C   UNL     1       2.099   4.738  17.852  0.00  0.00    +0.000 A 
ATOM     16  C   UNL     1       2.704   3.571  17.421  0.00  0.00    +0.000 A 
ATOM     17  N   UNL     1       4.022   3.466  17.136  0.00  0.00    +0.000 NA
ENDBRANCH   5  12
TORSDOF 2
ENDMDL
MODEL 6
REMARK VINA RESULT:      -7.3      1.541      2.014
REMARK  Name = 
REMARK  2 active torsions:
REMARK  status: ('A' for Active; 'I' for Inactive)
REMARK    1  A    between atoms: C_4  and  N_5
REMARK    2  A    between atoms: C_9  and  C_10
REMARK                            x       y       z     vdW  Elec       q    Type
REMARK                         _______ _______ _______ _____ _____    ______ ____
ROOT
ATOM      1  N   UNL     1       5.851   5.316  18.816  0.00  0.00    +0.000 N 
ATOM      2  N   UNL     1       6.977   5.140  19.566  0.00  0.00    +0.000 NA
ATOM      3  N   UNL     1       7.888   5.884  19.119  0.00  0.00    +0.000 NA
ATOM      4  C   UNL     1       7.397   6.791  18.068  0.00  0.00    +0.000 C 
ATOM      5  C   UNL     1       6.061   6.199  17.683  0.00  0.00    +0.000 C 
ENDROOT
BRANCH   1   9
ATOM      6  C   UNL     1       2.048   4.075  20.185  0.00  0.00    +0.000 A 
ATOM      7  C   UNL     1       3.051   3.135  19.972  0.00  0.00    +0.000 A 
ATOM      8  C   UNL     1       4.320   3.545  19.548  0.00  0.00    +0.000 A 
ATOM      9  C   UNL     1       4.613   4.895  19.296  0.00  0.00    +0.000 A 
ATOM     10  C   UNL     1       3.584   5.823  19.540  0.00  0.00    +0.000 A 
ATOM     11  C   UNL     1       2.318   5.422  19.981  0.00  0.00    +0.000 A 
ENDBRANCH   1   9
BRANCH   5  12
ATOM     12  C   UNL     1       6.138   5.480  16.346  0.00  0.00    +0.000 A 
ATOM     13  C   UNL     1       5.132   4.620  15.898  0.00  0.00    +0.000 A 
ATOM     14  C   UNL     1       5.290   3.962  14.680  0.00  0.00    +0.000 A 
ATOM     15  C   UNL     1       6.445   4.168  13.939  0.00  0.00    +0.000 A 
ATOM     16  C   UNL     1       7.402   5.027  14.450  0.00  0.00    +0.000 A 
ATOM     17  N   UNL     1       7.278   5.680  15.628  0.00  0.00    +0.000 NA
ENDBRANCH   5  12
TORSDOF 2
ENDMDL
MODEL 7
REMARK VINA RESULT:      -7.3      1.205      5.047
REMARK  Name = 
REMARK  2 active torsions:
REMARK  status: ('A' for Active; 'I' for Inactive)
REMARK    1  A    between atoms: C_4  and  N_5
REMARK    2  A    between atoms: C_9  and  C_10
REMARK                            x       y       z     vdW  Elec       q    Type
REMARK                         _______ _______ _______ _____ _____    ______ ____
ROOT
ATOM      1  N   UNL     1       6.770   5.236  15.899  0.00  0.00    +0.000 N 
ATOM      2  N   UNL     1       7.471   6.350  16.259  0.00  0.00    +0.000 NA
ATOM      3  N   UNL     1       7.649   6.337  17.504  0.00  0.00    +0.000 NA
ATOM      4  C   UNL     1       7.199   5.076  18.116  0.00  0.00    +0.000 C 
ATOM      5  C   UNL     1       6.349   4.443  17.038  0.00  0.00    +0.000 C 
ENDROOT
BRANCH   1   9
ATOM      6  C   UNL     1       6.782   3.943  11.872  0.00  0.00    +0.000 A 
ATOM      7  C   UNL     1       5.859   3.417  12.769  0.00  0.00    +0.000 A 
ATOM      8  C   UNL     1       5.832   3.864  14.095  0.00  0.00    +0.000 A 
ATOM      9  C   UNL     1       6.742   4.822  14.568  0.00  0.00    +0.000 A 
ATOM     10  C   UNL     1       7.650   5.351  13.632  0.00  0.00    +0.000 A 
ATOM     11  C   UNL     1       7.671   4.921  12.301  0.00  0.00    +0.000 A 
ENDBRANCH   1   9
BRANCH   5  12
ATOM     12  C   UNL     1       4.868   4.561  17.359  0.00  0.00    +0.000 A 
ATOM     13  C   UNL     1       3.989   3.480  17.257  0.00  0.00    +0.000 A 
ATOM     14  C   UNL     1       2.636   3.672  17.527  0.00  0.00    +0.000 A 
ATOM     15  C   UNL     1       2.185   4.934  17.886  0.00  0.00    +0.000 A 
ATOM     16  C   UNL     1       3.112   5.959  17.959  0.00  0.00    +0.000 A 
ATOM     17  N   UNL     1       4.431   5.804  17.703  0.00  0.00    +0.000 NA
ENDBRANCH   5  12
TORSDOF 2
ENDMDL
MODEL 8
REMARK VINA RESULT:      -7.3      1.237      5.080
REMARK  Name = 
REMARK  2 active torsions:
REMARK  status: ('A' for Active; 'I' for Inactive)
REMARK    1  A    between atoms: C_4  and  N_5
REMARK    2  A    between atoms: C_9  and  C_10
REMARK                            x       y       z     vdW  Elec       q    Type
REMARK                         _______ _______ _______ _____ _____    ______ ____
ROOT
ATOM      1  N   UNL     1       6.800   5.254  15.892  0.00  0.00    +0.000 N 
ATOM      2  N   UNL     1       7.480   6.378  16.259  0.00  0.00    +0.000 NA
ATOM      3  N   UNL     1       7.614   6.386  17.510  0.00  0.00    +0.000 NA
ATOM      4  C   UNL     1       7.151   5.132  18.125  0.00  0.00    +0.000 C 
ATOM      5  C   UNL     1       6.344   4.475  17.028  0.00  0.00    +0.000 C 
ENDROOT
BRANCH   1   9
ATOM      6  C   UNL     1       6.767   3.969  11.863  0.00  0.00    +0.000 A 
ATOM      7  C   UNL     1       7.679   4.933  12.278  0.00  0.00    +0.000 A 
ATOM      8  C   UNL     1       7.714   5.339  13.617  0.00  0.00    +0.000 A 
ATOM      9  C   UNL     1       6.822   4.820  14.568  0.00  0.00    +0.000 A 
ATOM     10  C   UNL     1       5.925   3.831  14.122  0.00  0.00    +0.000 A 
ATOM     11  C   UNL     1       5.897   3.408  12.789  0.00  0.00    +0.000 A 
ENDBRANCH   1   9
BRANCH   5  12
ATOM     12  C   UNL     1       4.852   4.588  17.295  0.00  0.00    +0.000 A 
ATOM     13  C   UNL     1       4.245   5.791  17.666  0.00  0.00    +0.000 A 
ATOM     14  C   UNL     1       2.878   5.811  17.936  0.00  0.00    +0.000 A 
ATOM     15  C   UNL     1       2.147   4.636  17.838  0.00  0.00    +0.000 A 
ATOM     16  C   UNL     1       2.817   3.482  17.473  0.00  0.00    +0.000 A 
ATOM     17  N   UNL     1       4.141   3.430  17.205  0.00  0.00    +0.000 NA
ENDBRANCH   5  12
TORSDOF 2
ENDMDL
MODEL 9
REMARK VINA RESULT:      -7.2      1.211      4.976
REMARK  Name = 
REMARK  2 active torsions:
REMARK  status: ('A' for Active; 'I' for Inactive)
REMARK    1  A    between atoms: C_4  and  N_5
REMARK    2  A    between atoms: C_9  and  C_10
REMARK                            x       y       z     vdW  Elec       q    Type
REMARK                         _______ _______ _______ _____ _____    ______ ____
ROOT
ATOM      1  N   UNL     1       6.825   5.259  15.930  0.00  0.00    +0.000 N 
ATOM      2  N   UNL     1       7.486   6.399  16.281  0.00  0.00    +0.000 NA
ATOM      3  N   UNL     1       7.645   6.413  17.529  0.00  0.00    +0.000 NA
ATOM      4  C   UNL     1       7.223   5.149  18.156  0.00  0.00    +0.000 C 
ATOM      5  C   UNL     1       6.409   4.473  17.077  0.00  0.00    +0.000 C 
ENDROOT
BRANCH   1   9
ATOM      6  C   UNL     1       6.739   3.969  11.904  0.00  0.00    +0.000 A 
ATOM      7  C   UNL     1       7.664   4.926  12.308  0.00  0.00    +0.000 A 
ATOM      8  C   UNL     1       7.716   5.334  13.646  0.00  0.00    +0.000 A 
ATOM      9  C   UNL     1       6.829   4.823  14.607  0.00  0.00    +0.000 A 
ATOM     10  C   UNL     1       5.919   3.842  14.171  0.00  0.00    +0.000 A 
ATOM     11  C   UNL     1       5.874   3.416  12.839  0.00  0.00    +0.000 A 
ENDBRANCH   1   9
BRANCH   5  12
ATOM     12  C   UNL     1       4.921   4.552  17.374  0.00  0.00    +0.000 A 
ATOM     13  C   UNL     1       4.068   3.455  17.229  0.00  0.00    +0.000 A 
ATOM     14  C   UNL     1       2.706   3.612  17.479  0.00  0.00    +0.000 A 
ATOM     15  C   UNL     1       2.222   4.855  17.860  0.00  0.00    +0.000 A 
ATOM     16  C   UNL     1       3.125   5.897  17.975  0.00  0.00    +0.000 A 
ATOM     17  N   UNL     1       4.451   5.777  17.739  0.00  0.00    +0.000 NA
ENDBRANCH   5  12
TORSDOF 2
ENDMDL
