MODEL 1
REMARK VINA RESULT:      -6.5      0.000      0.000
REMARK  Name = 
REMARK  13 active torsions:
REMARK  status: ('A' for Active; 'I' for Inactive)
REMARK    1  A    between atoms: N_1  and  C_2
REMARK    2  A    between atoms: C_4  and  N_5
REMARK    3  A    between atoms: C_6  and  O_7
REMARK    4  A    between atoms: O_7  and  C_8
REMARK    5  A    between atoms: C_10  and  C_11
REMARK    6  A    between atoms: C_11  and  O_12
REMARK    7  A    between atoms: C_11  and  C_13
REMARK    8  A    between atoms: C_13  and  O_14
REMARK    9  A    between atoms: C_15  and  O_16
REMARK   10  A    between atoms: C_17  and  O_18
REMARK   11  A    between atoms: C_19  and  N_20
REMARK   12  A    between atoms: C_21  and  O_22
REMARK   13  A    between atoms: C_23  and  O_24
REMARK                            x       y       z     vdW  Elec       q    Type
REMARK                         _______ _______ _______ _____ _____    ______ ____
ROOT
ATOM      1  C   UNL     1       4.765   4.513  17.026  0.00  0.00    +0.000 C 
ATOM      2  O   UNL     1       5.971   3.854  17.412  0.00  0.00    +0.000 OA
ATOM      3  C   UNL     1       7.082   4.724  17.692  0.00  0.00    +0.000 C 
ATOM      4  C   UNL     1       7.403   5.514  16.411  0.00  0.00    +0.000 C 
ATOM      5  C   UNL     1       6.165   6.268  15.896  0.00  0.00    +0.000 C 
ATOM      6  C   UNL     1       4.962   5.314  15.701  0.00  0.00    +0.000 C 
ENDROOT
BRANCH   6   7
ATOM      7  N   UNL     1       5.091   4.458  14.498  0.00  0.00    +0.000 NA
ATOM      8  H   UNL     1       5.044   5.063  13.672  0.00  0.00    +0.000 HD
ATOM      9  H   UNL     1       4.322   3.792  14.436  0.00  0.00    +0.000 HD
ENDBRANCH   6   7
BRANCH   4  10
ATOM     10  O   UNL     1       7.854   4.581  15.413  0.00  0.00    +0.000 OA
ATOM     11  H   UNL     1       7.306   3.775  15.513  0.00  0.00    +0.000 HD
ENDBRANCH   4  10
BRANCH   5  12
ATOM     12  O   UNL     1       5.844   7.300  16.836  0.00  0.00    +0.000 OA
ATOM     13  H   UNL     1       6.411   8.073  16.659  0.00  0.00    +0.000 HD
ENDBRANCH   5  12
BRANCH   1  14
ATOM     14  O   UNL     1       3.715   3.564  16.839  0.00  0.00    +0.000 OA
BRANCH  14  18
ATOM     15  C   UNL     1       2.349   3.125  20.912  0.00  0.00    +0.000 C 
ATOM     16  C   UNL     1       2.701   1.855  20.128  0.00  0.00    +0.000 C 
ATOM     17  C   UNL     1       3.586   2.179  18.919  0.00  0.00    +0.000 C 
ATOM     18  C   UNL     1       2.923   3.246  17.998  0.00  0.00    +0.000 C 
ATOM     19  C   UNL     1       2.485   4.499  18.795  0.00  0.00    +0.000 C 
ATOM     20  C   UNL     1       1.601   4.129  19.999  0.00  0.00    +0.000 C 
BRANCH  15  21
ATOM     21  N   UNL     1       1.575   2.785  22.109  0.00  0.00    +0.000 NA
ATOM     22  H   UNL     1       0.689   3.289  22.124  0.00  0.00    +0.000 HD
ATOM     23  H   UNL     1       2.082   3.041  22.953  0.00  0.00    +0.000 HD
ENDBRANCH  15  21
BRANCH  17  24
ATOM     24  N   UNL     1       3.899   0.943  18.185  0.00  0.00    +0.000 NA
ATOM     25  H   UNL     1       4.906   0.806  18.115  0.00  0.00    +0.000 HD
ATOM     26  H   UNL     1       3.531   0.984  17.237  0.00  0.00    +0.000 HD
ENDBRANCH  17  24
BRANCH  19  27
ATOM     27  O   UNL     1       1.818   5.421  17.919  0.00  0.00    +0.000 OA
ATOM     28  H   UNL     1       0.866   5.399  18.123  0.00  0.00    +0.000 HD
ENDBRANCH  19  27
BRANCH  20  29
ATOM     29  O   UNL     1       1.247   5.316  20.717  0.00  0.00    +0.000 OA
ATOM     30  H   UNL     1       2.045   5.868  20.797  0.00  0.00    +0.000 HD
ENDBRANCH  20  29
ENDBRANCH  14  18
ENDBRANCH   1  14
BRANCH   3  31
ATOM     31  C   UNL     1       6.879   5.538  18.995  0.00  0.00    +0.000 C 
BRANCH  31  32
ATOM     32  O   UNL     1       6.079   4.773  19.931  0.00  0.00    +0.000 OA
ATOM     33  H   UNL     1       6.018   5.283  20.757  0.00  0.00    +0.000 HD
ENDBRANCH  31  32
BRANCH  31  34
ATOM     34  C   UNL     1       8.201   5.887  19.691  0.00  0.00    +0.000 C 
BRANCH  34  35
ATOM     35  O   UNL     1       8.247   5.291  20.986  0.00  0.00    +0.000 OA
ATOM     36  H   UNL     1       8.621   4.392  20.864  0.00  0.00    +0.000 HD
ENDBRANCH  34  35
ENDBRANCH  31  34
ENDBRANCH   3  31
TORSDOF 13
ENDMDL
MODEL 2
REMARK VINA RESULT:      -6.5      2.073      5.964
REMARK  Name = 
REMARK  13 active torsions:
REMARK  status: ('A' for Active; 'I' for Inactive)
REMARK    1  A    between atoms: N_1  and  C_2
REMARK    2  A    between atoms: C_4  and  N_5
REMARK    3  A    between atoms: C_6  and  O_7
REMARK    4  A    between atoms: O_7  and  C_8
REMARK    5  A    between atoms: C_10  and  C_11
REMARK    6  A    between atoms: C_11  and  O_12
REMARK    7  A    between atoms: C_11  and  C_13
REMARK    8  A    between atoms: C_13  and  O_14
REMARK    9  A    between atoms: C_15  and  O_16
REMARK   10  A    between atoms: C_17  and  O_18
REMARK   11  A    between atoms: C_19  and  N_20
REMARK   12  A    between atoms: C_21  and  O_22
REMARK   13  A    between atoms: C_23  and  O_24
REMARK                            x       y       z     vdW  Elec       q    Type
REMARK                         _______ _______ _______ _____ _____    ______ ____
ROOT
ATOM      1  C   UNL     1       3.680   3.534  19.763  0.00  0.00    +0.000 C 
ATOM      2  O   UNL     1       2.986   4.441  18.907  0.00  0.00    +0.000 OA
ATOM      3  C   UNL     1       1.646   4.766  19.318  0.00  0.00    +0.000 C 
ATOM      4  C   UNL     1       0.825   3.465  19.337  0.00  0.00    +0.000 C 
ATOM      5  C   UNL     1       1.486   2.402  20.233  0.00  0.00    +0.000 C 
ATOM      6  C   UNL     1       2.956   2.152  19.822  0.00  0.00    +0.000 C 
ENDROOT
BRANCH   6   7
ATOM      7  N   UNL     1       3.083   1.357  18.578  0.00  0.00    +0.000 NA
ATOM      8  H   UNL     1       2.198   0.862  18.426  0.00  0.00    +0.000 HD
ATOM      9  H   UNL     1       3.818   0.656  18.662  0.00  0.00    +0.000 HD
ENDBRANCH   6   7
BRANCH   4  10
ATOM     10  O   UNL     1       0.733   2.975  17.988  0.00  0.00    +0.000 OA
ATOM     11  H   UNL     1       0.094   2.233  18.000  0.00  0.00    +0.000 HD
ENDBRANCH   4  10
BRANCH   5  12
ATOM     12  O   UNL     1       1.410   2.849  21.591  0.00  0.00    +0.000 OA
ATOM     13  H   UNL     1       0.993   3.730  21.608  0.00  0.00    +0.000 HD
ENDBRANCH   5  12
BRANCH   1  14
ATOM     14  O   UNL     1       5.017   3.335  19.302  0.00  0.00    +0.000 OA
BRANCH  14  18
ATOM     15  C   UNL     1       7.201   4.997  15.968  0.00  0.00    +0.000 C 
ATOM     16  C   UNL     1       7.369   5.658  17.342  0.00  0.00    +0.000 C 
ATOM     17  C   UNL     1       6.931   4.712  18.467  0.00  0.00    +0.000 C 
ATOM     18  C   UNL     1       5.472   4.212  18.255  0.00  0.00    +0.000 C 
ATOM     19  C   UNL     1       5.269   3.620  16.839  0.00  0.00    +0.000 C 
ATOM     20  C   UNL     1       5.721   4.599  15.741  0.00  0.00    +0.000 C 
BRANCH  15  21
ATOM     21  N   UNL     1       7.702   5.884  14.914  0.00  0.00    +0.000 NA
ATOM     22  H   UNL     1       7.274   5.660  14.017  0.00  0.00    +0.000 HD
ATOM     23  H   UNL     1       8.709   5.780  14.803  0.00  0.00    +0.000 HD
ENDBRANCH  15  21
BRANCH  17  24
ATOM     24  N   UNL     1       7.097   5.377  19.769  0.00  0.00    +0.000 NA
ATOM     25  H   UNL     1       6.196   5.518  20.222  0.00  0.00    +0.000 HD
ATOM     26  H   UNL     1       7.527   6.292  19.654  0.00  0.00    +0.000 HD
ENDBRANCH  17  24
BRANCH  19  27
ATOM     27  O   UNL     1       3.896   3.237  16.666  0.00  0.00    +0.000 OA
ATOM     28  H   UNL     1       3.659   2.622  17.383  0.00  0.00    +0.000 HD
ENDBRANCH  19  27
BRANCH  20  29
ATOM     29  O   UNL     1       5.539   3.996  14.455  0.00  0.00    +0.000 OA
ATOM     30  H   UNL     1       4.583   3.882  14.309  0.00  0.00    +0.000 HD
ENDBRANCH  20  29
ENDBRANCH  14  18
ENDBRANCH   1  14
BRANCH   3  31
ATOM     31  C   UNL     1       1.617   5.642  20.596  0.00  0.00    +0.000 C 
BRANCH  31  32
ATOM     32  O   UNL     1       2.672   5.228  21.498  0.00  0.00    +0.000 OA
ATOM     33  H   UNL     1       3.379   5.896  21.456  0.00  0.00    +0.000 HD
ENDBRANCH  31  32
BRANCH  31  34
ATOM     34  C   UNL     1       1.818   7.135  20.298  0.00  0.00    +0.000 C 
BRANCH  34  35
ATOM     35  O   UNL     1       2.525   7.299  19.070  0.00  0.00    +0.000 OA
ATOM     36  H   UNL     1       2.204   6.594  18.469  0.00  0.00    +0.000 HD
ENDBRANCH  34  35
ENDBRANCH  31  34
ENDBRANCH   3  31
TORSDOF 13
ENDMDL
MODEL 3
REMARK VINA RESULT:      -6.4      1.638      2.161
REMARK  Name = 
REMARK  13 active torsions:
REMARK  status: ('A' for Active; 'I' for Inactive)
REMARK    1  A    between atoms: N_1  and  C_2
REMARK    2  A    between atoms: C_4  and  N_5
REMARK    3  A    between atoms: C_6  and  O_7
REMARK    4  A    between atoms: O_7  and  C_8
REMARK    5  A    between atoms: C_10  and  C_11
REMARK    6  A    between atoms: C_11  and  O_12
REMARK    7  A    between atoms: C_11  and  C_13
REMARK    8  A    between atoms: C_13  and  O_14
REMARK    9  A    between atoms: C_15  and  O_16
REMARK   10  A    between atoms: C_17  and  O_18
REMARK   11  A    between atoms: C_19  and  N_20
REMARK   12  A    between atoms: C_21  and  O_22
REMARK   13  A    between atoms: C_23  and  O_24
REMARK                            x       y       z     vdW  Elec       q    Type
REMARK                         _______ _______ _______ _____ _____    ______ ____
ROOT
ATOM      1  C   UNL     1       4.942   4.579  17.168  0.00  0.00    +0.000 C 
ATOM      2  O   UNL     1       6.239   4.114  17.540  0.00  0.00    +0.000 OA
ATOM      3  C   UNL     1       7.288   5.095  17.458  0.00  0.00    +0.000 C 
ATOM      4  C   UNL     1       7.392   5.561  15.995  0.00  0.00    +0.000 C 
ATOM      5  C   UNL     1       6.039   6.084  15.480  0.00  0.00    +0.000 C 
ATOM      6  C   UNL     1       4.917   5.038  15.676  0.00  0.00    +0.000 C 
ENDROOT
BRANCH   6   7
ATOM      7  N   UNL     1       4.991   3.920  14.705  0.00  0.00    +0.000 NA
ATOM      8  H   UNL     1       4.038   3.700  14.400  0.00  0.00    +0.000 HD
ATOM      9  H   UNL     1       5.377   3.081  15.138  0.00  0.00    +0.000 HD
ENDBRANCH   6   7
BRANCH   4  10
ATOM     10  O   UNL     1       7.815   4.440  15.199  0.00  0.00    +0.000 OA
ATOM     11  H   UNL     1       7.319   4.491  14.355  0.00  0.00    +0.000 HD
ENDBRANCH   4  10
BRANCH   5  12
ATOM     12  O   UNL     1       5.729   7.294  16.180  0.00  0.00    +0.000 OA
ATOM     13  H   UNL     1       6.110   8.046  15.690  0.00  0.00    +0.000 HD
ENDBRANCH   5  12
BRANCH   1  14
ATOM     14  O   UNL     1       3.970   3.549  17.350  0.00  0.00    +0.000 OA
BRANCH  14  18
ATOM     15  C   UNL     1       1.636   2.342  20.777  0.00  0.00    +0.000 C 
ATOM     16  C   UNL     1       0.999   3.315  19.777  0.00  0.00    +0.000 C 
ATOM     17  C   UNL     1       1.729   3.278  18.428  0.00  0.00    +0.000 C 
ATOM     18  C   UNL     1       3.252   3.557  18.597  0.00  0.00    +0.000 C 
ATOM     19  C   UNL     1       3.888   2.636  19.668  0.00  0.00    +0.000 C 
ATOM     20  C   UNL     1       3.126   2.703  21.003  0.00  0.00    +0.000 C 
BRANCH  15  21
ATOM     21  N   UNL     1       0.875   2.331  22.029  0.00  0.00    +0.000 NA
ATOM     22  H   UNL     1       1.183   1.572  22.635  0.00  0.00    +0.000 HD
ATOM     23  H   UNL     1      -0.117   2.188  21.847  0.00  0.00    +0.000 HD
ENDBRANCH  15  21
BRANCH  17  24
ATOM     24  N   UNL     1       1.101   4.226  17.496  0.00  0.00    +0.000 NA
ATOM     25  H   UNL     1       0.090   4.241  17.618  0.00  0.00    +0.000 HD
ATOM     26  H   UNL     1       1.286   3.959  16.531  0.00  0.00    +0.000 HD
ENDBRANCH  17  24
BRANCH  19  27
ATOM     27  O   UNL     1       5.273   2.976  19.838  0.00  0.00    +0.000 OA
ATOM     28  H   UNL     1       5.788   2.498  19.164  0.00  0.00    +0.000 HD
ENDBRANCH  19  27
BRANCH  20  29
ATOM     29  O   UNL     1       3.735   1.816  21.948  0.00  0.00    +0.000 OA
ATOM     30  H   UNL     1       3.520   0.903  21.686  0.00  0.00    +0.000 HD
ENDBRANCH  20  29
ENDBRANCH  14  18
ENDBRANCH   1  14
BRANCH   3  31
ATOM     31  C   UNL     1       7.155   6.192  18.544  0.00  0.00    +0.000 C 
BRANCH  31  32
ATOM     32  O   UNL     1       7.152   5.583  19.859  0.00  0.00    +0.000 OA
ATOM     33  H   UNL     1       7.558   4.702  19.779  0.00  0.00    +0.000 HD
ENDBRANCH  31  32
BRANCH  31  34
ATOM     34  C   UNL     1       8.303   7.210  18.506  0.00  0.00    +0.000 C 
BRANCH  34  35
ATOM     35  O   UNL     1       7.878   8.404  17.850  0.00  0.00    +0.000 OA
ATOM     36  H   UNL     1       7.334   8.121  17.084  0.00  0.00    +0.000 HD
ENDBRANCH  34  35
ENDBRANCH  31  34
ENDBRANCH   3  31
TORSDOF 13
ENDMDL
MODEL 4
REMARK VINA RESULT:      -6.3      2.185      6.017
REMARK  Name = 
REMARK  13 active torsions:
REMARK  status: ('A' for Active; 'I' for Inactive)
REMARK    1  A    between atoms: N_1  and  C_2
REMARK    2  A    between atoms: C_4  and  N_5
REMARK    3  A    between atoms: C_6  and  O_7
REMARK    4  A    between atoms: O_7  and  C_8
REMARK    5  A    between atoms: C_10  and  C_11
REMARK    6  A    between atoms: C_11  and  O_12
REMARK    7  A    between atoms: C_11  and  C_13
REMARK    8  A    between atoms: C_13  and  O_14
REMARK    9  A    between atoms: C_15  and  O_16
REMARK   10  A    between atoms: C_17  and  O_18
REMARK   11  A    between atoms: C_19  and  N_20
REMARK   12  A    between atoms: C_21  and  O_22
REMARK   13  A    between atoms: C_23  and  O_24
REMARK                            x       y       z     vdW  Elec       q    Type
REMARK                         _______ _______ _______ _____ _____    ______ ____
ROOT
ATOM      1  C   UNL     1       2.860   4.028  18.329  0.00  0.00    +0.000 C 
ATOM      2  O   UNL     1       1.594   4.634  18.587  0.00  0.00    +0.000 OA
ATOM      3  C   UNL     1       1.154   4.574  19.956  0.00  0.00    +0.000 C 
ATOM      4  C   UNL     1       1.019   3.093  20.348  0.00  0.00    +0.000 C 
ATOM      5  C   UNL     1       2.334   2.330  20.107  0.00  0.00    +0.000 C 
ATOM      6  C   UNL     1       2.827   2.500  18.650  0.00  0.00    +0.000 C 
ENDROOT
BRANCH   6   7
ATOM      7  N   UNL     1       2.043   1.702  17.677  0.00  0.00    +0.000 NA
ATOM      8  H   UNL     1       2.649   1.495  16.876  0.00  0.00    +0.000 HD
ATOM      9  H   UNL     1       1.242   2.228  17.330  0.00  0.00    +0.000 HD
ENDBRANCH   6   7
BRANCH   4  10
ATOM     10  O   UNL     1      -0.031   2.515  19.554  0.00  0.00    +0.000 OA
ATOM     11  H   UNL     1       0.325   2.413  18.646  0.00  0.00    +0.000 HD
ENDBRANCH   4  10
BRANCH   5  12
ATOM     12  O   UNL     1       3.313   2.819  21.031  0.00  0.00    +0.000 OA
ATOM     13  H   UNL     1       2.856   3.289  21.752  0.00  0.00    +0.000 HD
ENDBRANCH   5  12
BRANCH   1  14
ATOM     14  O   UNL     1       3.229   4.203  16.961  0.00  0.00    +0.000 OA
BRANCH  14  18
ATOM     15  C   UNL     1       6.871   6.472  17.445  0.00  0.00    +0.000 C 
ATOM     16  C   UNL     1       5.573   7.242  17.168  0.00  0.00    +0.000 C 
ATOM     17  C   UNL     1       4.343   6.381  17.484  0.00  0.00    +0.000 C 
ATOM     18  C   UNL     1       4.377   5.032  16.706  0.00  0.00    +0.000 C 
ATOM     19  C   UNL     1       5.719   4.287  16.910  0.00  0.00    +0.000 C 
ATOM     20  C   UNL     1       6.925   5.185  16.584  0.00  0.00    +0.000 C 
BRANCH  15  21
ATOM     21  N   UNL     1       8.031   7.338  17.218  0.00  0.00    +0.000 NA
ATOM     22  H   UNL     1       8.419   7.665  18.102  0.00  0.00    +0.000 HD
ATOM     23  H   UNL     1       7.768   8.161  16.680  0.00  0.00    +0.000 HD
ENDBRANCH  15  21
BRANCH  17  24
ATOM     24  N   UNL     1       3.117   7.143  17.202  0.00  0.00    +0.000 NA
ATOM     25  H   UNL     1       2.642   7.402  18.065  0.00  0.00    +0.000 HD
ATOM     26  H   UNL     1       2.466   6.588  16.651  0.00  0.00    +0.000 HD
ENDBRANCH  17  24
BRANCH  19  27
ATOM     27  O   UNL     1       5.731   3.087  16.120  0.00  0.00    +0.000 OA
ATOM     28  H   UNL     1       6.428   3.174  15.446  0.00  0.00    +0.000 HD
ENDBRANCH  19  27
BRANCH  20  29
ATOM     29  O   UNL     1       8.139   4.460  16.814  0.00  0.00    +0.000 OA
ATOM     30  H   UNL     1       8.876   4.990  16.462  0.00  0.00    +0.000 HD
ENDBRANCH  20  29
ENDBRANCH  14  18
ENDBRANCH   1  14
BRANCH   3  31
ATOM     31  C   UNL     1       1.999   5.481  20.886  0.00  0.00    +0.000 C 
BRANCH  31  32
ATOM     32  O   UNL     1       3.377   5.496  20.438  0.00  0.00    +0.000 OA
ATOM     33  H   UNL     1       3.757   4.617  20.615  0.00  0.00    +0.000 HD
ENDBRANCH  31  32
BRANCH  31  34
ATOM     34  C   UNL     1       1.503   6.934  20.912  0.00  0.00    +0.000 C 
BRANCH  34  35
ATOM     35  O   UNL     1       1.969   7.632  19.758  0.00  0.00    +0.000 OA
ATOM     36  H   UNL     1       1.205   7.696  19.146  0.00  0.00    +0.000 HD
ENDBRANCH  34  35
ENDBRANCH  31  34
ENDBRANCH   3  31
TORSDOF 13
ENDMDL
MODEL 5
REMARK VINA RESULT:      -6.3      2.418      3.964
REMARK  Name = 
REMARK  13 active torsions:
REMARK  status: ('A' for Active; 'I' for Inactive)
REMARK    1  A    between atoms: N_1  and  C_2
REMARK    2  A    between atoms: C_4  and  N_5
REMARK    3  A    between atoms: C_6  and  O_7
REMARK    4  A    between atoms: O_7  and  C_8
REMARK    5  A    between atoms: C_10  and  C_11
REMARK    6  A    between atoms: C_11  and  O_12
REMARK    7  A    between atoms: C_11  and  C_13
REMARK    8  A    between atoms: C_13  and  O_14
REMARK    9  A    between atoms: C_15  and  O_16
REMARK   10  A    between atoms: C_17  and  O_18
REMARK   11  A    between atoms: C_19  and  N_20
REMARK   12  A    between atoms: C_21  and  O_22
REMARK   13  A    between atoms: C_23  and  O_24
REMARK                            x       y       z     vdW  Elec       q    Type
REMARK                         _______ _______ _______ _____ _____    ______ ____
ROOT
ATOM      1  C   UNL     1       5.614   5.334  18.803  0.00  0.00    +0.000 C 
ATOM      2  O   UNL     1       5.406   6.671  18.349  0.00  0.00    +0.000 OA
ATOM      3  C   UNL     1       6.007   6.988  17.080  0.00  0.00    +0.000 C 
ATOM      4  C   UNL     1       7.528   6.802  17.215  0.00  0.00    +0.000 C 
ATOM      5  C   UNL     1       7.876   5.386  17.706  0.00  0.00    +0.000 C 
ATOM      6  C   UNL     1       7.133   5.046  19.020  0.00  0.00    +0.000 C 
ENDROOT
BRANCH   6   7
ATOM      7  N   UNL     1       7.708   5.729  20.204  0.00  0.00    +0.000 NA
ATOM      8  H   UNL     1       8.720   5.567  20.203  0.00  0.00    +0.000 HD
ATOM      9  H   UNL     1       7.334   5.342  21.070  0.00  0.00    +0.000 HD
ENDBRANCH   6   7
BRANCH   4  10
ATOM     10  O   UNL     1       8.015   7.777  18.154  0.00  0.00    +0.000 OA
ATOM     11  H   UNL     1       7.251   8.039  18.709  0.00  0.00    +0.000 HD
ENDBRANCH   4  10
BRANCH   5  12
ATOM     12  O   UNL     1       7.529   4.455  16.675  0.00  0.00    +0.000 OA
ATOM     13  H   UNL     1       6.719   3.980  16.940  0.00  0.00    +0.000 HD
ENDBRANCH   5  12
BRANCH   1  14
ATOM     14  O   UNL     1       4.922   5.110  20.031  0.00  0.00    +0.000 OA
BRANCH  14  18
ATOM     15  C   UNL     1       1.555   2.824  18.587  0.00  0.00    +0.000 C 
ATOM     16  C   UNL     1       1.270   4.081  19.419  0.00  0.00    +0.000 C 
ATOM     17  C   UNL     1       2.490   5.010  19.452  0.00  0.00    +0.000 C 
ATOM     18  C   UNL     1       3.758   4.266  19.967  0.00  0.00    +0.000 C 
ATOM     19  C   UNL     1       4.005   2.951  19.190  0.00  0.00    +0.000 C 
ATOM     20  C   UNL     1       2.758   2.049  19.181  0.00  0.00    +0.000 C 
BRANCH  15  21
ATOM     21  N   UNL     1       0.351   1.992  18.499  0.00  0.00    +0.000 NA
ATOM     22  H   UNL     1      -0.460   2.486  18.869  0.00  0.00    +0.000 HD
ATOM     23  H   UNL     1       0.461   1.139  19.045  0.00  0.00    +0.000 HD
ENDBRANCH  15  21
BRANCH  17  24
ATOM     24  N   UNL     1       2.188   6.200  20.262  0.00  0.00    +0.000 NA
ATOM     25  H   UNL     1       1.295   6.608  19.992  0.00  0.00    +0.000 HD
ATOM     26  H   UNL     1       2.901   6.915  20.132  0.00  0.00    +0.000 HD
ENDBRANCH  17  24
BRANCH  19  27
ATOM     27  O   UNL     1       5.141   2.267  19.745  0.00  0.00    +0.000 OA
ATOM     28  H   UNL     1       5.273   1.443  19.243  0.00  0.00    +0.000 HD
ENDBRANCH  19  27
BRANCH  20  29
ATOM     29  O   UNL     1       3.029   0.862  18.429  0.00  0.00    +0.000 OA
ATOM     30  H   UNL     1       3.333   1.129  17.543  0.00  0.00    +0.000 HD
ENDBRANCH  20  29
ENDBRANCH  14  18
ENDBRANCH   1  14
BRANCH   3  31
ATOM     31  C   UNL     1       5.305   6.269  15.900  0.00  0.00    +0.000 C 
BRANCH  31  32
ATOM     32  O   UNL     1       6.281   5.922  14.888  0.00  0.00    +0.000 OA
ATOM     33  H   UNL     1       6.193   6.560  14.158  0.00  0.00    +0.000 HD
ENDBRANCH  31  32
BRANCH  31  34
ATOM     34  C   UNL     1       4.598   4.976  16.328  0.00  0.00    +0.000 C 
BRANCH  34  35
ATOM     35  O   UNL     1       5.118   3.867  15.596  0.00  0.00    +0.000 OA
ATOM     36  H   UNL     1       5.998   3.669  15.980  0.00  0.00    +0.000 HD
ENDBRANCH  34  35
ENDBRANCH  31  34
ENDBRANCH   3  31
TORSDOF 13
ENDMDL
MODEL 6
REMARK VINA RESULT:      -6.1      2.321      5.905
REMARK  Name = 
REMARK  13 active torsions:
REMARK  status: ('A' for Active; 'I' for Inactive)
REMARK    1  A    between atoms: N_1  and  C_2
REMARK    2  A    between atoms: C_4  and  N_5
REMARK    3  A    between atoms: C_6  and  O_7
REMARK    4  A    between atoms: O_7  and  C_8
REMARK    5  A    between atoms: C_10  and  C_11
REMARK    6  A    between atoms: C_11  and  O_12
REMARK    7  A    between atoms: C_11  and  C_13
REMARK    8  A    between atoms: C_13  and  O_14
REMARK    9  A    between atoms: C_15  and  O_16
REMARK   10  A    between atoms: C_17  and  O_18
REMARK   11  A    between atoms: C_19  and  N_20
REMARK   12  A    between atoms: C_21  and  O_22
REMARK   13  A    between atoms: C_23  and  O_24
REMARK                            x       y       z     vdW  Elec       q    Type
REMARK                         _______ _______ _______ _____ _____    ______ ____
ROOT
ATOM      1  C   UNL     1       3.372   4.872  19.499  0.00  0.00    +0.000 C 
ATOM      2  O   UNL     1       3.828   3.780  20.298  0.00  0.00    +0.000 OA
ATOM      3  C   UNL     1       3.055   2.572  20.182  0.00  0.00    +0.000 C 
ATOM      4  C   UNL     1       1.619   2.880  20.639  0.00  0.00    +0.000 C 
ATOM      5  C   UNL     1       1.020   4.054  19.843  0.00  0.00    +0.000 C 
ATOM      6  C   UNL     1       1.930   5.304  19.911  0.00  0.00    +0.000 C 
ENDROOT
BRANCH   6   7
ATOM      7  N   UNL     1       1.864   5.998  21.219  0.00  0.00    +0.000 NA
ATOM      8  H   UNL     1       1.262   6.821  21.112  0.00  0.00    +0.000 HD
ATOM      9  H   UNL     1       2.785   6.326  21.509  0.00  0.00    +0.000 HD
ENDBRANCH   6   7
BRANCH   4  10
ATOM     10  O   UNL     1       1.657   3.210  22.038  0.00  0.00    +0.000 OA
ATOM     11  H   UNL     1       0.892   2.761  22.454  0.00  0.00    +0.000 HD
ENDBRANCH   4  10
BRANCH   5  12
ATOM     12  O   UNL     1       0.842   3.633  18.486  0.00  0.00    +0.000 OA
ATOM     13  H   UNL     1       1.564   3.021  18.251  0.00  0.00    +0.000 HD
ENDBRANCH   5  12
BRANCH   1  14
ATOM     14  O   UNL     1       4.247   5.992  19.639  0.00  0.00    +0.000 OA
BRANCH  14  18
ATOM     15  C   UNL     1       6.663   5.459  16.100  0.00  0.00    +0.000 C 
ATOM     16  C   UNL     1       7.359   5.390  17.465  0.00  0.00    +0.000 C 
ATOM     17  C   UNL     1       6.347   5.129  18.588  0.00  0.00    +0.000 C 
ATOM     18  C   UNL     1       5.208   6.191  18.587  0.00  0.00    +0.000 C 
ATOM     19  C   UNL     1       4.556   6.331  17.189  0.00  0.00    +0.000 C 
ATOM     20  C   UNL     1       5.604   6.591  16.094  0.00  0.00    +0.000 C 
BRANCH  15  21
ATOM     21  N   UNL     1       7.655   5.625  15.034  0.00  0.00    +0.000 NA
ATOM     22  H   UNL     1       8.465   5.027  15.195  0.00  0.00    +0.000 HD
ATOM     23  H   UNL     1       7.992   6.585  15.000  0.00  0.00    +0.000 HD
ENDBRANCH  15  21
BRANCH  17  24
ATOM     24  N   UNL     1       7.042   5.076  19.883  0.00  0.00    +0.000 NA
ATOM     25  H   UNL     1       6.651   4.347  20.477  0.00  0.00    +0.000 HD
ATOM     26  H   UNL     1       6.946   5.958  20.381  0.00  0.00    +0.000 HD
ENDBRANCH  17  24
BRANCH  19  27
ATOM     27  O   UNL     1       3.563   7.368  17.220  0.00  0.00    +0.000 OA
ATOM     28  H   UNL     1       3.989   8.187  17.529  0.00  0.00    +0.000 HD
ENDBRANCH  19  27
BRANCH  20  29
ATOM     29  O   UNL     1       4.956   6.684  14.821  0.00  0.00    +0.000 OA
ATOM     30  H   UNL     1       4.694   7.612  14.684  0.00  0.00    +0.000 HD
ENDBRANCH  20  29
ENDBRANCH  14  18
ENDBRANCH   1  14
BRANCH   3  31
ATOM     31  C   UNL     1       3.230   1.891  18.800  0.00  0.00    +0.000 C 
BRANCH  31  32
ATOM     32  O   UNL     1       3.501   2.894  17.790  0.00  0.00    +0.000 OA
ATOM     33  H   UNL     1       2.934   3.663  17.975  0.00  0.00    +0.000 HD
ENDBRANCH  31  32
BRANCH  31  34
ATOM     34  C   UNL     1       4.387   0.882  18.777  0.00  0.00    +0.000 C 
BRANCH  34  35
ATOM     35  O   UNL     1       5.224   1.069  19.916  0.00  0.00    +0.000 OA
ATOM     36  H   UNL     1       6.133   1.203  19.574  0.00  0.00    +0.000 HD
ENDBRANCH  34  35
ENDBRANCH  31  34
ENDBRANCH   3  31
TORSDOF 13
ENDMDL
MODEL 7
REMARK VINA RESULT:      -6.1      2.352      6.025
REMARK  Name = 
REMARK  13 active torsions:
REMARK  status: ('A' for Active; 'I' for Inactive)
REMARK    1  A    between atoms: N_1  and  C_2
REMARK    2  A    between atoms: C_4  and  N_5
REMARK    3  A    between atoms: C_6  and  O_7
REMARK    4  A    between atoms: O_7  and  C_8
REMARK    5  A    between atoms: C_10  and  C_11
REMARK    6  A    between atoms: C_11  and  O_12
REMARK    7  A    between atoms: C_11  and  C_13
REMARK    8  A    between atoms: C_13  and  O_14
REMARK    9  A    between atoms: C_15  and  O_16
REMARK   10  A    between atoms: C_17  and  O_18
REMARK   11  A    between atoms: C_19  and  N_20
REMARK   12  A    between atoms: C_21  and  O_22
REMARK   13  A    between atoms: C_23  and  O_24
REMARK                            x       y       z     vdW  Elec       q    Type
REMARK                         _______ _______ _______ _____ _____    ______ ____
ROOT
ATOM      1  C   UNL     1       3.372   4.884  19.501  0.00  0.00    +0.000 C 
ATOM      2  O   UNL     1       3.949   3.806  20.238  0.00  0.00    +0.000 OA
ATOM      3  C   UNL     1       3.221   2.567  20.181  0.00  0.00    +0.000 C 
ATOM      4  C   UNL     1       1.823   2.807  20.777  0.00  0.00    +0.000 C 
ATOM      5  C   UNL     1       1.101   3.961  20.058  0.00  0.00    +0.000 C 
ATOM      6  C   UNL     1       1.958   5.249  20.055  0.00  0.00    +0.000 C 
ENDROOT
BRANCH   6   7
ATOM      7  N   UNL     1       1.988   5.928  21.372  0.00  0.00    +0.000 NA
ATOM      8  H   UNL     1       1.688   5.254  22.084  0.00  0.00    +0.000 HD
ATOM      9  H   UNL     1       1.338   6.713  21.396  0.00  0.00    +0.000 HD
ENDBRANCH   6   7
BRANCH   4  10
ATOM     10  O   UNL     1       1.981   3.126  22.171  0.00  0.00    +0.000 OA
ATOM     11  H   UNL     1       2.512   3.949  22.213  0.00  0.00    +0.000 HD
ENDBRANCH   4  10
BRANCH   5  12
ATOM     12  O   UNL     1       0.811   3.544  18.719  0.00  0.00    +0.000 OA
ATOM     13  H   UNL     1      -0.119   3.759  18.519  0.00  0.00    +0.000 HD
ENDBRANCH   5  12
BRANCH   1  14
ATOM     14  O   UNL     1       4.207   6.040  19.571  0.00  0.00    +0.000 OA
BRANCH  14  18
ATOM     15  C   UNL     1       6.650   5.361  16.076  0.00  0.00    +0.000 C 
ATOM     16  C   UNL     1       7.328   5.308  17.452  0.00  0.00    +0.000 C 
ATOM     17  C   UNL     1       6.296   5.100  18.567  0.00  0.00    +0.000 C 
ATOM     18  C   UNL     1       5.185   6.190  18.527  0.00  0.00    +0.000 C 
ATOM     19  C   UNL     1       4.553   6.312  17.118  0.00  0.00    +0.000 C 
ATOM     20  C   UNL     1       5.620   6.519  16.030  0.00  0.00    +0.000 C 
BRANCH  15  21
ATOM     21  N   UNL     1       7.659   5.477  15.019  0.00  0.00    +0.000 NA
ATOM     22  H   UNL     1       7.361   6.140  14.305  0.00  0.00    +0.000 HD
ATOM     23  H   UNL     1       7.803   4.580  14.558  0.00  0.00    +0.000 HD
ENDBRANCH  15  21
BRANCH  17  24
ATOM     24  N   UNL     1       6.975   5.061  19.872  0.00  0.00    +0.000 NA
ATOM     25  H   UNL     1       7.952   5.336  19.782  0.00  0.00    +0.000 HD
ATOM     26  H   UNL     1       6.958   4.120  20.260  0.00  0.00    +0.000 HD
ENDBRANCH  17  24
BRANCH  19  27
ATOM     27  O   UNL     1       3.586   7.374  17.112  0.00  0.00    +0.000 OA
ATOM     28  H   UNL     1       3.518   7.729  18.016  0.00  0.00    +0.000 HD
ENDBRANCH  19  27
BRANCH  20  29
ATOM     29  O   UNL     1       4.989   6.597  14.747  0.00  0.00    +0.000 OA
ATOM     30  H   UNL     1       4.993   5.706  14.355  0.00  0.00    +0.000 HD
ENDBRANCH  20  29
ENDBRANCH  14  18
ENDBRANCH   1  14
BRANCH   3  31
ATOM     31  C   UNL     1       3.291   1.906  18.781  0.00  0.00    +0.000 C 
BRANCH  31  32
ATOM     32  O   UNL     1       2.002   1.340  18.441  0.00  0.00    +0.000 OA
ATOM     33  H   UNL     1       2.141   0.409  18.193  0.00  0.00    +0.000 HD
ENDBRANCH  31  32
BRANCH  31  34
ATOM     34  C   UNL     1       3.671   2.899  17.674  0.00  0.00    +0.000 C 
BRANCH  34  35
ATOM     35  O   UNL     1       2.592   3.041  16.752  0.00  0.00    +0.000 OA
ATOM     36  H   UNL     1       1.816   2.605  17.163  0.00  0.00    +0.000 HD
ENDBRANCH  34  35
ENDBRANCH  31  34
ENDBRANCH   3  31
TORSDOF 13
ENDMDL
MODEL 8
REMARK VINA RESULT:      -6.1      2.351      4.001
REMARK  Name = 
REMARK  13 active torsions:
REMARK  status: ('A' for Active; 'I' for Inactive)
REMARK    1  A    between atoms: N_1  and  C_2
REMARK    2  A    between atoms: C_4  and  N_5
REMARK    3  A    between atoms: C_6  and  O_7
REMARK    4  A    between atoms: O_7  and  C_8
REMARK    5  A    between atoms: C_10  and  C_11
REMARK    6  A    between atoms: C_11  and  O_12
REMARK    7  A    between atoms: C_11  and  C_13
REMARK    8  A    between atoms: C_13  and  O_14
REMARK    9  A    between atoms: C_15  and  O_16
REMARK   10  A    between atoms: C_17  and  O_18
REMARK   11  A    between atoms: C_19  and  N_20
REMARK   12  A    between atoms: C_21  and  O_22
REMARK   13  A    between atoms: C_23  and  O_24
REMARK                            x       y       z     vdW  Elec       q    Type
REMARK                         _______ _______ _______ _____ _____    ______ ____
ROOT
ATOM      1  C   UNL     1       5.723   4.999  18.778  0.00  0.00    +0.000 C 
ATOM      2  O   UNL     1       5.211   5.900  17.795  0.00  0.00    +0.000 OA
ATOM      3  C   UNL     1       5.829   5.808  16.499  0.00  0.00    +0.000 C 
ATOM      4  C   UNL     1       7.323   6.136  16.659  0.00  0.00    +0.000 C 
ATOM      5  C   UNL     1       7.986   5.222  17.705  0.00  0.00    +0.000 C 
ATOM      6  C   UNL     1       7.234   5.273  19.057  0.00  0.00    +0.000 C 
ENDROOT
BRANCH   6   7
ATOM      7  N   UNL     1       7.486   6.524  19.812  0.00  0.00    +0.000 NA
ATOM      8  H   UNL     1       7.739   7.255  19.139  0.00  0.00    +0.000 HD
ATOM      9  H   UNL     1       8.269   6.413  20.456  0.00  0.00    +0.000 HD
ENDBRANCH   6   7
BRANCH   4  10
ATOM     10  O   UNL     1       7.437   7.509  17.071  0.00  0.00    +0.000 OA
ATOM     11  H   UNL     1       6.549   7.785  17.381  0.00  0.00    +0.000 HD
ENDBRANCH   4  10
BRANCH   5  12
ATOM     12  O   UNL     1       8.004   3.886  17.188  0.00  0.00    +0.000 OA
ATOM     13  H   UNL     1       8.717   3.389  17.630  0.00  0.00    +0.000 HD
ENDBRANCH   5  12
BRANCH   1  14
ATOM     14  O   UNL     1       4.997   5.129  20.000  0.00  0.00    +0.000 OA
BRANCH  14  18
ATOM     15  C   UNL     1       1.301   3.107  19.054  0.00  0.00    +0.000 C 
ATOM     16  C   UNL     1       1.229   4.380  19.907  0.00  0.00    +0.000 C 
ATOM     17  C   UNL     1       2.508   5.214  19.764  0.00  0.00    +0.000 C 
ATOM     18  C   UNL     1       3.776   4.375  20.105  0.00  0.00    +0.000 C 
ATOM     19  C   UNL     1       3.814   3.046  19.312  0.00  0.00    +0.000 C 
ATOM     20  C   UNL     1       2.514   2.242  19.482  0.00  0.00    +0.000 C 
BRANCH  15  21
ATOM     21  N   UNL     1       0.038   2.368  19.140  0.00  0.00    +0.000 NA
ATOM     22  H   UNL     1      -0.743   2.948  18.836  0.00  0.00    +0.000 HD
ATOM     23  H   UNL     1      -0.151   2.086  20.100  0.00  0.00    +0.000 HD
ENDBRANCH  15  21
BRANCH  17  24
ATOM     24  N   UNL     1       2.412   6.421  20.598  0.00  0.00    +0.000 NA
ATOM     25  H   UNL     1       2.637   7.255  20.059  0.00  0.00    +0.000 HD
ATOM     26  H   UNL     1       3.067   6.376  21.376  0.00  0.00    +0.000 HD
ENDBRANCH  17  24
BRANCH  19  27
ATOM     27  O   UNL     1       4.961   2.278  19.709  0.00  0.00    +0.000 OA
ATOM     28  H   UNL     1       5.548   2.188  18.938  0.00  0.00    +0.000 HD
ENDBRANCH  19  27
BRANCH  20  29
ATOM     29  O   UNL     1       2.588   1.039  18.709  0.00  0.00    +0.000 OA
ATOM     30  H   UNL     1       3.306   0.491  19.074  0.00  0.00    +0.000 HD
ENDBRANCH  20  29
ENDBRANCH  14  18
ENDBRANCH   1  14
BRANCH   3  31
ATOM     31  C   UNL     1       5.465   4.492  15.766  0.00  0.00    +0.000 C 
BRANCH  31  32
ATOM     32  O   UNL     1       4.075   4.164  16.009  0.00  0.00    +0.000 OA
ATOM     33  H   UNL     1       3.538   4.936  15.761  0.00  0.00    +0.000 HD
ENDBRANCH  31  32
BRANCH  31  34
ATOM     34  C   UNL     1       5.663   4.583  14.247  0.00  0.00    +0.000 C 
BRANCH  34  35
ATOM     35  O   UNL     1       6.350   3.427  13.771  0.00  0.00    +0.000 OA
ATOM     36  H   UNL     1       6.541   3.589  12.823  0.00  0.00    +0.000 HD
ENDBRANCH  34  35
ENDBRANCH  31  34
ENDBRANCH   3  31
TORSDOF 13
ENDMDL
MODEL 9
REMARK VINA RESULT:      -6.1      3.455      4.629
REMARK  Name = 
REMARK  13 active torsions:
REMARK  status: ('A' for Active; 'I' for Inactive)
REMARK    1  A    between atoms: N_1  and  C_2
REMARK    2  A    between atoms: C_4  and  N_5
REMARK    3  A    between atoms: C_6  and  O_7
REMARK    4  A    between atoms: O_7  and  C_8
REMARK    5  A    between atoms: C_10  and  C_11
REMARK    6  A    between atoms: C_11  and  O_12
REMARK    7  A    between atoms: C_11  and  C_13
REMARK    8  A    between atoms: C_13  and  O_14
REMARK    9  A    between atoms: C_15  and  O_16
REMARK   10  A    between atoms: C_17  and  O_18
REMARK   11  A    between atoms: C_19  and  N_20
REMARK   12  A    between atoms: C_21  and  O_22
REMARK   13  A    between atoms: C_23  and  O_24
REMARK                            x       y       z     vdW  Elec       q    Type
REMARK                         _______ _______ _______ _____ _____    ______ ____
ROOT
ATOM      1  C   UNL     1       3.949   6.203  18.071  0.00  0.00    +0.000 C 
ATOM      2  O   UNL     1       3.211   5.275  17.276  0.00  0.00    +0.000 OA
ATOM      3  C   UNL     1       3.623   3.902  17.397  0.00  0.00    +0.000 C 
ATOM      4  C   UNL     1       5.089   3.802  16.942  0.00  0.00    +0.000 C 
ATOM      5  C   UNL     1       5.987   4.770  17.734  0.00  0.00    +0.000 C 
ATOM      6  C   UNL     1       5.455   6.221  17.661  0.00  0.00    +0.000 C 
ENDROOT
BRANCH   6   7
ATOM      7  N   UNL     1       5.710   6.865  16.350  0.00  0.00    +0.000 NA
ATOM      8  H   UNL     1       5.762   6.129  15.639  0.00  0.00    +0.000 HD
ATOM      9  H   UNL     1       6.603   7.357  16.350  0.00  0.00    +0.000 HD
ENDBRANCH   6   7
BRANCH   4  10
ATOM     10  O   UNL     1       5.144   4.125  15.541  0.00  0.00    +0.000 OA
ATOM     11  H   UNL     1       4.681   3.403  15.067  0.00  0.00    +0.000 HD
ENDBRANCH   4  10
BRANCH   5  12
ATOM     12  O   UNL     1       6.042   4.320  19.093  0.00  0.00    +0.000 OA
ATOM     13  H   UNL     1       5.142   4.347  19.468  0.00  0.00    +0.000 HD
ENDBRANCH   5  12
BRANCH   1  14
ATOM     14  O   UNL     1       3.416   7.520  17.926  0.00  0.00    +0.000 OA
BRANCH  14  18
ATOM     15  C   UNL     1       0.800   9.207  20.919  0.00  0.00    +0.000 C 
ATOM     16  C   UNL     1       1.130   7.711  21.010  0.00  0.00    +0.000 C 
ATOM     17  C   UNL     1       2.391   7.374  20.203  0.00  0.00    +0.000 C 
ATOM     18  C   UNL     1       2.259   7.835  18.722  0.00  0.00    +0.000 C 
ATOM     19  C   UNL     1       1.842   9.323  18.619  0.00  0.00    +0.000 C 
ATOM     20  C   UNL     1       0.575   9.618  19.442  0.00  0.00    +0.000 C 
BRANCH  15  21
ATOM     21  N   UNL     1      -0.356   9.522  21.762  0.00  0.00    +0.000 NA
ATOM     22  H   UNL     1      -0.517   8.786  22.449  0.00  0.00    +0.000 HD
ATOM     23  H   UNL     1      -1.202   9.601  21.201  0.00  0.00    +0.000 HD
ENDBRANCH  15  21
BRANCH  17  24
ATOM     24  N   UNL     1       2.676   5.935  20.304  0.00  0.00    +0.000 NA
ATOM     25  H   UNL     1       1.861   5.425  20.639  0.00  0.00    +0.000 HD
ATOM     26  H   UNL     1       3.434   5.762  20.960  0.00  0.00    +0.000 HD
ENDBRANCH  17  24
BRANCH  19  27
ATOM     27  O   UNL     1       1.665   9.683  17.240  0.00  0.00    +0.000 OA
ATOM     28  H   UNL     1       2.438  10.206  16.962  0.00  0.00    +0.000 HD
ENDBRANCH  19  27
BRANCH  20  29
ATOM     29  O   UNL     1       0.247  11.008  19.337  0.00  0.00    +0.000 OA
ATOM     30  H   UNL     1      -0.365  11.228  20.061  0.00  0.00    +0.000 HD
ENDBRANCH  20  29
ENDBRANCH  14  18
ENDBRANCH   1  14
BRANCH   3  31
ATOM     31  C   UNL     1       3.267   3.300  18.780  0.00  0.00    +0.000 C 
BRANCH  31  32
ATOM     32  O   UNL     1       1.834   3.355  18.984  0.00  0.00    +0.000 OA
ATOM     33  H   UNL     1       1.668   3.329  19.942  0.00  0.00    +0.000 HD
ENDBRANCH  31  32
BRANCH  31  34
ATOM     34  C   UNL     1       3.702   1.835  18.921  0.00  0.00    +0.000 C 
BRANCH  34  35
ATOM     35  O   UNL     1       4.871   1.747  19.733  0.00  0.00    +0.000 OA
ATOM     36  H   UNL     1       5.522   1.216  19.226  0.00  0.00    +0.000 HD
ENDBRANCH  34  35
ENDBRANCH  31  34
ENDBRANCH   3  31
TORSDOF 13
ENDMDL
