MODEL 1
REMARK VINA RESULT:      -8.6      0.000      0.000
REMARK  Name = 
REMARK  10 active torsions:
REMARK  status: ('A' for Active; 'I' for Inactive)
REMARK    1  A    between atoms: C_2  and  C_13
REMARK    2  A    between atoms: N_3  and  C_4
REMARK    3  A    between atoms: C_4  and  C_5
REMARK    4  A    between atoms: C_5  and  C_6
REMARK    5  A    between atoms: C_18  and  C_19
REMARK    6  A    between atoms: N_21  and  C_22
REMARK    7  A    between atoms: C_22  and  C_23
REMARK    8  A    between atoms: C_23  and  C_24
REMARK    9  A    between atoms: C_24  and  C_25
REMARK   10  A    between atoms: C_25  and  N_26
REMARK                            x       y       z     vdW  Elec       q    Type
REMARK                         _______ _______ _______ _____ _____    ______ ____
ROOT
ATOM      1  C   UNL     1       4.069   5.012  19.121  0.00  0.00    +0.000 C 
ATOM      2  C   UNL     1       3.319   3.688  19.449  0.00  0.00    +0.000 C 
ATOM      3  C   UNL     1       3.399   2.831  18.189  0.00  0.00    +0.000 C 
ATOM      4  C   UNL     1       2.612   3.416  17.260  0.00  0.00    +0.000 C 
ATOM      5  C   UNL     1       1.984   4.653  17.908  0.00  0.00    +0.000 C 
ATOM      6  C   UNL     1       3.137   5.699  18.056  0.00  0.00    +0.000 C 
ATOM      7  C   UNL     1       1.879   4.149  19.336  0.00  0.00    +0.000 C 
ATOM      8  C   UNL     1       0.732   3.283  19.802  0.00  0.00    +0.000 C 
ATOM      9  C   UNL     1       0.940   4.647  20.406  0.00  0.00    +0.000 C 
ENDROOT
BRANCH   1  11
ATOM     10  O   UNL     1       6.337   4.196  19.415  0.00  0.00    +0.000 OA
ATOM     11  C   UNL     1       5.524   4.807  18.729  0.00  0.00    +0.000 C 
ATOM     12  N   UNL     1       5.809   5.336  17.481  0.00  0.00    +0.000 N 
ATOM     13  H   UNL     1       5.020   5.532  16.865  0.00  0.00    +0.000 HD
BRANCH  12  14
ATOM     14  C   UNL     1       7.107   5.164  16.845  0.00  0.00    +0.000 C 
BRANCH  14  15
ATOM     15  C   UNL     1       7.142   5.825  15.464  0.00  0.00    +0.000 C 
BRANCH  15  16
ATOM     16  C   UNL     1       6.674   4.921  14.350  0.00  0.00    +0.000 A 
ATOM     17  C   UNL     1       5.439   4.262  14.441  0.00  0.00    +0.000 A 
ATOM     18  C   UNL     1       4.993   3.443  13.398  0.00  0.00    +0.000 A 
ATOM     19  C   UNL     1       5.786   3.285  12.268  0.00  0.00    +0.000 A 
ATOM     20  F   UNL     1       5.357   2.503  11.268  0.00  0.00    +0.000 F 
ATOM     21  C   UNL     1       7.015   3.923  12.160  0.00  0.00    +0.000 A 
ATOM     22  C   UNL     1       7.461   4.739  13.202  0.00  0.00    +0.000 A 
ENDBRANCH  15  16
ENDBRANCH  14  15
ENDBRANCH  12  14
ENDBRANCH   1  11
BRANCH   6  23
ATOM     23  C   UNL     1       2.609   7.032  18.598  0.00  0.00    +0.000 C 
ATOM     24  O   UNL     1       2.518   7.282  19.806  0.00  0.00    +0.000 OA
ATOM     25  N   UNL     1       2.236   7.945  17.638  0.00  0.00    +0.000 N 
ATOM     26  H   UNL     1       2.350   7.708  16.659  0.00  0.00    +0.000 HD
BRANCH  25  27
ATOM     27  C   UNL     1       1.883   9.325  17.962  0.00  0.00    +0.000 C 
BRANCH  27  28
ATOM     28  C   UNL     1       0.368   9.541  18.126  0.00  0.00    +0.000 C 
BRANCH  28  29
ATOM     29  C   UNL     1       0.067  10.848  18.867  0.00  0.00    +0.000 C 
BRANCH  29  30
ATOM     30  C   UNL     1      -0.878  10.696  20.073  0.00  0.00    +0.000 C 
BRANCH  30  31
ATOM     31  N   UNL     1      -0.218  11.102  21.331  0.00  0.00    +0.000 NA
ATOM     32  C   UNL     1       1.106  10.489  21.531  0.00  0.00    +0.000 C 
ATOM     33  C   UNL     1       0.826   9.183  22.241  0.00  0.00    +0.000 C 
ATOM     34  C   UNL     1      -0.236   9.596  23.234  0.00  0.00    +0.000 C 
ATOM     35  C   UNL     1      -1.008  10.706  22.521  0.00  0.00    +0.000 C 
ENDBRANCH  30  31
ENDBRANCH  29  30
ENDBRANCH  28  29
ENDBRANCH  27  28
ENDBRANCH  25  27
ENDBRANCH   6  23
TORSDOF 10
ENDMDL
MODEL 2
REMARK VINA RESULT:      -8.5      0.891      1.215
REMARK  Name = 
REMARK  10 active torsions:
REMARK  status: ('A' for Active; 'I' for Inactive)
REMARK    1  A    between atoms: C_2  and  C_13
REMARK    2  A    between atoms: N_3  and  C_4
REMARK    3  A    between atoms: C_4  and  C_5
REMARK    4  A    between atoms: C_5  and  C_6
REMARK    5  A    between atoms: C_18  and  C_19
REMARK    6  A    between atoms: N_21  and  C_22
REMARK    7  A    between atoms: C_22  and  C_23
REMARK    8  A    between atoms: C_23  and  C_24
REMARK    9  A    between atoms: C_24  and  C_25
REMARK   10  A    between atoms: C_25  and  N_26
REMARK                            x       y       z     vdW  Elec       q    Type
REMARK                         _______ _______ _______ _____ _____    ______ ____
ROOT
ATOM      1  C   UNL     1       4.015   5.534  19.344  0.00  0.00    +0.000 C 
ATOM      2  C   UNL     1       3.479   4.101  19.626  0.00  0.00    +0.000 C 
ATOM      3  C   UNL     1       3.776   3.282  18.372  0.00  0.00    +0.000 C 
ATOM      4  C   UNL     1       2.958   3.737  17.398  0.00  0.00    +0.000 C 
ATOM      5  C   UNL     1       2.095   4.845  18.006  0.00  0.00    +0.000 C 
ATOM      6  C   UNL     1       3.047   6.067  18.224  0.00  0.00    +0.000 C 
ATOM      7  C   UNL     1       1.991   4.316  19.425  0.00  0.00    +0.000 C 
ATOM      8  C   UNL     1       0.979   3.267  19.821  0.00  0.00    +0.000 C 
ATOM      9  C   UNL     1       0.920   4.640  20.437  0.00  0.00    +0.000 C 
ENDROOT
BRANCH   1  11
ATOM     10  O   UNL     1       6.365   5.104  19.774  0.00  0.00    +0.000 OA
ATOM     11  C   UNL     1       5.504   5.579  19.040  0.00  0.00    +0.000 C 
ATOM     12  N   UNL     1       5.772   6.161  17.813  0.00  0.00    +0.000 N 
ATOM     13  H   UNL     1       4.999   6.230  17.150  0.00  0.00    +0.000 HD
BRANCH  12  14
ATOM     14  C   UNL     1       7.115   6.214  17.257  0.00  0.00    +0.000 C 
BRANCH  14  15
ATOM     15  C   UNL     1       7.558   4.842  16.738  0.00  0.00    +0.000 C 
BRANCH  15  16
ATOM     16  C   UNL     1       6.999   4.501  15.379  0.00  0.00    +0.000 A 
ATOM     17  C   UNL     1       5.807   3.771  15.264  0.00  0.00    +0.000 A 
ATOM     18  C   UNL     1       5.274   3.477  14.004  0.00  0.00    +0.000 A 
ATOM     19  C   UNL     1       5.938   3.912  12.863  0.00  0.00    +0.000 A 
ATOM     20  F   UNL     1       5.426   3.632  11.657  0.00  0.00    +0.000 F 
ATOM     21  C   UNL     1       7.123   4.630  12.955  0.00  0.00    +0.000 A 
ATOM     22  C   UNL     1       7.656   4.923  14.212  0.00  0.00    +0.000 A 
ENDBRANCH  15  16
ENDBRANCH  14  15
ENDBRANCH  12  14
ENDBRANCH   1  11
BRANCH   6  23
ATOM     23  C   UNL     1       2.273   7.288  18.733  0.00  0.00    +0.000 C 
ATOM     24  O   UNL     1       2.224   7.608  19.927  0.00  0.00    +0.000 OA
ATOM     25  N   UNL     1       1.622   8.014  17.760  0.00  0.00    +0.000 N 
ATOM     26  H   UNL     1       1.708   7.729  16.791  0.00  0.00    +0.000 HD
BRANCH  25  27
ATOM     27  C   UNL     1       0.990   9.301  18.033  0.00  0.00    +0.000 C 
BRANCH  27  28
ATOM     28  C   UNL     1       1.999  10.410  18.384  0.00  0.00    +0.000 C 
BRANCH  28  29
ATOM     29  C   UNL     1       1.289  11.682  18.859  0.00  0.00    +0.000 C 
BRANCH  29  30
ATOM     30  C   UNL     1       0.980  11.717  20.367  0.00  0.00    +0.000 C 
BRANCH  30  31
ATOM     31  N   UNL     1      -0.295  11.037  20.674  0.00  0.00    +0.000 NA
ATOM     32  C   UNL     1      -1.284  11.903  21.340  0.00  0.00    +0.000 C 
ATOM     33  C   UNL     1      -0.992  11.760  22.817  0.00  0.00    +0.000 C 
ATOM     34  C   UNL     1      -0.734  10.276  22.936  0.00  0.00    +0.000 C 
ATOM     35  C   UNL     1      -0.103   9.895  21.597  0.00  0.00    +0.000 C 
ENDBRANCH  30  31
ENDBRANCH  29  30
ENDBRANCH  28  29
ENDBRANCH  27  28
ENDBRANCH  25  27
ENDBRANCH   6  23
TORSDOF 10
ENDMDL
MODEL 3
REMARK VINA RESULT:      -8.4      1.290      1.984
REMARK  Name = 
REMARK  10 active torsions:
REMARK  status: ('A' for Active; 'I' for Inactive)
REMARK    1  A    between atoms: C_2  and  C_13
REMARK    2  A    between atoms: N_3  and  C_4
REMARK    3  A    between atoms: C_4  and  C_5
REMARK    4  A    between atoms: C_5  and  C_6
REMARK    5  A    between atoms: C_18  and  C_19
REMARK    6  A    between atoms: N_21  and  C_22
REMARK    7  A    between atoms: C_22  and  C_23
REMARK    8  A    between atoms: C_23  and  C_24
REMARK    9  A    between atoms: C_24  and  C_25
REMARK   10  A    between atoms: C_25  and  N_26
REMARK                            x       y       z     vdW  Elec       q    Type
REMARK                         _______ _______ _______ _____ _____    ______ ____
ROOT
ATOM      1  C   UNL     1       3.980   5.467  19.359  0.00  0.00    +0.000 C 
ATOM      2  C   UNL     1       3.401   4.059  19.682  0.00  0.00    +0.000 C 
ATOM      3  C   UNL     1       3.734   3.177  18.481  0.00  0.00    +0.000 C 
ATOM      4  C   UNL     1       2.969   3.603  17.452  0.00  0.00    +0.000 C 
ATOM      5  C   UNL     1       2.105   4.756  17.971  0.00  0.00    +0.000 C 
ATOM      6  C   UNL     1       3.073   5.967  18.174  0.00  0.00    +0.000 C 
ATOM      7  C   UNL     1       1.928   4.295  19.406  0.00  0.00    +0.000 C 
ATOM      8  C   UNL     1       0.877   3.285  19.804  0.00  0.00    +0.000 C 
ATOM      9  C   UNL     1       0.822   4.686  20.354  0.00  0.00    +0.000 C 
ENDROOT
BRANCH   1  11
ATOM     10  O   UNL     1       6.289   4.897  19.846  0.00  0.00    +0.000 OA
ATOM     11  C   UNL     1       5.482   5.468  19.119  0.00  0.00    +0.000 C 
ATOM     12  N   UNL     1       5.827   6.133  17.956  0.00  0.00    +0.000 N 
ATOM     13  H   UNL     1       5.087   6.290  17.270  0.00  0.00    +0.000 HD
BRANCH  12  14
ATOM     14  C   UNL     1       7.194   6.169  17.459  0.00  0.00    +0.000 C 
BRANCH  14  15
ATOM     15  C   UNL     1       7.625   4.803  16.915  0.00  0.00    +0.000 C 
BRANCH  15  16
ATOM     16  C   UNL     1       7.036   4.480  15.563  0.00  0.00    +0.000 A 
ATOM     17  C   UNL     1       5.881   3.692  15.462  0.00  0.00    +0.000 A 
ATOM     18  C   UNL     1       5.320   3.412  14.211  0.00  0.00    +0.000 A 
ATOM     19  C   UNL     1       5.919   3.921  13.065  0.00  0.00    +0.000 A 
ATOM     20  F   UNL     1       5.381   3.655  11.868  0.00  0.00    +0.000 F 
ATOM     21  C   UNL     1       7.068   4.698  13.143  0.00  0.00    +0.000 A 
ATOM     22  C   UNL     1       7.629   4.976  14.391  0.00  0.00    +0.000 A 
ENDBRANCH  15  16
ENDBRANCH  14  15
ENDBRANCH  12  14
ENDBRANCH   1  11
BRANCH   6  23
ATOM     23  C   UNL     1       2.305   7.226  18.593  0.00  0.00    +0.000 C 
ATOM     24  O   UNL     1       1.731   7.967  17.787  0.00  0.00    +0.000 OA
ATOM     25  N   UNL     1       2.299   7.482  19.946  0.00  0.00    +0.000 N 
ATOM     26  H   UNL     1       2.762   6.834  20.574  0.00  0.00    +0.000 HD
BRANCH  25  27
ATOM     27  C   UNL     1       1.473   8.527  20.543  0.00  0.00    +0.000 C 
BRANCH  27  28
ATOM     28  C   UNL     1       0.572   8.013  21.680  0.00  0.00    +0.000 C 
BRANCH  28  29
ATOM     29  C   UNL     1      -0.147   9.165  22.389  0.00  0.00    +0.000 C 
BRANCH  29  30
ATOM     30  C   UNL     1       0.031  10.540  21.718  0.00  0.00    +0.000 C 
BRANCH  30  31
ATOM     31  N   UNL     1      -0.312  11.641  22.641  0.00  0.00    +0.000 NA
ATOM     32  C   UNL     1      -1.681  11.559  23.180  0.00  0.00    +0.000 C 
ATOM     33  C   UNL     1      -2.538  12.297  22.175  0.00  0.00    +0.000 C 
ATOM     34  C   UNL     1      -1.669  13.491  21.850  0.00  0.00    +0.000 C 
ATOM     35  C   UNL     1      -0.240  12.962  21.974  0.00  0.00    +0.000 C 
ENDBRANCH  30  31
ENDBRANCH  29  30
ENDBRANCH  28  29
ENDBRANCH  27  28
ENDBRANCH  25  27
ENDBRANCH   6  23
TORSDOF 10
ENDMDL
MODEL 4
REMARK VINA RESULT:      -8.4      1.853      2.547
REMARK  Name = 
REMARK  10 active torsions:
REMARK  status: ('A' for Active; 'I' for Inactive)
REMARK    1  A    between atoms: C_2  and  C_13
REMARK    2  A    between atoms: N_3  and  C_4
REMARK    3  A    between atoms: C_4  and  C_5
REMARK    4  A    between atoms: C_5  and  C_6
REMARK    5  A    between atoms: C_18  and  C_19
REMARK    6  A    between atoms: N_21  and  C_22
REMARK    7  A    between atoms: C_22  and  C_23
REMARK    8  A    between atoms: C_23  and  C_24
REMARK    9  A    between atoms: C_24  and  C_25
REMARK   10  A    between atoms: C_25  and  N_26
REMARK                            x       y       z     vdW  Elec       q    Type
REMARK                         _______ _______ _______ _____ _____    ______ ____
ROOT
ATOM      1  C   UNL     1       3.862   4.514  19.475  0.00  0.00    +0.000 C 
ATOM      2  C   UNL     1       3.153   3.143  19.277  0.00  0.00    +0.000 C 
ATOM      3  C   UNL     1       3.508   2.681  17.866  0.00  0.00    +0.000 C 
ATOM      4  C   UNL     1       2.859   3.496  17.006  0.00  0.00    +0.000 C 
ATOM      5  C   UNL     1       2.049   4.491  17.843  0.00  0.00    +0.000 C 
ATOM      6  C   UNL     1       3.089   5.465  18.487  0.00  0.00    +0.000 C 
ATOM      7  C   UNL     1       1.728   3.599  19.029  0.00  0.00    +0.000 C 
ATOM      8  C   UNL     1       0.575   2.623  19.015  0.00  0.00    +0.000 C 
ATOM      9  C   UNL     1       0.586   3.761  20.001  0.00  0.00    +0.000 C 
ENDROOT
BRANCH   1  11
ATOM     10  O   UNL     1       5.988   3.417  19.062  0.00  0.00    +0.000 OA
ATOM     11  C   UNL     1       5.373   4.447  19.319  0.00  0.00    +0.000 C 
ATOM     12  N   UNL     1       5.968   5.691  19.440  0.00  0.00    +0.000 N 
ATOM     13  H   UNL     1       5.368   6.509  19.334  0.00  0.00    +0.000 HD
BRANCH  12  14
ATOM     14  C   UNL     1       7.392   5.894  19.218  0.00  0.00    +0.000 C 
BRANCH  14  15
ATOM     15  C   UNL     1       7.656   6.537  17.852  0.00  0.00    +0.000 C 
BRANCH  15  16
ATOM     16  C   UNL     1       6.907   5.878  16.720  0.00  0.00    +0.000 A 
ATOM     17  C   UNL     1       5.755   6.477  16.188  0.00  0.00    +0.000 A 
ATOM     18  C   UNL     1       5.074   5.880  15.121  0.00  0.00    +0.000 A 
ATOM     19  C   UNL     1       5.545   4.684  14.593  0.00  0.00    +0.000 A 
ATOM     20  F   UNL     1       4.894   4.115  13.571  0.00  0.00    +0.000 F 
ATOM     21  C   UNL     1       6.680   4.072  15.111  0.00  0.00    +0.000 A 
ATOM     22  C   UNL     1       7.359   4.666  16.176  0.00  0.00    +0.000 A 
ENDBRANCH  15  16
ENDBRANCH  14  15
ENDBRANCH  12  14
ENDBRANCH   1  11
BRANCH   6  23
ATOM     23  C   UNL     1       2.390   6.582  19.269  0.00  0.00    +0.000 C 
ATOM     24  O   UNL     1       2.187   6.529  20.488  0.00  0.00    +0.000 OA
ATOM     25  N   UNL     1       1.994   7.663  18.514  0.00  0.00    +0.000 N 
ATOM     26  H   UNL     1       2.201   7.675  17.522  0.00  0.00    +0.000 HD
BRANCH  25  27
ATOM     27  C   UNL     1       1.479   8.892  19.112  0.00  0.00    +0.000 C 
BRANCH  27  28
ATOM     28  C   UNL     1       1.672  10.129  18.216  0.00  0.00    +0.000 C 
BRANCH  28  29
ATOM     29  C   UNL     1       1.177  11.403  18.909  0.00  0.00    +0.000 C 
BRANCH  29  30
ATOM     30  C   UNL     1      -0.188  11.913  18.411  0.00  0.00    +0.000 C 
BRANCH  30  31
ATOM     31  N   UNL     1      -1.297  11.090  18.936  0.00  0.00    +0.000 NA
ATOM     32  C   UNL     1      -1.950  10.253  17.914  0.00  0.00    +0.000 C 
ATOM     33  C   UNL     1      -3.036  11.129  17.331  0.00  0.00    +0.000 C 
ATOM     34  C   UNL     1      -3.590  11.795  18.570  0.00  0.00    +0.000 C 
ATOM     35  C   UNL     1      -2.384  11.925  19.499  0.00  0.00    +0.000 C 
ENDBRANCH  30  31
ENDBRANCH  29  30
ENDBRANCH  28  29
ENDBRANCH  27  28
ENDBRANCH  25  27
ENDBRANCH   6  23
TORSDOF 10
ENDMDL
MODEL 5
REMARK VINA RESULT:      -8.3      1.856      2.816
REMARK  Name = 
REMARK  10 active torsions:
REMARK  status: ('A' for Active; 'I' for Inactive)
REMARK    1  A    between atoms: C_2  and  C_13
REMARK    2  A    between atoms: N_3  and  C_4
REMARK    3  A    between atoms: C_4  and  C_5
REMARK    4  A    between atoms: C_5  and  C_6
REMARK    5  A    between atoms: C_18  and  C_19
REMARK    6  A    between atoms: N_21  and  C_22
REMARK    7  A    between atoms: C_22  and  C_23
REMARK    8  A    between atoms: C_23  and  C_24
REMARK    9  A    between atoms: C_24  and  C_25
REMARK   10  A    between atoms: C_25  and  N_26
REMARK                            x       y       z     vdW  Elec       q    Type
REMARK                         _______ _______ _______ _____ _____    ______ ____
ROOT
ATOM      1  C   UNL     1       4.099   5.564  19.339  0.00  0.00    +0.000 C 
ATOM      2  C   UNL     1       3.507   4.148  19.594  0.00  0.00    +0.000 C 
ATOM      3  C   UNL     1       3.722   3.359  18.305  0.00  0.00    +0.000 C 
ATOM      4  C   UNL     1       2.894   3.883  17.375  0.00  0.00    +0.000 C 
ATOM      5  C   UNL     1       2.105   5.009  18.049  0.00  0.00    +0.000 C 
ATOM      6  C   UNL     1       3.119   6.178  18.272  0.00  0.00    +0.000 C 
ATOM      7  C   UNL     1       2.025   4.437  19.453  0.00  0.00    +0.000 C 
ATOM      8  C   UNL     1       0.978   3.423  19.851  0.00  0.00    +0.000 C 
ATOM      9  C   UNL     1       1.005   4.776  20.512  0.00  0.00    +0.000 C 
ENDROOT
BRANCH   1  11
ATOM     10  O   UNL     1       6.434   4.975  19.648  0.00  0.00    +0.000 OA
ATOM     11  C   UNL     1       5.578   5.551  18.984  0.00  0.00    +0.000 C 
ATOM     12  N   UNL     1       5.837   6.211  17.795  0.00  0.00    +0.000 N 
ATOM     13  H   UNL     1       5.049   6.373  17.168  0.00  0.00    +0.000 HD
BRANCH  12  14
ATOM     14  C   UNL     1       7.163   6.233  17.195  0.00  0.00    +0.000 C 
BRANCH  14  15
ATOM     15  C   UNL     1       7.551   4.855  16.651  0.00  0.00    +0.000 C 
BRANCH  15  16
ATOM     16  C   UNL     1       6.912   4.527  15.324  0.00  0.00    +0.000 A 
ATOM     17  C   UNL     1       7.578   4.818  14.124  0.00  0.00    +0.000 A 
ATOM     18  C   UNL     1       6.997   4.492  12.893  0.00  0.00    +0.000 A 
ATOM     19  C   UNL     1       5.750   3.878  12.868  0.00  0.00    +0.000 A 
ATOM     20  F   UNL     1       5.196   3.564  11.690  0.00  0.00    +0.000 F 
ATOM     21  C   UNL     1       5.072   3.588  14.045  0.00  0.00    +0.000 A 
ATOM     22  C   UNL     1       5.650   3.915  15.272  0.00  0.00    +0.000 A 
ENDBRANCH  15  16
ENDBRANCH  14  15
ENDBRANCH  12  14
ENDBRANCH   1  11
BRANCH   6  23
ATOM     23  C   UNL     1       2.421   7.415  18.847  0.00  0.00    +0.000 C 
ATOM     24  O   UNL     1       2.284   7.611  20.060  0.00  0.00    +0.000 OA
ATOM     25  N   UNL     1       1.946   8.306  17.910  0.00  0.00    +0.000 N 
ATOM     26  H   UNL     1       2.102   8.117  16.926  0.00  0.00    +0.000 HD
BRANCH  25  27
ATOM     27  C   UNL     1       1.419   9.618  18.271  0.00  0.00    +0.000 C 
BRANCH  27  28
ATOM     28  C   UNL     1       0.424   9.569  19.445  0.00  0.00    +0.000 C 
BRANCH  28  29
ATOM     29  C   UNL     1      -0.977  10.009  19.009  0.00  0.00    +0.000 C 
BRANCH  29  30
ATOM     30  C   UNL     1      -1.073  10.484  17.548  0.00  0.00    +0.000 C 
BRANCH  30  31
ATOM     31  N   UNL     1      -2.227   9.875  16.855  0.00  0.00    +0.000 NA
ATOM     32  C   UNL     1      -2.852  10.757  15.855  0.00  0.00    +0.000 C 
ATOM     33  C   UNL     1      -3.887  11.547  16.626  0.00  0.00    +0.000 C 
ATOM     34  C   UNL     1      -4.481  10.481  17.519  0.00  0.00    +0.000 C 
ATOM     35  C   UNL     1      -3.317   9.531  17.798  0.00  0.00    +0.000 C 
ENDBRANCH  30  31
ENDBRANCH  29  30
ENDBRANCH  28  29
ENDBRANCH  27  28
ENDBRANCH  25  27
ENDBRANCH   6  23
TORSDOF 10
ENDMDL
MODEL 6
REMARK VINA RESULT:      -8.2      4.343      8.328
REMARK  Name = 
REMARK  10 active torsions:
REMARK  status: ('A' for Active; 'I' for Inactive)
REMARK    1  A    between atoms: C_2  and  C_13
REMARK    2  A    between atoms: N_3  and  C_4
REMARK    3  A    between atoms: C_4  and  C_5
REMARK    4  A    between atoms: C_5  and  C_6
REMARK    5  A    between atoms: C_18  and  C_19
REMARK    6  A    between atoms: N_21  and  C_22
REMARK    7  A    between atoms: C_22  and  C_23
REMARK    8  A    between atoms: C_23  and  C_24
REMARK    9  A    between atoms: C_24  and  C_25
REMARK   10  A    between atoms: C_25  and  N_26
REMARK                            x       y       z     vdW  Elec       q    Type
REMARK                         _______ _______ _______ _____ _____    ______ ____
ROOT
ATOM      1  C   UNL     1       3.185   6.034  18.581  0.00  0.00    +0.000 C 
ATOM      2  C   UNL     1       2.271   4.867  18.105  0.00  0.00    +0.000 C 
ATOM      3  C   UNL     1       1.371   4.521  19.289  0.00  0.00    +0.000 C 
ATOM      4  C   UNL     1       2.153   3.945  20.227  0.00  0.00    +0.000 C 
ATOM      5  C   UNL     1       3.575   3.882  19.662  0.00  0.00    +0.000 C 
ATOM      6  C   UNL     1       4.107   5.352  19.659  0.00  0.00    +0.000 C 
ATOM      7  C   UNL     1       3.240   3.703  18.192  0.00  0.00    +0.000 C 
ATOM      8  C   UNL     1       2.910   2.353  17.600  0.00  0.00    +0.000 C 
ATOM      9  C   UNL     1       4.125   3.106  17.127  0.00  0.00    +0.000 C 
ENDROOT
BRANCH   1  11
ATOM     10  O   UNL     1       2.084   7.490  20.182  0.00  0.00    +0.000 OA
ATOM     11  C   UNL     1       2.415   7.269  19.021  0.00  0.00    +0.000 C 
ATOM     12  N   UNL     1       2.183   8.143  17.973  0.00  0.00    +0.000 N 
ATOM     13  H   UNL     1       2.758   8.033  17.137  0.00  0.00    +0.000 HD
BRANCH  12  14
ATOM     14  C   UNL     1       1.563   9.444  18.171  0.00  0.00    +0.000 C 
BRANCH  14  15
ATOM     15  C   UNL     1       0.115   9.454  17.669  0.00  0.00    +0.000 C 
BRANCH  15  16
ATOM     16  C   UNL     1      -0.771  10.432  18.401  0.00  0.00    +0.000 A 
ATOM     17  C   UNL     1      -2.022  10.787  17.875  0.00  0.00    +0.000 A 
ATOM     18  C   UNL     1      -2.856  11.674  18.566  0.00  0.00    +0.000 A 
ATOM     19  C   UNL     1      -2.433  12.204  19.779  0.00  0.00    +0.000 A 
ATOM     20  F   UNL     1      -3.232  13.051  20.441  0.00  0.00    +0.000 F 
ATOM     21  C   UNL     1      -1.195  11.870  20.313  0.00  0.00    +0.000 A 
ATOM     22  C   UNL     1      -0.362  10.987  19.623  0.00  0.00    +0.000 A 
ENDBRANCH  15  16
ENDBRANCH  14  15
ENDBRANCH  12  14
ENDBRANCH   1  11
BRANCH   6  23
ATOM     23  C   UNL     1       5.572   5.410  19.211  0.00  0.00    +0.000 C 
ATOM     24  O   UNL     1       6.475   4.777  19.771  0.00  0.00    +0.000 OA
ATOM     25  N   UNL     1       5.820   6.229  18.132  0.00  0.00    +0.000 N 
ATOM     26  H   UNL     1       5.046   6.711  17.690  0.00  0.00    +0.000 HD
BRANCH  25  27
ATOM     27  C   UNL     1       7.115   6.268  17.459  0.00  0.00    +0.000 C 
BRANCH  27  28
ATOM     28  C   UNL     1       7.588   7.697  17.137  0.00  0.00    +0.000 C 
BRANCH  28  29
ATOM     29  C   UNL     1       8.332   8.319  18.323  0.00  0.00    +0.000 C 
BRANCH  29  30
ATOM     30  C   UNL     1       8.446   9.854  18.273  0.00  0.00    +0.000 C 
BRANCH  30  31
ATOM     31  N   UNL     1       9.665  10.329  18.962  0.00  0.00    +0.000 NA
ATOM     32  C   UNL     1       9.404  10.932  20.280  0.00  0.00    +0.000 C 
ATOM     33  C   UNL     1       9.143  12.394  19.994  0.00  0.00    +0.000 C 
ATOM     34  C   UNL     1      10.200  12.695  18.956  0.00  0.00    +0.000 C 
ATOM     35  C   UNL     1      10.359  11.384  18.188  0.00  0.00    +0.000 C 
ENDBRANCH  30  31
ENDBRANCH  29  30
ENDBRANCH  28  29
ENDBRANCH  27  28
ENDBRANCH  25  27
ENDBRANCH   6  23
TORSDOF 10
ENDMDL
MODEL 7
REMARK VINA RESULT:      -8.2      1.004      1.949
REMARK  Name = 
REMARK  10 active torsions:
REMARK  status: ('A' for Active; 'I' for Inactive)
REMARK    1  A    between atoms: C_2  and  C_13
REMARK    2  A    between atoms: N_3  and  C_4
REMARK    3  A    between atoms: C_4  and  C_5
REMARK    4  A    between atoms: C_5  and  C_6
REMARK    5  A    between atoms: C_18  and  C_19
REMARK    6  A    between atoms: N_21  and  C_22
REMARK    7  A    between atoms: C_22  and  C_23
REMARK    8  A    between atoms: C_23  and  C_24
REMARK    9  A    between atoms: C_24  and  C_25
REMARK   10  A    between atoms: C_25  and  N_26
REMARK                            x       y       z     vdW  Elec       q    Type
REMARK                         _______ _______ _______ _____ _____    ______ ____
ROOT
ATOM      1  C   UNL     1       4.087   4.991  19.220  0.00  0.00    +0.000 C 
ATOM      2  C   UNL     1       3.564   3.625  19.751  0.00  0.00    +0.000 C 
ATOM      3  C   UNL     1       3.889   2.596  18.671  0.00  0.00    +0.000 C 
ATOM      4  C   UNL     1       3.080   2.855  17.621  0.00  0.00    +0.000 C 
ATOM      5  C   UNL     1       2.195   4.043  18.007  0.00  0.00    +0.000 C 
ATOM      6  C   UNL     1       3.128   5.297  18.010  0.00  0.00    +0.000 C 
ATOM      7  C   UNL     1       2.077   3.779  19.497  0.00  0.00    +0.000 C 
ATOM      8  C   UNL     1       1.072   2.804  20.065  0.00  0.00    +0.000 C 
ATOM      9  C   UNL     1       0.988   4.265  20.420  0.00  0.00    +0.000 C 
ENDROOT
BRANCH   1  11
ATOM     10  O   UNL     1       6.444   4.968  19.801  0.00  0.00    +0.000 OA
ATOM     11  C   UNL     1       5.580   5.001  18.931  0.00  0.00    +0.000 C 
ATOM     12  N   UNL     1       5.851   4.990  17.573  0.00  0.00    +0.000 N 
ATOM     13  H   UNL     1       5.098   4.699  16.948  0.00  0.00    +0.000 HD
BRANCH  12  14
ATOM     14  C   UNL     1       7.206   4.884  17.055  0.00  0.00    +0.000 C 
BRANCH  14  15
ATOM     15  C   UNL     1       7.354   5.633  15.726  0.00  0.00    +0.000 C 
BRANCH  15  16
ATOM     16  C   UNL     1       6.796   4.879  14.544  0.00  0.00    +0.000 A 
ATOM     17  C   UNL     1       7.520   4.801  13.345  0.00  0.00    +0.000 A 
ATOM     18  C   UNL     1       7.015   4.081  12.256  0.00  0.00    +0.000 A 
ATOM     19  C   UNL     1       5.785   3.445  12.370  0.00  0.00    +0.000 A 
ATOM     20  F   UNL     1       5.303   2.754  11.329  0.00  0.00    +0.000 F 
ATOM     21  C   UNL     1       5.049   3.516  13.546  0.00  0.00    +0.000 A 
ATOM     22  C   UNL     1       5.552   4.235  14.632  0.00  0.00    +0.000 A 
ENDBRANCH  15  16
ENDBRANCH  14  15
ENDBRANCH  12  14
ENDBRANCH   1  11
BRANCH   6  23
ATOM     23  C   UNL     1       2.333   6.579  18.279  0.00  0.00    +0.000 C 
ATOM     24  O   UNL     1       1.472   7.015  17.506  0.00  0.00    +0.000 OA
ATOM     25  N   UNL     1       2.647   7.225  19.454  0.00  0.00    +0.000 N 
ATOM     26  H   UNL     1       3.343   6.820  20.069  0.00  0.00    +0.000 HD
BRANCH  25  27
ATOM     27  C   UNL     1       1.872   8.353  19.961  0.00  0.00    +0.000 C 
BRANCH  27  28
ATOM     28  C   UNL     1       1.078   8.019  21.237  0.00  0.00    +0.000 C 
BRANCH  28  29
ATOM     29  C   UNL     1       1.142   9.166  22.251  0.00  0.00    +0.000 C 
BRANCH  29  30
ATOM     30  C   UNL     1      -0.198   9.888  22.485  0.00  0.00    +0.000 C 
BRANCH  30  31
ATOM     31  N   UNL     1      -0.137  11.297  22.046  0.00  0.00    +0.000 NA
ATOM     32  C   UNL     1      -1.375  11.773  21.405  0.00  0.00    +0.000 C 
ATOM     33  C   UNL     1      -1.208  11.436  19.940  0.00  0.00    +0.000 C 
ATOM     34  C   UNL     1       0.238  11.808  19.704  0.00  0.00    +0.000 C 
ATOM     35  C   UNL     1       0.926  11.514  21.037  0.00  0.00    +0.000 C 
ENDBRANCH  30  31
ENDBRANCH  29  30
ENDBRANCH  28  29
ENDBRANCH  27  28
ENDBRANCH  25  27
ENDBRANCH   6  23
TORSDOF 10
ENDMDL
MODEL 8
REMARK VINA RESULT:      -8.2      1.057      2.139
REMARK  Name = 
REMARK  10 active torsions:
REMARK  status: ('A' for Active; 'I' for Inactive)
REMARK    1  A    between atoms: C_2  and  C_13
REMARK    2  A    between atoms: N_3  and  C_4
REMARK    3  A    between atoms: C_4  and  C_5
REMARK    4  A    between atoms: C_5  and  C_6
REMARK    5  A    between atoms: C_18  and  C_19
REMARK    6  A    between atoms: N_21  and  C_22
REMARK    7  A    between atoms: C_22  and  C_23
REMARK    8  A    between atoms: C_23  and  C_24
REMARK    9  A    between atoms: C_24  and  C_25
REMARK   10  A    between atoms: C_25  and  N_26
REMARK                            x       y       z     vdW  Elec       q    Type
REMARK                         _______ _______ _______ _____ _____    ______ ____
ROOT
ATOM      1  C   UNL     1       4.067   5.035  19.289  0.00  0.00    +0.000 C 
ATOM      2  C   UNL     1       3.401   3.652  19.544  0.00  0.00    +0.000 C 
ATOM      3  C   UNL     1       3.597   2.843  18.264  0.00  0.00    +0.000 C 
ATOM      4  C   UNL     1       2.811   3.401  17.318  0.00  0.00    +0.000 C 
ATOM      5  C   UNL     1       2.068   4.570  17.971  0.00  0.00    +0.000 C 
ATOM      6  C   UNL     1       3.136   5.688  18.202  0.00  0.00    +0.000 C 
ATOM      7  C   UNL     1       1.938   4.014  19.378  0.00  0.00    +0.000 C 
ATOM      8  C   UNL     1       0.837   3.055  19.766  0.00  0.00    +0.000 C 
ATOM      9  C   UNL     1       0.920   4.410  20.419  0.00  0.00    +0.000 C 
ENDROOT
BRANCH   1  11
ATOM     10  O   UNL     1       6.423   4.727  19.790  0.00  0.00    +0.000 OA
ATOM     11  C   UNL     1       5.549   4.946  18.957  0.00  0.00    +0.000 C 
ATOM     12  N   UNL     1       5.791   5.080  17.601  0.00  0.00    +0.000 N 
ATOM     13  H   UNL     1       5.003   4.938  16.969  0.00  0.00    +0.000 HD
BRANCH  12  14
ATOM     14  C   UNL     1       7.121   4.917  17.031  0.00  0.00    +0.000 C 
BRANCH  14  15
ATOM     15  C   UNL     1       7.255   5.675  15.706  0.00  0.00    +0.000 C 
BRANCH  15  16
ATOM     16  C   UNL     1       6.752   4.899  14.514  0.00  0.00    +0.000 A 
ATOM     17  C   UNL     1       7.526   4.808  13.348  0.00  0.00    +0.000 A 
ATOM     18  C   UNL     1       7.071   4.068  12.250  0.00  0.00    +0.000 A 
ATOM     19  C   UNL     1       5.841   3.425  12.323  0.00  0.00    +0.000 A 
ATOM     20  F   UNL     1       5.408   2.715  11.274  0.00  0.00    +0.000 F 
ATOM     21  C   UNL     1       5.056   3.509  13.466  0.00  0.00    +0.000 A 
ATOM     22  C   UNL     1       5.509   4.248  14.560  0.00  0.00    +0.000 A 
ENDBRANCH  15  16
ENDBRANCH  14  15
ENDBRANCH  12  14
ENDBRANCH   1  11
BRANCH   6  23
ATOM     23  C   UNL     1       2.491   6.963  18.757  0.00  0.00    +0.000 C 
ATOM     24  O   UNL     1       1.943   7.810  18.042  0.00  0.00    +0.000 OA
ATOM     25  N   UNL     1       2.568   7.108  20.124  0.00  0.00    +0.000 N 
ATOM     26  H   UNL     1       3.006   6.378  20.674  0.00  0.00    +0.000 HD
BRANCH  25  27
ATOM     27  C   UNL     1       1.857   8.161  20.843  0.00  0.00    +0.000 C 
BRANCH  27  28
ATOM     28  C   UNL     1       0.340   7.914  20.935  0.00  0.00    +0.000 C 
BRANCH  28  29
ATOM     29  C   UNL     1      -0.361   9.027  21.721  0.00  0.00    +0.000 C 
BRANCH  29  30
ATOM     30  C   UNL     1      -0.374  10.396  21.018  0.00  0.00    +0.000 C 
BRANCH  30  31
ATOM     31  N   UNL     1      -0.269  10.252  19.551  0.00  0.00    +0.000 NA
ATOM     32  C   UNL     1       0.633  11.232  18.922  0.00  0.00    +0.000 C 
ATOM     33  C   UNL     1      -0.243  12.427  18.619  0.00  0.00    +0.000 C 
ATOM     34  C   UNL     1      -1.500  11.763  18.106  0.00  0.00    +0.000 C 
ATOM     35  C   UNL     1      -1.576  10.448  18.882  0.00  0.00    +0.000 C 
ENDBRANCH  30  31
ENDBRANCH  29  30
ENDBRANCH  28  29
ENDBRANCH  27  28
ENDBRANCH  25  27
ENDBRANCH   6  23
TORSDOF 10
ENDMDL
MODEL 9
REMARK VINA RESULT:      -8.2      4.432      8.515
REMARK  Name = 
REMARK  10 active torsions:
REMARK  status: ('A' for Active; 'I' for Inactive)
REMARK    1  A    between atoms: C_2  and  C_13
REMARK    2  A    between atoms: N_3  and  C_4
REMARK    3  A    between atoms: C_4  and  C_5
REMARK    4  A    between atoms: C_5  and  C_6
REMARK    5  A    between atoms: C_18  and  C_19
REMARK    6  A    between atoms: N_21  and  C_22
REMARK    7  A    between atoms: C_22  and  C_23
REMARK    8  A    between atoms: C_23  and  C_24
REMARK    9  A    between atoms: C_24  and  C_25
REMARK   10  A    between atoms: C_25  and  N_26
REMARK                            x       y       z     vdW  Elec       q    Type
REMARK                         _______ _______ _______ _____ _____    ______ ____
ROOT
ATOM      1  C   UNL     1       3.042   6.209  18.555  0.00  0.00    +0.000 C 
ATOM      2  C   UNL     1       2.048   5.082  18.149  0.00  0.00    +0.000 C 
ATOM      3  C   UNL     1       1.266   4.730  19.411  0.00  0.00    +0.000 C 
ATOM      4  C   UNL     1       2.123   4.106  20.248  0.00  0.00    +0.000 C 
ATOM      5  C   UNL     1       3.476   4.019  19.536  0.00  0.00    +0.000 C 
ATOM      6  C   UNL     1       4.050   5.473  19.513  0.00  0.00    +0.000 C 
ATOM      7  C   UNL     1       2.984   3.889  18.106  0.00  0.00    +0.000 C 
ATOM      8  C   UNL     1       2.553   2.566  17.518  0.00  0.00    +0.000 C 
ATOM      9  C   UNL     1       3.736   3.297  16.939  0.00  0.00    +0.000 C 
ENDROOT
BRANCH   1  11
ATOM     10  O   UNL     1       2.133   7.639  20.294  0.00  0.00    +0.000 OA
ATOM     11  C   UNL     1       2.360   7.453  19.102  0.00  0.00    +0.000 C 
ATOM     12  N   UNL     1       2.080   8.377  18.110  0.00  0.00    +0.000 N 
ATOM     13  H   UNL     1       2.580   8.281  17.226  0.00  0.00    +0.000 HD
BRANCH  12  14
ATOM     14  C   UNL     1       1.531   9.692  18.408  0.00  0.00    +0.000 C 
BRANCH  14  15
ATOM     15  C   UNL     1       0.025   9.617  18.680  0.00  0.00    +0.000 C 
BRANCH  15  16
ATOM     16  C   UNL     1      -0.389  10.284  19.969  0.00  0.00    +0.000 A 
ATOM     17  C   UNL     1      -1.021  11.537  19.949  0.00  0.00    +0.000 A 
ATOM     18  C   UNL     1      -1.428  12.145  21.142  0.00  0.00    +0.000 A 
ATOM     19  C   UNL     1      -1.199  11.499  22.351  0.00  0.00    +0.000 A 
ATOM     20  F   UNL     1      -1.591  12.080  23.492  0.00  0.00    +0.000 F 
ATOM     21  C   UNL     1      -0.569  10.261  22.392  0.00  0.00    +0.000 A 
ATOM     22  C   UNL     1      -0.162   9.655  21.203  0.00  0.00    +0.000 A 
ENDBRANCH  15  16
ENDBRANCH  14  15
ENDBRANCH  12  14
ENDBRANCH   1  11
BRANCH   6  23
ATOM     23  C   UNL     1       5.461   5.502  18.916  0.00  0.00    +0.000 C 
ATOM     24  O   UNL     1       6.301   4.618  19.122  0.00  0.00    +0.000 OA
ATOM     25  N   UNL     1       5.738   6.596  18.126  0.00  0.00    +0.000 N 
ATOM     26  H   UNL     1       5.013   7.285  17.965  0.00  0.00    +0.000 HD
BRANCH  25  27
ATOM     27  C   UNL     1       6.959   6.702  17.334  0.00  0.00    +0.000 C 
BRANCH  27  28
ATOM     28  C   UNL     1       8.110   7.399  18.083  0.00  0.00    +0.000 C 
BRANCH  28  29
ATOM     29  C   UNL     1       8.073   8.916  17.876  0.00  0.00    +0.000 C 
BRANCH  29  30
ATOM     30  C   UNL     1       8.948   9.717  18.858  0.00  0.00    +0.000 C 
BRANCH  30  31
ATOM     31  N   UNL     1       9.631  10.839  18.182  0.00  0.00    +0.000 NA
ATOM     32  C   UNL     1      10.680  11.474  18.999  0.00  0.00    +0.000 C 
ATOM     33  C   UNL     1       9.962  12.546  19.788  0.00  0.00    +0.000 C 
ATOM     34  C   UNL     1       9.031  13.122  18.745  0.00  0.00    +0.000 C 
ATOM     35  C   UNL     1       8.692  11.934  17.845  0.00  0.00    +0.000 C 
ENDBRANCH  30  31
ENDBRANCH  29  30
ENDBRANCH  28  29
ENDBRANCH  27  28
ENDBRANCH  25  27
ENDBRANCH   6  23
TORSDOF 10
ENDMDL
