MODEL 1
REMARK VINA RESULT:      -8.7      0.000      0.000
REMARK  Name = 
REMARK  7 active torsions:
REMARK  status: ('A' for Active; 'I' for Inactive)
REMARK    1  A    between atoms: C_1  and  O_2
REMARK    2  A    between atoms: O_2  and  C_3
REMARK    3  A    between atoms: C_6  and  C_7
REMARK    4  A    between atoms: C_13  and  C_14
REMARK    5  A    between atoms: N_16  and  C_17
REMARK    6  A    between atoms: C_17  and  C_18
REMARK    7  A    between atoms: C_21  and  C_22
REMARK                            x       y       z     vdW  Elec       q    Type
REMARK                         _______ _______ _______ _____ _____    ______ ____
ROOT
ATOM      1  C   UNL     1       3.713   5.715  17.953  0.00  0.00    +0.000 A 
ATOM      2  C   UNL     1       3.441   4.898  19.115  0.00  0.00    +0.000 A 
ATOM      3  C   UNL     1       2.694   5.354  20.130  0.00  0.00    +0.000 A 
ATOM      4  C   UNL     1       2.122   6.726  20.060  0.00  0.00    +0.000 A 
ATOM      5  N   UNL     1       1.404   7.149  21.054  0.00  0.00    +0.000 NA
ATOM      6  C   UNL     1       0.864   8.402  20.949  0.00  0.00    +0.000 A 
ATOM      7  C   UNL     1       1.022   9.237  19.912  0.00  0.00    +0.000 A 
ATOM      8  C   UNL     1       1.881   8.765  18.800  0.00  0.00    +0.000 A 
ATOM      9  O   UNL     1       2.106   9.511  17.842  0.00  0.00    +0.000 OA
ATOM     10  N   UNL     1       2.393   7.473  18.921  0.00  0.00    +0.000 N 
ATOM     11  C   UNL     1       3.187   6.952  17.898  0.00  0.00    +0.000 A 
ENDROOT
BRANCH   1  15
ATOM     12  C   UNL     1       6.132   4.382  14.676  0.00  0.00    +0.000 A 
ATOM     13  C   UNL     1       5.878   5.742  14.861  0.00  0.00    +0.000 A 
ATOM     14  C   UNL     1       5.110   6.179  15.945  0.00  0.00    +0.000 A 
ATOM     15  C   UNL     1       4.557   5.253  16.836  0.00  0.00    +0.000 A 
ATOM     16  C   UNL     1       4.818   3.891  16.652  0.00  0.00    +0.000 A 
ATOM     17  C   UNL     1       5.600   3.457  15.573  0.00  0.00    +0.000 A 
BRANCH  12  19
ATOM     18  C   UNL     1       6.163   3.463  12.500  0.00  0.00    +0.000 C 
ATOM     19  O   UNL     1       6.875   4.072  13.570  0.00  0.00    +0.000 OA
ENDBRANCH  12  19
ENDBRANCH   1  15
BRANCH   7  20
ATOM     20  C   UNL     1       0.314  10.549  19.959  0.00  0.00    +0.000 C 
ATOM     21  O   UNL     1       0.251  11.203  20.997  0.00  0.00    +0.000 OA
ATOM     22  N   UNL     1      -0.261  10.970  18.787  0.00  0.00    +0.000 N 
ATOM     23  H   UNL     1      -0.158  10.396  17.952  0.00  0.00    +0.000 HD
BRANCH  22  24
ATOM     24  C   UNL     1      -0.979  12.222  18.678  0.00  0.00    +0.000 C 
BRANCH  24  25
ATOM     25  C   UNL     1      -2.471  12.028  18.791  0.00  0.00    +0.000 A 
ATOM     26  C   UNL     1      -3.172  12.654  19.830  0.00  0.00    +0.000 A 
ATOM     27  C   UNL     1      -4.553  12.489  19.963  0.00  0.00    +0.000 A 
ATOM     28  C   UNL     1      -5.269  11.697  19.056  0.00  0.00    +0.000 A 
ATOM     29  C   UNL     1      -4.569  11.067  18.015  0.00  0.00    +0.000 A 
ATOM     30  C   UNL     1      -3.182  11.226  17.888  0.00  0.00    +0.000 A 
BRANCH  28  31
ATOM     31  C   UNL     1      -6.762  11.520  19.197  0.00  0.00    +0.000 C 
ATOM     32  F   UNL     1      -7.411  12.658  19.574  0.00  0.00    +0.000 F 
ATOM     33  F   UNL     1      -7.355  11.124  18.036  0.00  0.00    +0.000 F 
ATOM     34  F   UNL     1      -7.094  10.581  20.126  0.00  0.00    +0.000 F 
ENDBRANCH  28  31
ENDBRANCH  24  25
ENDBRANCH  22  24
ENDBRANCH   7  20
TORSDOF 6
ENDMDL
MODEL 2
REMARK VINA RESULT:      -8.6      0.875      1.412
REMARK  Name = 
REMARK  7 active torsions:
REMARK  status: ('A' for Active; 'I' for Inactive)
REMARK    1  A    between atoms: C_1  and  O_2
REMARK    2  A    between atoms: O_2  and  C_3
REMARK    3  A    between atoms: C_6  and  C_7
REMARK    4  A    between atoms: C_13  and  C_14
REMARK    5  A    between atoms: N_16  and  C_17
REMARK    6  A    between atoms: C_17  and  C_18
REMARK    7  A    between atoms: C_21  and  C_22
REMARK                            x       y       z     vdW  Elec       q    Type
REMARK                         _______ _______ _______ _____ _____    ______ ____
ROOT
ATOM      1  C   UNL     1       3.599   6.052  17.998  0.00  0.00    +0.000 A 
ATOM      2  C   UNL     1       3.314   5.373  19.243  0.00  0.00    +0.000 A 
ATOM      3  C   UNL     1       2.578   5.951  20.202  0.00  0.00    +0.000 A 
ATOM      4  C   UNL     1       2.032   7.317  19.983  0.00  0.00    +0.000 A 
ATOM      5  N   UNL     1       1.324   7.860  20.925  0.00  0.00    +0.000 NA
ATOM      6  C   UNL     1       0.808   9.104  20.684  0.00  0.00    +0.000 A 
ATOM      7  C   UNL     1       0.980   9.818  19.562  0.00  0.00    +0.000 A 
ATOM      8  C   UNL     1       1.828   9.211  18.508  0.00  0.00    +0.000 A 
ATOM      9  O   UNL     1       2.065   9.843  17.475  0.00  0.00    +0.000 OA
ATOM     10  N   UNL     1       2.315   7.931  18.769  0.00  0.00    +0.000 N 
ATOM     11  C   UNL     1       3.097   7.286  17.810  0.00  0.00    +0.000 A 
ENDROOT
BRANCH   1  15
ATOM     12  C   UNL     1       5.987   4.327  14.886  0.00  0.00    +0.000 A 
ATOM     13  C   UNL     1       5.832   5.711  14.975  0.00  0.00    +0.000 A 
ATOM     14  C   UNL     1       5.074   6.276  16.005  0.00  0.00    +0.000 A 
ATOM     15  C   UNL     1       4.432   5.455  16.939  0.00  0.00    +0.000 A 
ATOM     16  C   UNL     1       4.593   4.068  16.852  0.00  0.00    +0.000 A 
ATOM     17  C   UNL     1       5.365   3.506  15.826  0.00  0.00    +0.000 A 
BRANCH  12  19
ATOM     18  C   UNL     1       5.990   3.481  12.680  0.00  0.00    +0.000 C 
ATOM     19  O   UNL     1       6.730   3.890  13.824  0.00  0.00    +0.000 OA
ENDBRANCH  12  19
ENDBRANCH   1  15
BRANCH   7  20
ATOM     20  C   UNL     1       0.297  11.141  19.466  0.00  0.00    +0.000 C 
ATOM     21  O   UNL     1       0.656  11.985  18.648  0.00  0.00    +0.000 OA
ATOM     22  N   UNL     1      -0.737  11.355  20.341  0.00  0.00    +0.000 N 
ATOM     23  H   UNL     1      -1.004  10.609  20.981  0.00  0.00    +0.000 HD
BRANCH  22  24
ATOM     24  C   UNL     1      -1.495  12.587  20.364  0.00  0.00    +0.000 C 
BRANCH  24  25
ATOM     25  C   UNL     1      -2.903  12.392  19.858  0.00  0.00    +0.000 A 
ATOM     26  C   UNL     1      -3.110  11.795  18.606  0.00  0.00    +0.000 A 
ATOM     27  C   UNL     1      -4.401  11.605  18.109  0.00  0.00    +0.000 A 
ATOM     28  C   UNL     1      -5.520  12.003  18.853  0.00  0.00    +0.000 A 
ATOM     29  C   UNL     1      -5.315  12.602  20.105  0.00  0.00    +0.000 A 
ATOM     30  C   UNL     1      -4.019  12.801  20.600  0.00  0.00    +0.000 A 
BRANCH  28  31
ATOM     31  C   UNL     1      -6.916  11.795  18.317  0.00  0.00    +0.000 C 
ATOM     32  F   UNL     1      -7.271  10.483  18.216  0.00  0.00    +0.000 F 
ATOM     33  F   UNL     1      -7.869  12.376  19.099  0.00  0.00    +0.000 F 
ATOM     34  F   UNL     1      -7.084  12.319  17.072  0.00  0.00    +0.000 F 
ENDBRANCH  28  31
ENDBRANCH  24  25
ENDBRANCH  22  24
ENDBRANCH   7  20
TORSDOF 6
ENDMDL
MODEL 3
REMARK VINA RESULT:      -8.5      2.137      2.636
REMARK  Name = 
REMARK  7 active torsions:
REMARK  status: ('A' for Active; 'I' for Inactive)
REMARK    1  A    between atoms: C_1  and  O_2
REMARK    2  A    between atoms: O_2  and  C_3
REMARK    3  A    between atoms: C_6  and  C_7
REMARK    4  A    between atoms: C_13  and  C_14
REMARK    5  A    between atoms: N_16  and  C_17
REMARK    6  A    between atoms: C_17  and  C_18
REMARK    7  A    between atoms: C_21  and  C_22
REMARK                            x       y       z     vdW  Elec       q    Type
REMARK                         _______ _______ _______ _____ _____    ______ ____
ROOT
ATOM      1  C   UNL     1       3.629   5.971  18.103  0.00  0.00    +0.000 A 
ATOM      2  C   UNL     1       3.383   5.289  19.354  0.00  0.00    +0.000 A 
ATOM      3  C   UNL     1       2.626   5.840  20.314  0.00  0.00    +0.000 A 
ATOM      4  C   UNL     1       2.016   7.178  20.088  0.00  0.00    +0.000 A 
ATOM      5  N   UNL     1       1.290   7.694  21.030  0.00  0.00    +0.000 NA
ATOM      6  C   UNL     1       0.715   8.911  20.783  0.00  0.00    +0.000 A 
ATOM      7  C   UNL     1       0.847   9.623  19.654  0.00  0.00    +0.000 A 
ATOM      8  C   UNL     1       1.717   9.048  18.600  0.00  0.00    +0.000 A 
ATOM      9  O   UNL     1       1.918   9.683  17.560  0.00  0.00    +0.000 OA
ATOM     10  N   UNL     1       2.264   7.794  18.867  0.00  0.00    +0.000 N 
ATOM     11  C   UNL     1       3.069   7.179  17.908  0.00  0.00    +0.000 A 
ENDROOT
BRANCH   1  15
ATOM     12  C   UNL     1       6.075   4.330  14.991  0.00  0.00    +0.000 A 
ATOM     13  C   UNL     1       5.767   5.691  15.006  0.00  0.00    +0.000 A 
ATOM     14  C   UNL     1       4.990   6.232  16.035  0.00  0.00    +0.000 A 
ATOM     15  C   UNL     1       4.483   5.405  17.044  0.00  0.00    +0.000 A 
ATOM     16  C   UNL     1       4.798   4.041  17.030  0.00  0.00    +0.000 A 
ATOM     17  C   UNL     1       5.588   3.506  16.005  0.00  0.00    +0.000 A 
BRANCH  12  19
ATOM     18  C   UNL     1       6.087   3.563  12.756  0.00  0.00    +0.000 C 
ATOM     19  O   UNL     1       6.822   3.912  13.923  0.00  0.00    +0.000 OA
ENDBRANCH  12  19
ENDBRANCH   1  15
BRANCH   7  20
ATOM     20  C   UNL     1       0.103  10.913  19.552  0.00  0.00    +0.000 C 
ATOM     21  O   UNL     1      -0.677  11.127  18.627  0.00  0.00    +0.000 OA
ATOM     22  N   UNL     1       0.349  11.834  20.537  0.00  0.00    +0.000 N 
ATOM     23  H   UNL     1       0.990  11.592  21.291  0.00  0.00    +0.000 HD
BRANCH  22  24
ATOM     24  C   UNL     1      -0.300  13.128  20.573  0.00  0.00    +0.000 C 
BRANCH  24  25
ATOM     25  C   UNL     1      -1.577  13.094  21.374  0.00  0.00    +0.000 A 
ATOM     26  C   UNL     1      -1.608  12.410  22.597  0.00  0.00    +0.000 A 
ATOM     27  C   UNL     1      -2.777  12.358  23.360  0.00  0.00    +0.000 A 
ATOM     28  C   UNL     1      -3.945  12.993  22.920  0.00  0.00    +0.000 A 
ATOM     29  C   UNL     1      -3.919  13.678  21.695  0.00  0.00    +0.000 A 
ATOM     30  C   UNL     1      -2.747  13.722  20.926  0.00  0.00    +0.000 A 
BRANCH  28  31
ATOM     31  C   UNL     1      -5.209  12.940  23.745  0.00  0.00    +0.000 C 
ATOM     32  F   UNL     1      -5.133  12.085  24.804  0.00  0.00    +0.000 F 
ATOM     33  F   UNL     1      -5.543  14.151  24.272  0.00  0.00    +0.000 F 
ATOM     34  F   UNL     1      -6.291  12.536  23.023  0.00  0.00    +0.000 F 
ENDBRANCH  28  31
ENDBRANCH  24  25
ENDBRANCH  22  24
ENDBRANCH   7  20
TORSDOF 6
ENDMDL
MODEL 4
REMARK VINA RESULT:      -8.3      2.170      2.739
REMARK  Name = 
REMARK  7 active torsions:
REMARK  status: ('A' for Active; 'I' for Inactive)
REMARK    1  A    between atoms: C_1  and  O_2
REMARK    2  A    between atoms: O_2  and  C_3
REMARK    3  A    between atoms: C_6  and  C_7
REMARK    4  A    between atoms: C_13  and  C_14
REMARK    5  A    between atoms: N_16  and  C_17
REMARK    6  A    between atoms: C_17  and  C_18
REMARK    7  A    between atoms: C_21  and  C_22
REMARK                            x       y       z     vdW  Elec       q    Type
REMARK                         _______ _______ _______ _____ _____    ______ ____
ROOT
ATOM      1  C   UNL     1       3.679   6.003  17.821  0.00  0.00    +0.000 A 
ATOM      2  C   UNL     1       3.449   5.297  19.062  0.00  0.00    +0.000 A 
ATOM      3  C   UNL     1       2.724   5.839  20.050  0.00  0.00    +0.000 A 
ATOM      4  C   UNL     1       2.133   7.192  19.868  0.00  0.00    +0.000 A 
ATOM      5  N   UNL     1       1.436   7.699  20.838  0.00  0.00    +0.000 NA
ATOM      6  C   UNL     1       0.877   8.931  20.631  0.00  0.00    +0.000 A 
ATOM      7  C   UNL     1       0.997   9.666  19.516  0.00  0.00    +0.000 A 
ATOM      8  C   UNL     1       1.832   9.100  18.430  0.00  0.00    +0.000 A 
ATOM      9  O   UNL     1       2.021   9.755  17.400  0.00  0.00    +0.000 OA
ATOM     10  N   UNL     1       2.363   7.831  18.656  0.00  0.00    +0.000 N 
ATOM     11  C   UNL     1       3.136   7.225  17.666  0.00  0.00    +0.000 A 
ENDROOT
BRANCH   1  15
ATOM     12  C   UNL     1       6.034   4.408  14.615  0.00  0.00    +0.000 A 
ATOM     13  C   UNL     1       6.128   5.758  14.960  0.00  0.00    +0.000 A 
ATOM     14  C   UNL     1       5.379   6.273  16.023  0.00  0.00    +0.000 A 
ATOM     15  C   UNL     1       4.498   5.447  16.730  0.00  0.00    +0.000 A 
ATOM     16  C   UNL     1       4.409   4.093  16.386  0.00  0.00    +0.000 A 
ATOM     17  C   UNL     1       5.172   3.577  15.330  0.00  0.00    +0.000 A 
BRANCH  12  19
ATOM     18  C   UNL     1       6.092   3.391  12.484  0.00  0.00    +0.000 C 
ATOM     19  O   UNL     1       6.796   4.024  13.546  0.00  0.00    +0.000 OA
ENDBRANCH  12  19
ENDBRANCH   1  15
BRANCH   7  20
ATOM     20  C   UNL     1       0.273  10.970  19.459  0.00  0.00    +0.000 C 
ATOM     21  O   UNL     1       0.872  12.037  19.568  0.00  0.00    +0.000 OA
ATOM     22  N   UNL     1      -1.086  10.902  19.289  0.00  0.00    +0.000 N 
ATOM     23  H   UNL     1      -1.526   9.989  19.183  0.00  0.00    +0.000 HD
BRANCH  22  24
ATOM     24  C   UNL     1      -1.921  12.082  19.213  0.00  0.00    +0.000 C 
BRANCH  24  25
ATOM     25  C   UNL     1      -2.614  12.366  20.522  0.00  0.00    +0.000 A 
ATOM     26  C   UNL     1      -3.931  12.847  20.516  0.00  0.00    +0.000 A 
ATOM     27  C   UNL     1      -4.597  13.124  21.712  0.00  0.00    +0.000 A 
ATOM     28  C   UNL     1      -3.965  12.923  22.946  0.00  0.00    +0.000 A 
ATOM     29  C   UNL     1      -2.646  12.443  22.955  0.00  0.00    +0.000 A 
ATOM     30  C   UNL     1      -1.975  12.174  21.754  0.00  0.00    +0.000 A 
BRANCH  28  31
ATOM     31  C   UNL     1      -4.686  13.219  24.239  0.00  0.00    +0.000 C 
ATOM     32  F   UNL     1      -5.080  12.101  24.912  0.00  0.00    +0.000 F 
ATOM     33  F   UNL     1      -3.919  13.927  25.116  0.00  0.00    +0.000 F 
ATOM     34  F   UNL     1      -5.816  13.956  24.053  0.00  0.00    +0.000 F 
ENDBRANCH  28  31
ENDBRANCH  24  25
ENDBRANCH  22  24
ENDBRANCH   7  20
TORSDOF 6
ENDMDL
MODEL 5
REMARK VINA RESULT:      -8.3      1.627      2.412
REMARK  Name = 
REMARK  7 active torsions:
REMARK  status: ('A' for Active; 'I' for Inactive)
REMARK    1  A    between atoms: C_1  and  O_2
REMARK    2  A    between atoms: O_2  and  C_3
REMARK    3  A    between atoms: C_6  and  C_7
REMARK    4  A    between atoms: C_13  and  C_14
REMARK    5  A    between atoms: N_16  and  C_17
REMARK    6  A    between atoms: C_17  and  C_18
REMARK    7  A    between atoms: C_21  and  C_22
REMARK                            x       y       z     vdW  Elec       q    Type
REMARK                         _______ _______ _______ _____ _____    ______ ____
ROOT
ATOM      1  C   UNL     1       4.526   4.612  16.992  0.00  0.00    +0.000 A 
ATOM      2  C   UNL     1       4.353   3.481  17.876  0.00  0.00    +0.000 A 
ATOM      3  C   UNL     1       3.671   3.591  19.024  0.00  0.00    +0.000 A 
ATOM      4  C   UNL     1       3.069   4.899  19.398  0.00  0.00    +0.000 A 
ATOM      5  N   UNL     1       2.415   4.984  20.515  0.00  0.00    +0.000 NA
ATOM      6  C   UNL     1       1.846   6.190  20.818  0.00  0.00    +0.000 A 
ATOM      7  C   UNL     1       1.915   7.299  20.066  0.00  0.00    +0.000 A 
ATOM      8  C   UNL     1       2.703   7.207  18.813  0.00  0.00    +0.000 A 
ATOM      9  O   UNL     1       2.845   8.209  18.106  0.00  0.00    +0.000 OA
ATOM     10  N   UNL     1       3.246   5.957  18.515  0.00  0.00    +0.000 N 
ATOM     11  C   UNL     1       3.975   5.790  17.338  0.00  0.00    +0.000 A 
ENDROOT
BRANCH   1  15
ATOM     12  C   UNL     1       6.776   4.329  13.355  0.00  0.00    +0.000 A 
ATOM     13  C   UNL     1       5.470   3.842  13.420  0.00  0.00    +0.000 A 
ATOM     14  C   UNL     1       4.726   3.957  14.599  0.00  0.00    +0.000 A 
ATOM     15  C   UNL     1       5.298   4.531  15.739  0.00  0.00    +0.000 A 
ATOM     16  C   UNL     1       6.606   5.025  15.671  0.00  0.00    +0.000 A 
ATOM     17  C   UNL     1       7.343   4.920  14.484  0.00  0.00    +0.000 A 
BRANCH  12  19
ATOM     18  C   UNL     1       7.070   2.948  11.461  0.00  0.00    +0.000 C 
ATOM     19  O   UNL     1       7.412   4.140  12.159  0.00  0.00    +0.000 OA
ENDBRANCH  12  19
ENDBRANCH   1  15
BRANCH   7  20
ATOM     20  C   UNL     1       1.187   8.511  20.542  0.00  0.00    +0.000 C 
ATOM     21  O   UNL     1       0.684   8.555  21.662  0.00  0.00    +0.000 OA
ATOM     22  N   UNL     1       1.110   9.558  19.658  0.00  0.00    +0.000 N 
ATOM     23  H   UNL     1       1.566   9.473  18.751  0.00  0.00    +0.000 HD
BRANCH  22  24
ATOM     24  C   UNL     1       0.440  10.799  19.979  0.00  0.00    +0.000 C 
BRANCH  24  25
ATOM     25  C   UNL     1      -0.875  10.933  19.251  0.00  0.00    +0.000 A 
ATOM     26  C   UNL     1      -1.162  10.076  18.179  0.00  0.00    +0.000 A 
ATOM     27  C   UNL     1      -2.368  10.179  17.483  0.00  0.00    +0.000 A 
ATOM     28  C   UNL     1      -3.322  11.139  17.844  0.00  0.00    +0.000 A 
ATOM     29  C   UNL     1      -3.038  12.000  18.915  0.00  0.00    +0.000 A 
ATOM     30  C   UNL     1      -1.823  11.902  19.608  0.00  0.00    +0.000 A 
BRANCH  28  31
ATOM     31  C   UNL     1      -4.628  11.249  17.094  0.00  0.00    +0.000 C 
ATOM     32  F   UNL     1      -5.077  12.529  16.966  0.00  0.00    +0.000 F 
ATOM     33  F   UNL     1      -4.546  10.758  15.825  0.00  0.00    +0.000 F 
ATOM     34  F   UNL     1      -5.638  10.562  17.695  0.00  0.00    +0.000 F 
ENDBRANCH  28  31
ENDBRANCH  24  25
ENDBRANCH  22  24
ENDBRANCH   7  20
TORSDOF 6
ENDMDL
MODEL 6
REMARK VINA RESULT:      -8.3      1.890      2.380
REMARK  Name = 
REMARK  7 active torsions:
REMARK  status: ('A' for Active; 'I' for Inactive)
REMARK    1  A    between atoms: C_1  and  O_2
REMARK    2  A    between atoms: O_2  and  C_3
REMARK    3  A    between atoms: C_6  and  C_7
REMARK    4  A    between atoms: C_13  and  C_14
REMARK    5  A    between atoms: N_16  and  C_17
REMARK    6  A    between atoms: C_17  and  C_18
REMARK    7  A    between atoms: C_21  and  C_22
REMARK                            x       y       z     vdW  Elec       q    Type
REMARK                         _______ _______ _______ _____ _____    ______ ____
ROOT
ATOM      1  C   UNL     1       3.228   6.154  18.381  0.00  0.00    +0.000 A 
ATOM      2  C   UNL     1       2.916   5.487  19.625  0.00  0.00    +0.000 A 
ATOM      3  C   UNL     1       2.174   6.081  20.570  0.00  0.00    +0.000 A 
ATOM      4  C   UNL     1       1.651   7.454  20.335  0.00  0.00    +0.000 A 
ATOM      5  N   UNL     1       0.937   8.012  21.264  0.00  0.00    +0.000 NA
ATOM      6  C   UNL     1       0.442   9.261  21.007  0.00  0.00    +0.000 A 
ATOM      7  C   UNL     1       0.640   9.966  19.883  0.00  0.00    +0.000 A 
ATOM      8  C   UNL     1       1.495   9.340  18.846  0.00  0.00    +0.000 A 
ATOM      9  O   UNL     1       1.755   9.963  17.812  0.00  0.00    +0.000 OA
ATOM     10  N   UNL     1       1.960   8.055  19.121  0.00  0.00    +0.000 N 
ATOM     11  C   UNL     1       2.746   7.394  18.177  0.00  0.00    +0.000 A 
ENDROOT
BRANCH   1  15
ATOM     12  C   UNL     1       5.639   4.381  15.314  0.00  0.00    +0.000 A 
ATOM     13  C   UNL     1       5.611   5.767  15.480  0.00  0.00    +0.000 A 
ATOM     14  C   UNL     1       4.845   6.344  16.498  0.00  0.00    +0.000 A 
ATOM     15  C   UNL     1       4.068   5.539  17.338  0.00  0.00    +0.000 A 
ATOM     16  C   UNL     1       4.101   4.150  17.173  0.00  0.00    +0.000 A 
ATOM     17  C   UNL     1       4.881   3.574  16.161  0.00  0.00    +0.000 A 
BRANCH  12  19
ATOM     18  C   UNL     1       7.188   4.922  13.613  0.00  0.00    +0.000 C 
ATOM     19  O   UNL     1       6.405   3.934  14.272  0.00  0.00    +0.000 OA
ENDBRANCH  12  19
ENDBRANCH   1  15
BRANCH   7  20
ATOM     20  C   UNL     1      -0.023  11.298  19.769  0.00  0.00    +0.000 C 
ATOM     21  O   UNL     1       0.621  12.340  19.863  0.00  0.00    +0.000 OA
ATOM     22  N   UNL     1      -1.379  11.285  19.563  0.00  0.00    +0.000 N 
ATOM     23  H   UNL     1      -1.855  10.389  19.471  0.00  0.00    +0.000 HD
BRANCH  22  24
ATOM     24  C   UNL     1      -2.157  12.497  19.429  0.00  0.00    +0.000 C 
BRANCH  24  25
ATOM     25  C   UNL     1      -3.205  12.615  20.508  0.00  0.00    +0.000 A 
ATOM     26  C   UNL     1      -4.559  12.685  20.151  0.00  0.00    +0.000 A 
ATOM     27  C   UNL     1      -5.552  12.799  21.126  0.00  0.00    +0.000 A 
ATOM     28  C   UNL     1      -5.216  12.840  22.486  0.00  0.00    +0.000 A 
ATOM     29  C   UNL     1      -3.862  12.772  22.847  0.00  0.00    +0.000 A 
ATOM     30  C   UNL     1      -2.865  12.666  21.866  0.00  0.00    +0.000 A 
BRANCH  28  31
ATOM     31  C   UNL     1      -6.290  12.961  23.542  0.00  0.00    +0.000 C 
ATOM     32  F   UNL     1      -6.734  14.236  23.724  0.00  0.00    +0.000 F 
ATOM     33  F   UNL     1      -7.397  12.221  23.250  0.00  0.00    +0.000 F 
ATOM     34  F   UNL     1      -5.870  12.538  24.767  0.00  0.00    +0.000 F 
ENDBRANCH  28  31
ENDBRANCH  24  25
ENDBRANCH  22  24
ENDBRANCH   7  20
TORSDOF 6
ENDMDL
MODEL 7
REMARK VINA RESULT:      -8.2      2.101      2.710
REMARK  Name = 
REMARK  7 active torsions:
REMARK  status: ('A' for Active; 'I' for Inactive)
REMARK    1  A    between atoms: C_1  and  O_2
REMARK    2  A    between atoms: O_2  and  C_3
REMARK    3  A    between atoms: C_6  and  C_7
REMARK    4  A    between atoms: C_13  and  C_14
REMARK    5  A    between atoms: N_16  and  C_17
REMARK    6  A    between atoms: C_17  and  C_18
REMARK    7  A    between atoms: C_21  and  C_22
REMARK                            x       y       z     vdW  Elec       q    Type
REMARK                         _______ _______ _______ _____ _____    ______ ____
ROOT
ATOM      1  C   UNL     1       3.326   6.317  18.347  0.00  0.00    +0.000 A 
ATOM      2  C   UNL     1       3.089   5.597  19.578  0.00  0.00    +0.000 A 
ATOM      3  C   UNL     1       2.325   6.112  20.552  0.00  0.00    +0.000 A 
ATOM      4  C   UNL     1       1.698   7.447  20.364  0.00  0.00    +0.000 A 
ATOM      5  N   UNL     1       0.965   7.928  21.320  0.00  0.00    +0.000 NA
ATOM      6  C   UNL     1       0.374   9.144  21.106  0.00  0.00    +0.000 A 
ATOM      7  C   UNL     1       0.498   9.889  19.998  0.00  0.00    +0.000 A 
ATOM      8  C   UNL     1       1.374   9.355  18.929  0.00  0.00    +0.000 A 
ATOM      9  O   UNL     1       1.567  10.021  17.907  0.00  0.00    +0.000 OA
ATOM     10  N   UNL     1       1.938   8.101  19.161  0.00  0.00    +0.000 N 
ATOM     11  C   UNL     1       2.751   7.523  18.185  0.00  0.00    +0.000 A 
ENDROOT
BRANCH   1  15
ATOM     12  C   UNL     1       5.863   4.781  15.253  0.00  0.00    +0.000 A 
ATOM     13  C   UNL     1       5.251   3.916  16.162  0.00  0.00    +0.000 A 
ATOM     14  C   UNL     1       4.403   4.415  17.156  0.00  0.00    +0.000 A 
ATOM     15  C   UNL     1       4.187   5.792  17.272  0.00  0.00    +0.000 A 
ATOM     16  C   UNL     1       4.797   6.657  16.356  0.00  0.00    +0.000 A 
ATOM     17  C   UNL     1       5.635   6.153  15.353  0.00  0.00    +0.000 A 
BRANCH  12  19
ATOM     18  C   UNL     1       6.045   3.623  13.202  0.00  0.00    +0.000 C 
ATOM     19  O   UNL     1       6.688   4.182  14.342  0.00  0.00    +0.000 OA
ENDBRANCH  12  19
ENDBRANCH   1  15
BRANCH   7  20
ATOM     20  C   UNL     1      -0.263  11.171  19.931  0.00  0.00    +0.000 C 
ATOM     21  O   UNL     1      -0.996  11.429  18.980  0.00  0.00    +0.000 OA
ATOM     22  N   UNL     1      -0.088  12.035  20.982  0.00  0.00    +0.000 N 
ATOM     23  H   UNL     1       0.516  11.757  21.755  0.00  0.00    +0.000 HD
BRANCH  22  24
ATOM     24  C   UNL     1      -0.761  13.314  21.059  0.00  0.00    +0.000 C 
BRANCH  24  25
ATOM     25  C   UNL     1      -2.115  13.199  21.713  0.00  0.00    +0.000 A 
ATOM     26  C   UNL     1      -3.264  13.555  20.992  0.00  0.00    +0.000 A 
ATOM     27  C   UNL     1      -4.530  13.464  21.572  0.00  0.00    +0.000 A 
ATOM     28  C   UNL     1      -4.683  13.009  22.888  0.00  0.00    +0.000 A 
ATOM     29  C   UNL     1      -3.535  12.653  23.614  0.00  0.00    +0.000 A 
ATOM     30  C   UNL     1      -2.263  12.753  23.034  0.00  0.00    +0.000 A 
BRANCH  28  31
ATOM     31  C   UNL     1      -6.053  12.907  23.516  0.00  0.00    +0.000 C 
ATOM     32  F   UNL     1      -6.681  14.109  23.650  0.00  0.00    +0.000 F 
ATOM     33  F   UNL     1      -6.903  12.125  22.793  0.00  0.00    +0.000 F 
ATOM     34  F   UNL     1      -6.019  12.367  24.765  0.00  0.00    +0.000 F 
ENDBRANCH  28  31
ENDBRANCH  24  25
ENDBRANCH  22  24
ENDBRANCH   7  20
TORSDOF 6
ENDMDL
MODEL 8
REMARK VINA RESULT:      -8.2      4.063      4.985
REMARK  Name = 
REMARK  7 active torsions:
REMARK  status: ('A' for Active; 'I' for Inactive)
REMARK    1  A    between atoms: C_1  and  O_2
REMARK    2  A    between atoms: O_2  and  C_3
REMARK    3  A    between atoms: C_6  and  C_7
REMARK    4  A    between atoms: C_13  and  C_14
REMARK    5  A    between atoms: N_16  and  C_17
REMARK    6  A    between atoms: C_17  and  C_18
REMARK    7  A    between atoms: C_21  and  C_22
REMARK                            x       y       z     vdW  Elec       q    Type
REMARK                         _______ _______ _______ _____ _____    ______ ____
ROOT
ATOM      1  C   UNL     1       3.527   5.755  18.199  0.00  0.00    +0.000 A 
ATOM      2  C   UNL     1       3.202   4.897  19.316  0.00  0.00    +0.000 A 
ATOM      3  C   UNL     1       2.433   5.327  20.326  0.00  0.00    +0.000 A 
ATOM      4  C   UNL     1       1.891   6.712  20.297  0.00  0.00    +0.000 A 
ATOM      5  N   UNL     1       1.151   7.109  21.286  0.00  0.00    +0.000 NA
ATOM      6  C   UNL     1       0.640   8.376  21.217  0.00  0.00    +0.000 A 
ATOM      7  C   UNL     1       0.848   9.250  20.221  0.00  0.00    +0.000 A 
ATOM      8  C   UNL     1       1.732   8.806  19.117  0.00  0.00    +0.000 A 
ATOM      9  O   UNL     1       2.002   9.586  18.199  0.00  0.00    +0.000 OA
ATOM     10  N   UNL     1       2.214   7.500  19.199  0.00  0.00    +0.000 N 
ATOM     11  C   UNL     1       3.029   7.005  18.180  0.00  0.00    +0.000 A 
ENDROOT
BRANCH   1  15
ATOM     12  C   UNL     1       6.019   4.503  14.945  0.00  0.00    +0.000 A 
ATOM     13  C   UNL     1       5.694   5.850  15.110  0.00  0.00    +0.000 A 
ATOM     14  C   UNL     1       4.902   6.263  16.187  0.00  0.00    +0.000 A 
ATOM     15  C   UNL     1       4.396   5.322  17.090  0.00  0.00    +0.000 A 
ATOM     16  C   UNL     1       4.728   3.972  16.926  0.00  0.00    +0.000 A 
ATOM     17  C   UNL     1       5.533   3.564  15.854  0.00  0.00    +0.000 A 
BRANCH  12  19
ATOM     18  C   UNL     1       6.107   3.538  12.789  0.00  0.00    +0.000 C 
ATOM     19  O   UNL     1       6.780   4.216  13.844  0.00  0.00    +0.000 OA
ENDBRANCH  12  19
ENDBRANCH   1  15
BRANCH   7  20
ATOM     20  C   UNL     1       0.165  10.575  20.301  0.00  0.00    +0.000 C 
ATOM     21  O   UNL     1      -0.114  11.083  21.384  0.00  0.00    +0.000 OA
ATOM     22  N   UNL     1      -0.133  11.176  19.106  0.00  0.00    +0.000 N 
ATOM     23  H   UNL     1       0.143  10.717  18.239  0.00  0.00    +0.000 HD
BRANCH  22  24
ATOM     24  C   UNL     1      -0.791  12.463  19.025  0.00  0.00    +0.000 C 
BRANCH  24  25
ATOM     25  C   UNL     1       0.191  13.584  18.794  0.00  0.00    +0.000 A 
ATOM     26  C   UNL     1       1.515  13.282  18.447  0.00  0.00    +0.000 A 
ATOM     27  C   UNL     1       2.449  14.297  18.232  0.00  0.00    +0.000 A 
ATOM     28  C   UNL     1       2.081  15.644  18.353  0.00  0.00    +0.000 A 
ATOM     29  C   UNL     1       0.757  15.950  18.703  0.00  0.00    +0.000 A 
ATOM     30  C   UNL     1      -0.177  14.929  18.928  0.00  0.00    +0.000 A 
BRANCH  28  31
ATOM     31  C   UNL     1       3.090  16.743  18.118  0.00  0.00    +0.000 C 
ATOM     32  F   UNL     1       3.183  17.627  19.151  0.00  0.00    +0.000 F 
ATOM     33  F   UNL     1       4.351  16.265  17.926  0.00  0.00    +0.000 F 
ATOM     34  F   UNL     1       2.803  17.491  17.017  0.00  0.00    +0.000 F 
ENDBRANCH  28  31
ENDBRANCH  24  25
ENDBRANCH  22  24
ENDBRANCH   7  20
TORSDOF 6
ENDMDL
MODEL 9
REMARK VINA RESULT:      -8.1      4.280      5.162
REMARK  Name = 
REMARK  7 active torsions:
REMARK  status: ('A' for Active; 'I' for Inactive)
REMARK    1  A    between atoms: C_1  and  O_2
REMARK    2  A    between atoms: O_2  and  C_3
REMARK    3  A    between atoms: C_6  and  C_7
REMARK    4  A    between atoms: C_13  and  C_14
REMARK    5  A    between atoms: N_16  and  C_17
REMARK    6  A    between atoms: C_17  and  C_18
REMARK    7  A    between atoms: C_21  and  C_22
REMARK                            x       y       z     vdW  Elec       q    Type
REMARK                         _______ _______ _______ _____ _____    ______ ____
ROOT
ATOM      1  C   UNL     1       3.535   5.751  18.088  0.00  0.00    +0.000 A 
ATOM      2  C   UNL     1       3.234   4.914  19.228  0.00  0.00    +0.000 A 
ATOM      3  C   UNL     1       2.492   5.366  20.249  0.00  0.00    +0.000 A 
ATOM      4  C   UNL     1       1.956   6.753  20.208  0.00  0.00    +0.000 A 
ATOM      5  N   UNL     1       1.242   7.171  21.207  0.00  0.00    +0.000 NA
ATOM      6  C   UNL     1       0.735   8.440  21.129  0.00  0.00    +0.000 A 
ATOM      7  C   UNL     1       0.922   9.294  20.112  0.00  0.00    +0.000 A 
ATOM      8  C   UNL     1       1.777   8.827  18.995  0.00  0.00    +0.000 A 
ATOM      9  O   UNL     1       2.028   9.589  18.057  0.00  0.00    +0.000 OA
ATOM     10  N   UNL     1       2.254   7.520  19.089  0.00  0.00    +0.000 N 
ATOM     11  C   UNL     1       3.042   7.003  18.059  0.00  0.00    +0.000 A 
ENDROOT
BRANCH   1  15
ATOM     12  C   UNL     1       6.011   4.409  14.858  0.00  0.00    +0.000 A 
ATOM     13  C   UNL     1       5.395   3.489  15.707  0.00  0.00    +0.000 A 
ATOM     14  C   UNL     1       4.566   3.925  16.745  0.00  0.00    +0.000 A 
ATOM     15  C   UNL     1       4.375   5.294  16.966  0.00  0.00    +0.000 A 
ATOM     16  C   UNL     1       4.989   6.215  16.110  0.00  0.00    +0.000 A 
ATOM     17  C   UNL     1       5.808   5.773  15.062  0.00  0.00    +0.000 A 
BRANCH  12  19
ATOM     18  C   UNL     1       6.171   3.521  12.674  0.00  0.00    +0.000 C 
ATOM     19  O   UNL     1       6.816   3.866  13.894  0.00  0.00    +0.000 OA
ENDBRANCH  12  19
ENDBRANCH   1  15
BRANCH   7  20
ATOM     20  C   UNL     1       0.248  10.624  20.186  0.00  0.00    +0.000 C 
ATOM     21  O   UNL     1      -0.808  10.836  19.595  0.00  0.00    +0.000 OA
ATOM     22  N   UNL     1       0.878  11.582  20.938  0.00  0.00    +0.000 N 
ATOM     23  H   UNL     1       1.741  11.341  21.423  0.00  0.00    +0.000 HD
BRANCH  22  24
ATOM     24  C   UNL     1       0.343  12.917  21.104  0.00  0.00    +0.000 C 
BRANCH  24  25
ATOM     25  C   UNL     1       0.996  13.905  20.170  0.00  0.00    +0.000 A 
ATOM     26  C   UNL     1       2.330  13.712  19.783  0.00  0.00    +0.000 A 
ATOM     27  C   UNL     1       2.963  14.612  18.923  0.00  0.00    +0.000 A 
ATOM     28  C   UNL     1       2.276  15.727  18.424  0.00  0.00    +0.000 A 
ATOM     29  C   UNL     1       0.942  15.924  18.811  0.00  0.00    +0.000 A 
ATOM     30  C   UNL     1       0.310  15.025  19.681  0.00  0.00    +0.000 A 
BRANCH  28  31
ATOM     31  C   UNL     1       2.959  16.699  17.491  0.00  0.00    +0.000 C 
ATOM     32  F   UNL     1       4.138  17.182  17.976  0.00  0.00    +0.000 F 
ATOM     33  F   UNL     1       3.257  16.145  16.282  0.00  0.00    +0.000 F 
ATOM     34  F   UNL     1       2.195  17.794  17.222  0.00  0.00    +0.000 F 
ENDBRANCH  28  31
ENDBRANCH  24  25
ENDBRANCH  22  24
ENDBRANCH   7  20
TORSDOF 6
ENDMDL
