MODEL 1
REMARK VINA RESULT:      -7.8      0.000      0.000
REMARK  Name = 
REMARK  4 active torsions:
REMARK  status: ('A' for Active; 'I' for Inactive)
REMARK    1  A    between atoms: C_1  and  C_2
REMARK    2  A    between atoms: C_2  and  C_4
REMARK    3  A    between atoms: C_9  and  C_10
REMARK    4  A    between atoms: C_18  and  C_19
REMARK                            x       y       z     vdW  Elec       q    Type
REMARK                         _______ _______ _______ _____ _____    ______ ____
ROOT
ATOM      1  C   UNL     1       3.273   3.746  19.640  0.00  0.00    +0.000 A 
ATOM      2  C   UNL     1       3.566   5.213  19.686  0.00  0.00    +0.000 A 
ATOM      3  N   UNL     1       4.153   5.923  18.775  0.00  0.00    +0.000 NA
ATOM      4  C   UNL     1       4.538   5.234  17.664  0.00  0.00    +0.000 A 
ATOM      5  C   UNL     1       5.229   5.642  16.552  0.00  0.00    +0.000 A 
ATOM      6  C   UNL     1       5.343   4.504  15.720  0.00  0.00    +0.000 A 
ATOM      7  N   UNL     1       4.736   3.446  16.281  0.00  0.00    +0.000 NA
ATOM      8  N   UNL     1       4.276   3.874  17.487  0.00  0.00    +0.000 N 
ATOM      9  C   UNL     1       3.631   3.124  18.490  0.00  0.00    +0.000 A 
ATOM     10  C   UNL     1       3.386   1.664  18.220  0.00  0.00    +0.000 C 
ENDROOT
BRANCH   6  11
ATOM     11  C   UNL     1       6.016   4.417  14.418  0.00  0.00    +0.000 A 
ATOM     12  C   UNL     1       7.180   5.162  14.161  0.00  0.00    +0.000 A 
ATOM     13  C   UNL     1       7.831   5.076  12.929  0.00  0.00    +0.000 A 
ATOM     14  C   UNL     1       7.324   4.247  11.932  0.00  0.00    +0.000 A 
ATOM     15  C   UNL     1       6.171   3.502  12.168  0.00  0.00    +0.000 A 
ATOM     16  C   UNL     1       5.523   3.582  13.404  0.00  0.00    +0.000 A 
ENDBRANCH   6  11
BRANCH   1  18
ATOM     17  C   UNL     1       1.126   3.027  20.873  0.00  0.00    +0.000 C 
ATOM     18  C   UNL     1       2.629   3.035  20.790  0.00  0.00    +0.000 C 
ATOM     19  O   UNL     1       3.294   2.477  21.659  0.00  0.00    +0.000 OA
ENDBRANCH   1  18
TORSDOF 2
ENDMDL
MODEL 2
REMARK VINA RESULT:      -7.8      0.053      1.107
REMARK  Name = 
REMARK  4 active torsions:
REMARK  status: ('A' for Active; 'I' for Inactive)
REMARK    1  A    between atoms: C_1  and  C_2
REMARK    2  A    between atoms: C_2  and  C_4
REMARK    3  A    between atoms: C_9  and  C_10
REMARK    4  A    between atoms: C_18  and  C_19
REMARK                            x       y       z     vdW  Elec       q    Type
REMARK                         _______ _______ _______ _____ _____    ______ ____
ROOT
ATOM      1  C   UNL     1       3.236   3.799  19.623  0.00  0.00    +0.000 A 
ATOM      2  C   UNL     1       3.530   5.265  19.666  0.00  0.00    +0.000 A 
ATOM      3  N   UNL     1       4.127   5.971  18.757  0.00  0.00    +0.000 NA
ATOM      4  C   UNL     1       4.520   5.276  17.652  0.00  0.00    +0.000 A 
ATOM      5  C   UNL     1       5.220   5.679  16.544  0.00  0.00    +0.000 A 
ATOM      6  C   UNL     1       5.340   4.537  15.718  0.00  0.00    +0.000 A 
ATOM      7  N   UNL     1       4.727   3.483  16.278  0.00  0.00    +0.000 NA
ATOM      8  N   UNL     1       4.257   3.917  17.478  0.00  0.00    +0.000 N 
ATOM      9  C   UNL     1       3.603   3.171  18.479  0.00  0.00    +0.000 A 
ATOM     10  C   UNL     1       3.358   1.711  18.213  0.00  0.00    +0.000 C 
ENDROOT
BRANCH   6  11
ATOM     11  C   UNL     1       6.024   4.444  14.422  0.00  0.00    +0.000 A 
ATOM     12  C   UNL     1       5.536   3.598  13.412  0.00  0.00    +0.000 A 
ATOM     13  C   UNL     1       6.175   3.513  12.174  0.00  0.00    +0.000 A 
ATOM     14  C   UNL     1       7.320   4.267  11.930  0.00  0.00    +0.000 A 
ATOM     15  C   UNL     1       7.820   5.109  12.920  0.00  0.00    +0.000 A 
ATOM     16  C   UNL     1       7.175   5.201  14.157  0.00  0.00    +0.000 A 
ENDBRANCH   6  11
BRANCH   1  18
ATOM     17  C   UNL     1       1.079   3.116  20.859  0.00  0.00    +0.000 C 
ATOM     18  C   UNL     1       2.581   3.094  20.771  0.00  0.00    +0.000 C 
ATOM     19  O   UNL     1       3.238   2.517  21.634  0.00  0.00    +0.000 OA
ENDBRANCH   1  18
TORSDOF 2
ENDMDL
MODEL 3
REMARK VINA RESULT:      -7.3      1.317      1.778
REMARK  Name = 
REMARK  4 active torsions:
REMARK  status: ('A' for Active; 'I' for Inactive)
REMARK    1  A    between atoms: C_1  and  C_2
REMARK    2  A    between atoms: C_2  and  C_4
REMARK    3  A    between atoms: C_9  and  C_10
REMARK    4  A    between atoms: C_18  and  C_19
REMARK                            x       y       z     vdW  Elec       q    Type
REMARK                         _______ _______ _______ _____ _____    ______ ____
ROOT
ATOM      1  C   UNL     1       3.173   4.161  19.502  0.00  0.00    +0.000 A 
ATOM      2  C   UNL     1       4.561   4.321  20.038  0.00  0.00    +0.000 A 
ATOM      3  N   UNL     1       5.657   4.431  19.355  0.00  0.00    +0.000 NA
ATOM      4  C   UNL     1       5.499   4.393  18.001  0.00  0.00    +0.000 A 
ATOM      5  C   UNL     1       6.426   4.416  16.992  0.00  0.00    +0.000 A 
ATOM      6  C   UNL     1       5.694   4.354  15.783  0.00  0.00    +0.000 A 
ATOM      7  N   UNL     1       4.375   4.313  16.032  0.00  0.00    +0.000 NA
ATOM      8  N   UNL     1       4.250   4.296  17.385  0.00  0.00    +0.000 N 
ATOM      9  C   UNL     1       3.072   4.182  18.151  0.00  0.00    +0.000 A 
ATOM     10  C   UNL     1       1.767   4.083  17.409  0.00  0.00    +0.000 C 
ENDROOT
BRANCH   6  11
ATOM     11  C   UNL     1       6.231   4.331  14.417  0.00  0.00    +0.000 A 
ATOM     12  C   UNL     1       5.658   3.505  13.434  0.00  0.00    +0.000 A 
ATOM     13  C   UNL     1       6.157   3.487  12.131  0.00  0.00    +0.000 A 
ATOM     14  C   UNL     1       7.243   4.289  11.791  0.00  0.00    +0.000 A 
ATOM     15  C   UNL     1       7.826   5.112  12.752  0.00  0.00    +0.000 A 
ATOM     16  C   UNL     1       7.321   5.137  14.055  0.00  0.00    +0.000 A 
ENDBRANCH   6  11
BRANCH   1  18
ATOM     17  C   UNL     1       1.670   2.612  20.911  0.00  0.00    +0.000 C 
ATOM     18  C   UNL     1       1.993   3.993  20.409  0.00  0.00    +0.000 C 
ATOM     19  O   UNL     1       1.289   4.945  20.737  0.00  0.00    +0.000 OA
ENDBRANCH   1  18
TORSDOF 2
ENDMDL
MODEL 4
REMARK VINA RESULT:      -7.3      1.347      1.430
REMARK  Name = 
REMARK  4 active torsions:
REMARK  status: ('A' for Active; 'I' for Inactive)
REMARK    1  A    between atoms: C_1  and  C_2
REMARK    2  A    between atoms: C_2  and  C_4
REMARK    3  A    between atoms: C_9  and  C_10
REMARK    4  A    between atoms: C_18  and  C_19
REMARK                            x       y       z     vdW  Elec       q    Type
REMARK                         _______ _______ _______ _____ _____    ______ ____
ROOT
ATOM      1  C   UNL     1       3.236   4.322  19.494  0.00  0.00    +0.000 A 
ATOM      2  C   UNL     1       4.635   4.458  20.008  0.00  0.00    +0.000 A 
ATOM      3  N   UNL     1       5.723   4.532  19.308  0.00  0.00    +0.000 NA
ATOM      4  C   UNL     1       5.546   4.477  17.957  0.00  0.00    +0.000 A 
ATOM      5  C   UNL     1       6.459   4.463  16.935  0.00  0.00    +0.000 A 
ATOM      6  C   UNL     1       5.709   4.398  15.738  0.00  0.00    +0.000 A 
ATOM      7  N   UNL     1       4.393   4.391  16.006  0.00  0.00    +0.000 NA
ATOM      8  N   UNL     1       4.287   4.399  17.361  0.00  0.00    +0.000 N 
ATOM      9  C   UNL     1       3.117   4.324  18.144  0.00  0.00    +0.000 A 
ATOM     10  C   UNL     1       1.800   4.243  17.422  0.00  0.00    +0.000 C 
ENDROOT
BRANCH   6  11
ATOM     11  C   UNL     1       6.226   4.341  14.365  0.00  0.00    +0.000 A 
ATOM     12  C   UNL     1       7.317   5.136  13.975  0.00  0.00    +0.000 A 
ATOM     13  C   UNL     1       7.820   5.078  12.675  0.00  0.00    +0.000 A 
ATOM     14  C   UNL     1       7.234   4.229  11.740  0.00  0.00    +0.000 A 
ATOM     15  C   UNL     1       6.150   3.435  12.107  0.00  0.00    +0.000 A 
ATOM     16  C   UNL     1       5.651   3.486  13.412  0.00  0.00    +0.000 A 
ENDBRANCH   6  11
BRANCH   1  18
ATOM     17  C   UNL     1       1.707   2.827  20.934  0.00  0.00    +0.000 C 
ATOM     18  C   UNL     1       2.066   4.196  20.419  0.00  0.00    +0.000 C 
ATOM     19  O   UNL     1       1.397   5.171  20.752  0.00  0.00    +0.000 OA
ENDBRANCH   1  18
TORSDOF 2
ENDMDL
MODEL 5
REMARK VINA RESULT:      -7.1      3.522      7.243
REMARK  Name = 
REMARK  4 active torsions:
REMARK  status: ('A' for Active; 'I' for Inactive)
REMARK    1  A    between atoms: C_1  and  C_2
REMARK    2  A    between atoms: C_2  and  C_4
REMARK    3  A    between atoms: C_9  and  C_10
REMARK    4  A    between atoms: C_18  and  C_19
REMARK                            x       y       z     vdW  Elec       q    Type
REMARK                         _______ _______ _______ _____ _____    ______ ____
ROOT
ATOM      1  C   UNL     1       5.533   4.752  17.183  0.00  0.00    +0.000 A 
ATOM      2  C   UNL     1       5.175   3.882  18.348  0.00  0.00    +0.000 A 
ATOM      3  N   UNL     1       4.314   4.140  19.283  0.00  0.00    +0.000 NA
ATOM      4  C   UNL     1       3.681   5.343  19.169  0.00  0.00    +0.000 A 
ATOM      5  C   UNL     1       2.777   5.959  19.994  0.00  0.00    +0.000 A 
ATOM      6  C   UNL     1       2.456   7.191  19.376  0.00  0.00    +0.000 A 
ATOM      7  N   UNL     1       3.117   7.322  18.215  0.00  0.00    +0.000 NA
ATOM      8  N   UNL     1       3.897   6.215  18.101  0.00  0.00    +0.000 N 
ATOM      9  C   UNL     1       4.835   5.910  17.094  0.00  0.00    +0.000 A 
ATOM     10  C   UNL     1       5.007   6.904  15.978  0.00  0.00    +0.000 C 
ENDROOT
BRANCH   6  11
ATOM     11  C   UNL     1       1.544   8.226  19.877  0.00  0.00    +0.000 A 
ATOM     12  C   UNL     1       1.184   9.318  19.068  0.00  0.00    +0.000 A 
ATOM     13  C   UNL     1       0.309  10.300  19.533  0.00  0.00    +0.000 A 
ATOM     14  C   UNL     1      -0.215  10.210  20.820  0.00  0.00    +0.000 A 
ATOM     15  C   UNL     1       0.131   9.137  21.637  0.00  0.00    +0.000 A 
ATOM     16  C   UNL     1       1.002   8.149  21.168  0.00  0.00    +0.000 A 
ENDBRANCH   6  11
BRANCH   1  18
ATOM     17  C   UNL     1       6.151   3.789  14.873  0.00  0.00    +0.000 C 
ATOM     18  C   UNL     1       6.588   4.352  16.199  0.00  0.00    +0.000 C 
ATOM     19  O   UNL     1       7.785   4.463  16.453  0.00  0.00    +0.000 OA
ENDBRANCH   1  18
TORSDOF 2
ENDMDL
MODEL 6
REMARK VINA RESULT:      -7.1      3.539      7.250
REMARK  Name = 
REMARK  4 active torsions:
REMARK  status: ('A' for Active; 'I' for Inactive)
REMARK    1  A    between atoms: C_1  and  C_2
REMARK    2  A    between atoms: C_2  and  C_4
REMARK    3  A    between atoms: C_9  and  C_10
REMARK    4  A    between atoms: C_18  and  C_19
REMARK                            x       y       z     vdW  Elec       q    Type
REMARK                         _______ _______ _______ _____ _____    ______ ____
ROOT
ATOM      1  C   UNL     1       5.527   4.754  17.248  0.00  0.00    +0.000 A 
ATOM      2  C   UNL     1       5.153   3.895  18.416  0.00  0.00    +0.000 A 
ATOM      3  N   UNL     1       4.283   4.162  19.338  0.00  0.00    +0.000 NA
ATOM      4  C   UNL     1       3.655   5.366  19.208  0.00  0.00    +0.000 A 
ATOM      5  C   UNL     1       2.743   5.991  20.018  0.00  0.00    +0.000 A 
ATOM      6  C   UNL     1       2.433   7.219  19.388  0.00  0.00    +0.000 A 
ATOM      7  N   UNL     1       3.107   7.339  18.233  0.00  0.00    +0.000 NA
ATOM      8  N   UNL     1       3.885   6.229  18.136  0.00  0.00    +0.000 N 
ATOM      9  C   UNL     1       4.833   5.913  17.142  0.00  0.00    +0.000 A 
ATOM     10  C   UNL     1       5.021   6.898  16.020  0.00  0.00    +0.000 C 
ENDROOT
BRANCH   6  11
ATOM     11  C   UNL     1       1.518   8.261  19.870  0.00  0.00    +0.000 A 
ATOM     12  C   UNL     1       1.048   8.247  21.194  0.00  0.00    +0.000 A 
ATOM     13  C   UNL     1       0.187   9.242  21.661  0.00  0.00    +0.000 A 
ATOM     14  C   UNL     1      -0.224  10.262  20.808  0.00  0.00    +0.000 A 
ATOM     15  C   UNL     1       0.230  10.291  19.492  0.00  0.00    +0.000 A 
ATOM     16  C   UNL     1       1.098   9.300  19.025  0.00  0.00    +0.000 A 
ENDBRANCH   6  11
BRANCH   1  18
ATOM     17  C   UNL     1       6.167   3.778  14.950  0.00  0.00    +0.000 C 
ATOM     18  C   UNL     1       6.591   4.343  16.278  0.00  0.00    +0.000 C 
ATOM     19  O   UNL     1       7.786   4.447  16.548  0.00  0.00    +0.000 OA
ENDBRANCH   1  18
TORSDOF 2
ENDMDL
MODEL 7
REMARK VINA RESULT:      -7.0      4.198      7.834
REMARK  Name = 
REMARK  4 active torsions:
REMARK  status: ('A' for Active; 'I' for Inactive)
REMARK    1  A    between atoms: C_1  and  C_2
REMARK    2  A    between atoms: C_2  and  C_4
REMARK    3  A    between atoms: C_9  and  C_10
REMARK    4  A    between atoms: C_18  and  C_19
REMARK                            x       y       z     vdW  Elec       q    Type
REMARK                         _______ _______ _______ _____ _____    ______ ____
ROOT
ATOM      1  C   UNL     1       3.198   4.370  18.926  0.00  0.00    +0.000 A 
ATOM      2  C   UNL     1       3.570   5.361  17.867  0.00  0.00    +0.000 A 
ATOM      3  N   UNL     1       3.283   6.624  17.841  0.00  0.00    +0.000 NA
ATOM      4  C   UNL     1       2.560   7.075  18.906  0.00  0.00    +0.000 A 
ATOM      5  C   UNL     1       2.036   8.313  19.171  0.00  0.00    +0.000 A 
ATOM      6  C   UNL     1       1.383   8.204  20.421  0.00  0.00    +0.000 A 
ATOM      7  N   UNL     1       1.513   6.962  20.914  0.00  0.00    +0.000 NA
ATOM      8  N   UNL     1       2.197   6.256  19.976  0.00  0.00    +0.000 N 
ATOM      9  C   UNL     1       2.525   4.886  19.984  0.00  0.00    +0.000 A 
ATOM     10  C   UNL     1       2.097   4.073  21.176  0.00  0.00    +0.000 C 
ENDROOT
BRANCH   6  11
ATOM     11  C   UNL     1       0.647   9.254  21.136  0.00  0.00    +0.000 A 
ATOM     12  C   UNL     1       0.097   9.008  22.406  0.00  0.00    +0.000 A 
ATOM     13  C   UNL     1      -0.594  10.006  23.095  0.00  0.00    +0.000 A 
ATOM     14  C   UNL     1      -0.754  11.264  22.521  0.00  0.00    +0.000 A 
ATOM     15  C   UNL     1      -0.218  11.525  21.262  0.00  0.00    +0.000 A 
ATOM     16  C   UNL     1       0.481  10.529  20.575  0.00  0.00    +0.000 A 
ENDBRANCH   6  11
BRANCH   1  18
ATOM     17  C   UNL     1       2.718   2.053  17.903  0.00  0.00    +0.000 C 
ATOM     18  C   UNL     1       3.553   2.921  18.807  0.00  0.00    +0.000 C 
ATOM     19  O   UNL     1       4.490   2.431  19.433  0.00  0.00    +0.000 OA
ENDBRANCH   1  18
TORSDOF 2
ENDMDL
MODEL 8
REMARK VINA RESULT:      -6.9      3.934      6.995
REMARK  Name = 
REMARK  4 active torsions:
REMARK  status: ('A' for Active; 'I' for Inactive)
REMARK    1  A    between atoms: C_1  and  C_2
REMARK    2  A    between atoms: C_2  and  C_4
REMARK    3  A    between atoms: C_9  and  C_10
REMARK    4  A    between atoms: C_18  and  C_19
REMARK                            x       y       z     vdW  Elec       q    Type
REMARK                         _______ _______ _______ _____ _____    ______ ____
ROOT
ATOM      1  C   UNL     1       3.802   4.124  19.003  0.00  0.00    +0.000 A 
ATOM      2  C   UNL     1       4.355   4.835  17.807  0.00  0.00    +0.000 A 
ATOM      3  N   UNL     1       4.100   6.049  17.431  0.00  0.00    +0.000 NA
ATOM      4  C   UNL     1       3.229   6.730  18.229  0.00  0.00    +0.000 A 
ATOM      5  C   UNL     1       2.694   7.986  18.102  0.00  0.00    +0.000 A 
ATOM      6  C   UNL     1       1.853   8.171  19.224  0.00  0.00    +0.000 A 
ATOM      7  N   UNL     1       1.880   7.088  20.017  0.00  0.00    +0.000 NA
ATOM      8  N   UNL     1       2.688   6.188  19.396  0.00  0.00    +0.000 N 
ATOM      9  C   UNL     1       2.984   4.867  19.786  0.00  0.00    +0.000 A 
ATOM     10  C   UNL     1       2.359   4.360  21.058  0.00  0.00    +0.000 C 
ENDROOT
BRANCH   6  11
ATOM     11  C   UNL     1       1.035   9.348  19.539  0.00  0.00    +0.000 A 
ATOM     12  C   UNL     1       0.421  10.091  18.516  0.00  0.00    +0.000 A 
ATOM     13  C   UNL     1      -0.367  11.205  18.810  0.00  0.00    +0.000 A 
ATOM     14  C   UNL     1      -0.546  11.600  20.133  0.00  0.00    +0.000 A 
ATOM     15  C   UNL     1       0.057  10.878  21.160  0.00  0.00    +0.000 A 
ATOM     16  C   UNL     1       0.839   9.757  20.867  0.00  0.00    +0.000 A 
ENDBRANCH   6  11
BRANCH   1  18
ATOM     17  C   UNL     1       3.414   1.618  18.538  0.00  0.00    +0.000 C 
ATOM     18  C   UNL     1       4.143   2.695  19.295  0.00  0.00    +0.000 C 
ATOM     19  O   UNL     1       4.984   2.391  20.138  0.00  0.00    +0.000 OA
ENDBRANCH   1  18
TORSDOF 2
ENDMDL
MODEL 9
REMARK VINA RESULT:      -6.9      3.984      7.010
REMARK  Name = 
REMARK  4 active torsions:
REMARK  status: ('A' for Active; 'I' for Inactive)
REMARK    1  A    between atoms: C_1  and  C_2
REMARK    2  A    between atoms: C_2  and  C_4
REMARK    3  A    between atoms: C_9  and  C_10
REMARK    4  A    between atoms: C_18  and  C_19
REMARK                            x       y       z     vdW  Elec       q    Type
REMARK                         _______ _______ _______ _____ _____    ______ ____
ROOT
ATOM      1  C   UNL     1       3.769   4.195  18.963  0.00  0.00    +0.000 A 
ATOM      2  C   UNL     1       4.305   4.908  17.761  0.00  0.00    +0.000 A 
ATOM      3  N   UNL     1       4.044   6.122  17.390  0.00  0.00    +0.000 NA
ATOM      4  C   UNL     1       3.183   6.802  18.201  0.00  0.00    +0.000 A 
ATOM      5  C   UNL     1       2.646   8.057  18.082  0.00  0.00    +0.000 A 
ATOM      6  C   UNL     1       1.819   8.240  19.215  0.00  0.00    +0.000 A 
ATOM      7  N   UNL     1       1.858   7.156  20.007  0.00  0.00    +0.000 NA
ATOM      8  N   UNL     1       2.658   6.258  19.374  0.00  0.00    +0.000 N 
ATOM      9  C   UNL     1       2.960   4.937  19.759  0.00  0.00    +0.000 A 
ATOM     10  C   UNL     1       2.354   4.427  21.038  0.00  0.00    +0.000 C 
ENDROOT
BRANCH   6  11
ATOM     11  C   UNL     1       1.005   9.416  19.543  0.00  0.00    +0.000 A 
ATOM     12  C   UNL     1       0.814   9.808  20.879  0.00  0.00    +0.000 A 
ATOM     13  C   UNL     1       0.050  10.932  21.197  0.00  0.00    +0.000 A 
ATOM     14  C   UNL     1      -0.543  11.679  20.181  0.00  0.00    +0.000 A 
ATOM     15  C   UNL     1      -0.367  11.304  18.852  0.00  0.00    +0.000 A 
ATOM     16  C   UNL     1       0.405  10.184  18.533  0.00  0.00    +0.000 A 
ENDBRANCH   6  11
BRANCH   1  18
ATOM     17  C   UNL     1       3.344   1.689  18.536  0.00  0.00    +0.000 C 
ATOM     18  C   UNL     1       4.115   2.767  19.250  0.00  0.00    +0.000 C 
ATOM     19  O   UNL     1       4.994   2.462  20.053  0.00  0.00    +0.000 OA
ENDBRANCH   1  18
TORSDOF 2
ENDMDL
