MODEL 1
REMARK VINA RESULT:      -6.7      0.000      0.000
REMARK  Name = 
REMARK  8 active torsions:
REMARK  status: ('A' for Active; 'I' for Inactive)
REMARK    1  A    between atoms: C_1  and  C_2
REMARK    2  A    between atoms: C_2  and  N_3
REMARK    3  A    between atoms: N_3  and  C_4
REMARK    4  A    between atoms: N_3  and  C_6
REMARK    5  A    between atoms: C_4  and  C_5
REMARK    6  A    between atoms: C_6  and  C_7
REMARK    7  A    between atoms: C_7  and  N_8
REMARK    8  A    between atoms: C_18  and  C_19
REMARK                            x       y       z     vdW  Elec       q    Type
REMARK                         _______ _______ _______ _____ _____    ______ ____
ROOT
ATOM      1  N   UNL     1       4.723   4.731  18.490  0.00  0.00    +0.000 N 
ATOM      2  C   UNL     1       3.862   5.834  18.624  0.00  0.00    +0.000 A 
ATOM      3  C   UNL     1       2.965   6.208  19.641  0.00  0.00    +0.000 A 
ATOM      4  C   UNL     1       2.210   7.374  19.460  0.00  0.00    +0.000 A 
ATOM      5  C   UNL     1       2.345   8.151  18.312  0.00  0.00    +0.000 A 
ATOM      6 CL   UNL     1       1.386   9.570  18.122  0.00  0.00    +0.000 Cl
ATOM      7  C   UNL     1       3.235   7.795  17.304  0.00  0.00    +0.000 A 
ATOM      8  C   UNL     1       4.001   6.627  17.464  0.00  0.00    +0.000 A 
ATOM      9  C   UNL     1       4.948   5.970  16.672  0.00  0.00    +0.000 A 
ATOM     10  N   UNL     1       5.472   6.245  15.450  0.00  0.00    +0.000 NA
ATOM     11  C   UNL     1       6.312   5.264  15.159  0.00  0.00    +0.000 A 
ATOM     12  C   UNL     1       7.095   5.194  13.897  0.00  0.00    +0.000 C 
ATOM     13  S   UNL     1       6.456   4.001  16.366  0.00  0.00    +0.000 S 
ATOM     14  C   UNL     1       5.353   4.848  17.291  0.00  0.00    +0.000 A 
ENDROOT
BRANCH   1  15
ATOM     15  C   UNL     1       4.831   3.611  19.422  0.00  0.00    +0.000 C 
BRANCH  15  16
ATOM     16  C   UNL     1       4.061   2.356  18.964  0.00  0.00    +0.000 C 
BRANCH  16  17
ATOM     17  N   UNL     1       2.760   2.110  19.641  0.00  0.00    +0.000 NA
BRANCH  17  19
ATOM     18  C   UNL     1       1.436   3.110  21.568  0.00  0.00    +0.000 C 
ATOM     19  C   UNL     1       2.793   2.712  20.991  0.00  0.00    +0.000 C 
ENDBRANCH  17  19
BRANCH  17  20
ATOM     20  C   UNL     1       1.582   2.499  18.852  0.00  0.00    +0.000 C 
ATOM     21  C   UNL     1       1.861   3.168  17.509  0.00  0.00    +0.000 C 
ENDBRANCH  17  20
ENDBRANCH  16  17
ENDBRANCH  15  16
ENDBRANCH   1  15
TORSDOF 5
ENDMDL
MODEL 2
REMARK VINA RESULT:      -6.6      2.022      4.834
REMARK  Name = 
REMARK  8 active torsions:
REMARK  status: ('A' for Active; 'I' for Inactive)
REMARK    1  A    between atoms: C_1  and  C_2
REMARK    2  A    between atoms: C_2  and  N_3
REMARK    3  A    between atoms: N_3  and  C_4
REMARK    4  A    between atoms: N_3  and  C_6
REMARK    5  A    between atoms: C_4  and  C_5
REMARK    6  A    between atoms: C_6  and  C_7
REMARK    7  A    between atoms: C_7  and  N_8
REMARK    8  A    between atoms: C_18  and  C_19
REMARK                            x       y       z     vdW  Elec       q    Type
REMARK                         _______ _______ _______ _____ _____    ______ ____
ROOT
ATOM      1  N   UNL     1       3.430   6.424  17.976  0.00  0.00    +0.000 N 
ATOM      2  C   UNL     1       2.687   7.555  18.354  0.00  0.00    +0.000 A 
ATOM      3  C   UNL     1       2.556   8.830  17.774  0.00  0.00    +0.000 A 
ATOM      4  C   UNL     1       1.746   9.771  18.425  0.00  0.00    +0.000 A 
ATOM      5  C   UNL     1       1.079   9.456  19.606  0.00  0.00    +0.000 A 
ATOM      6 CL   UNL     1       0.105  10.647  20.381  0.00  0.00    +0.000 Cl
ATOM      7  C   UNL     1       1.195   8.196  20.182  0.00  0.00    +0.000 A 
ATOM      8  C   UNL     1       2.006   7.237  19.549  0.00  0.00    +0.000 A 
ATOM      9  C   UNL     1       2.363   5.919  19.845  0.00  0.00    +0.000 A 
ATOM     10  N   UNL     1       2.037   5.087  20.867  0.00  0.00    +0.000 NA
ATOM     11  C   UNL     1       2.689   3.952  20.666  0.00  0.00    +0.000 A 
ATOM     12  C   UNL     1       2.598   2.775  21.572  0.00  0.00    +0.000 C 
ATOM     13  S   UNL     1       3.706   3.900  19.240  0.00  0.00    +0.000 S 
ATOM     14  C   UNL     1       3.213   5.461  18.910  0.00  0.00    +0.000 A 
ENDROOT
BRANCH   1  15
ATOM     15  C   UNL     1       4.353   6.344  16.845  0.00  0.00    +0.000 C 
BRANCH  15  16
ATOM     16  C   UNL     1       5.838   6.373  17.262  0.00  0.00    +0.000 C 
BRANCH  16  17
ATOM     17  N   UNL     1       6.675   5.252  16.759  0.00  0.00    +0.000 NA
BRANCH  17  19
ATOM     18  C   UNL     1       7.733   5.733  19.021  0.00  0.00    +0.000 C 
ATOM     19  C   UNL     1       7.549   4.769  17.849  0.00  0.00    +0.000 C 
ENDBRANCH  17  19
BRANCH  17  20
ATOM     20  C   UNL     1       5.919   4.182  16.092  0.00  0.00    +0.000 C 
ATOM     21  C   UNL     1       6.212   3.972  14.610  0.00  0.00    +0.000 C 
ENDBRANCH  17  20
ENDBRANCH  16  17
ENDBRANCH  15  16
ENDBRANCH   1  15
TORSDOF 5
ENDMDL
MODEL 3
REMARK VINA RESULT:      -6.5      2.918      5.629
REMARK  Name = 
REMARK  8 active torsions:
REMARK  status: ('A' for Active; 'I' for Inactive)
REMARK    1  A    between atoms: C_1  and  C_2
REMARK    2  A    between atoms: C_2  and  N_3
REMARK    3  A    between atoms: N_3  and  C_4
REMARK    4  A    between atoms: N_3  and  C_6
REMARK    5  A    between atoms: C_4  and  C_5
REMARK    6  A    between atoms: C_6  and  C_7
REMARK    7  A    between atoms: C_7  and  N_8
REMARK    8  A    between atoms: C_18  and  C_19
REMARK                            x       y       z     vdW  Elec       q    Type
REMARK                         _______ _______ _______ _____ _____    ______ ____
ROOT
ATOM      1  N   UNL     1       3.761   6.539  17.835  0.00  0.00    +0.000 N 
ATOM      2  C   UNL     1       3.576   5.430  18.679  0.00  0.00    +0.000 A 
ATOM      3  C   UNL     1       4.132   4.138  18.669  0.00  0.00    +0.000 A 
ATOM      4  C   UNL     1       3.710   3.231  19.650  0.00  0.00    +0.000 A 
ATOM      5  C   UNL     1       2.774   3.593  20.615  0.00  0.00    +0.000 A 
ATOM      6 CL   UNL     1       2.270   2.442  21.794  0.00  0.00    +0.000 Cl
ATOM      7  C   UNL     1       2.224   4.871  20.638  0.00  0.00    +0.000 A 
ATOM      8  C   UNL     1       2.631   5.797  19.662  0.00  0.00    +0.000 A 
ATOM      9  C   UNL     1       2.283   7.120  19.373  0.00  0.00    +0.000 A 
ATOM     10  N   UNL     1       1.418   7.990  19.956  0.00  0.00    +0.000 NA
ATOM     11  C   UNL     1       1.460   9.109  19.249  0.00  0.00    +0.000 A 
ATOM     12  C   UNL     1       0.651  10.316  19.564  0.00  0.00    +0.000 C 
ATOM     13  S   UNL     1       2.543   9.100  17.870  0.00  0.00    +0.000 S 
ATOM     14  C   UNL     1       2.954   7.535  18.285  0.00  0.00    +0.000 A 
ENDROOT
BRANCH   1  15
ATOM     15  C   UNL     1       4.588   6.568  16.629  0.00  0.00    +0.000 C 
BRANCH  15  16
ATOM     16  C   UNL     1       6.070   6.891  16.912  0.00  0.00    +0.000 C 
BRANCH  16  17
ATOM     17  N   UNL     1       7.054   5.882  16.438  0.00  0.00    +0.000 NA
BRANCH  17  19
ATOM     18  C   UNL     1       7.603   5.713  18.916  0.00  0.00    +0.000 C 
ATOM     19  C   UNL     1       7.440   5.011  17.569  0.00  0.00    +0.000 C 
ENDBRANCH  17  19
BRANCH  17  20
ATOM     20  C   UNL     1       6.635   5.141  15.240  0.00  0.00    +0.000 C 
ATOM     21  C   UNL     1       6.135   3.718  15.469  0.00  0.00    +0.000 C 
ENDBRANCH  17  20
ENDBRANCH  16  17
ENDBRANCH  15  16
ENDBRANCH   1  15
TORSDOF 5
ENDMDL
MODEL 4
REMARK VINA RESULT:      -6.4      2.941      5.784
REMARK  Name = 
REMARK  8 active torsions:
REMARK  status: ('A' for Active; 'I' for Inactive)
REMARK    1  A    between atoms: C_1  and  C_2
REMARK    2  A    between atoms: C_2  and  N_3
REMARK    3  A    between atoms: N_3  and  C_4
REMARK    4  A    between atoms: N_3  and  C_6
REMARK    5  A    between atoms: C_4  and  C_5
REMARK    6  A    between atoms: C_6  and  C_7
REMARK    7  A    between atoms: C_7  and  N_8
REMARK    8  A    between atoms: C_18  and  C_19
REMARK                            x       y       z     vdW  Elec       q    Type
REMARK                         _______ _______ _______ _____ _____    ______ ____
ROOT
ATOM      1  N   UNL     1       3.622   6.365  17.893  0.00  0.00    +0.000 N 
ATOM      2  C   UNL     1       3.394   5.288  18.767  0.00  0.00    +0.000 A 
ATOM      3  C   UNL     1       3.876   3.966  18.775  0.00  0.00    +0.000 A 
ATOM      4  C   UNL     1       3.426   3.106  19.786  0.00  0.00    +0.000 A 
ATOM      5  C   UNL     1       2.535   3.543  20.763  0.00  0.00    +0.000 A 
ATOM      6 CL   UNL     1       1.995   2.448  21.979  0.00  0.00    +0.000 Cl
ATOM      7  C   UNL     1       2.060   4.850  20.768  0.00  0.00    +0.000 A 
ATOM      8  C   UNL     1       2.495   5.730  19.761  0.00  0.00    +0.000 A 
ATOM      9  C   UNL     1       2.217   7.064  19.450  0.00  0.00    +0.000 A 
ATOM     10  N   UNL     1       1.417   7.995  20.031  0.00  0.00    +0.000 NA
ATOM     11  C   UNL     1       1.505   9.094  19.297  0.00  0.00    +0.000 A 
ATOM     12  C   UNL     1       0.773  10.352  19.603  0.00  0.00    +0.000 C 
ATOM     13  S   UNL     1       2.553   8.992  17.896  0.00  0.00    +0.000 S 
ATOM     14  C   UNL     1       2.884   7.416  18.338  0.00  0.00    +0.000 A 
ENDROOT
BRANCH   1  15
ATOM     15  C   UNL     1       4.421   6.321  16.669  0.00  0.00    +0.000 C 
BRANCH  15  16
ATOM     16  C   UNL     1       5.941   6.294  16.931  0.00  0.00    +0.000 C 
BRANCH  16  17
ATOM     17  N   UNL     1       6.597   4.966  16.810  0.00  0.00    +0.000 NA
BRANCH  17  19
ATOM     18  C   UNL     1       6.110   4.044  14.490  0.00  0.00    +0.000 C 
ATOM     19  C   UNL     1       7.071   4.782  15.421  0.00  0.00    +0.000 C 
ENDBRANCH  17  19
BRANCH  17  20
ATOM     20  C   UNL     1       7.629   4.704  17.823  0.00  0.00    +0.000 C 
ATOM     21  C   UNL     1       7.697   5.689  18.986  0.00  0.00    +0.000 C 
ENDBRANCH  17  20
ENDBRANCH  16  17
ENDBRANCH  15  16
ENDBRANCH   1  15
TORSDOF 5
ENDMDL
MODEL 5
REMARK VINA RESULT:      -6.4      2.153      5.244
REMARK  Name = 
REMARK  8 active torsions:
REMARK  status: ('A' for Active; 'I' for Inactive)
REMARK    1  A    between atoms: C_1  and  C_2
REMARK    2  A    between atoms: C_2  and  N_3
REMARK    3  A    between atoms: N_3  and  C_4
REMARK    4  A    between atoms: N_3  and  C_6
REMARK    5  A    between atoms: C_4  and  C_5
REMARK    6  A    between atoms: C_6  and  C_7
REMARK    7  A    between atoms: C_7  and  N_8
REMARK    8  A    between atoms: C_18  and  C_19
REMARK                            x       y       z     vdW  Elec       q    Type
REMARK                         _______ _______ _______ _____ _____    ______ ____
ROOT
ATOM      1  N   UNL     1       3.244   6.312  18.088  0.00  0.00    +0.000 N 
ATOM      2  C   UNL     1       2.556   7.482  18.456  0.00  0.00    +0.000 A 
ATOM      3  C   UNL     1       2.464   8.748  17.851  0.00  0.00    +0.000 A 
ATOM      4  C   UNL     1       1.709   9.735  18.497  0.00  0.00    +0.000 A 
ATOM      5  C   UNL     1       1.056   9.475  19.700  0.00  0.00    +0.000 A 
ATOM      6 CL   UNL     1       0.150  10.722  20.469  0.00  0.00    +0.000 Cl
ATOM      7  C   UNL     1       1.134   8.224  20.302  0.00  0.00    +0.000 A 
ATOM      8  C   UNL     1       1.890   7.219  19.673  0.00  0.00    +0.000 A 
ATOM      9  C   UNL     1       2.200   5.893  19.992  0.00  0.00    +0.000 A 
ATOM     10  N   UNL     1       1.864   5.098  21.040  0.00  0.00    +0.000 NA
ATOM     11  C   UNL     1       2.464   3.933  20.851  0.00  0.00    +0.000 A 
ATOM     12  C   UNL     1       2.346   2.782  21.785  0.00  0.00    +0.000 C 
ATOM     13  S   UNL     1       3.445   3.808  19.404  0.00  0.00    +0.000 S 
ATOM     14  C   UNL     1       3.009   5.380  19.049  0.00  0.00    +0.000 A 
ENDROOT
BRANCH   1  15
ATOM     15  C   UNL     1       4.136   6.170  16.939  0.00  0.00    +0.000 C 
BRANCH  15  16
ATOM     16  C   UNL     1       5.525   6.804  17.160  0.00  0.00    +0.000 C 
BRANCH  16  17
ATOM     17  N   UNL     1       6.469   6.021  17.999  0.00  0.00    +0.000 NA
BRANCH  17  19
ATOM     18  C   UNL     1       7.172   4.578  16.027  0.00  0.00    +0.000 C 
ATOM     19  C   UNL     1       6.601   4.658  17.442  0.00  0.00    +0.000 C 
ENDBRANCH  17  19
BRANCH  17  20
ATOM     20  C   UNL     1       7.759   6.685  18.242  0.00  0.00    +0.000 C 
ATOM     21  C   UNL     1       7.873   8.130  17.766  0.00  0.00    +0.000 C 
ENDBRANCH  17  20
ENDBRANCH  16  17
ENDBRANCH  15  16
ENDBRANCH   1  15
TORSDOF 5
ENDMDL
MODEL 6
REMARK VINA RESULT:      -6.4      1.976      5.211
REMARK  Name = 
REMARK  8 active torsions:
REMARK  status: ('A' for Active; 'I' for Inactive)
REMARK    1  A    between atoms: C_1  and  C_2
REMARK    2  A    between atoms: C_2  and  N_3
REMARK    3  A    between atoms: N_3  and  C_4
REMARK    4  A    between atoms: N_3  and  C_6
REMARK    5  A    between atoms: C_4  and  C_5
REMARK    6  A    between atoms: C_6  and  C_7
REMARK    7  A    between atoms: C_7  and  N_8
REMARK    8  A    between atoms: C_18  and  C_19
REMARK                            x       y       z     vdW  Elec       q    Type
REMARK                         _______ _______ _______ _____ _____    ______ ____
ROOT
ATOM      1  N   UNL     1       3.279   5.455  18.046  0.00  0.00    +0.000 N 
ATOM      2  C   UNL     1       2.780   6.743  18.305  0.00  0.00    +0.000 A 
ATOM      3  C   UNL     1       2.882   7.951  17.592  0.00  0.00    +0.000 A 
ATOM      4  C   UNL     1       2.290   9.095  18.144  0.00  0.00    +0.000 A 
ATOM      5  C   UNL     1       1.610   9.043  19.358  0.00  0.00    +0.000 A 
ATOM      6 CL   UNL     1       0.909  10.476  20.009  0.00  0.00    +0.000 Cl
ATOM      7  C   UNL     1       1.496   7.851  20.067  0.00  0.00    +0.000 A 
ATOM      8  C   UNL     1       2.086   6.691  19.533  0.00  0.00    +0.000 A 
ATOM      9  C   UNL     1       2.189   5.367  19.968  0.00  0.00    +0.000 A 
ATOM     10  N   UNL     1       1.738   4.726  21.077  0.00  0.00    +0.000 NA
ATOM     11  C   UNL     1       2.151   3.471  20.994  0.00  0.00    +0.000 A 
ATOM     12  C   UNL     1       1.861   2.436  22.022  0.00  0.00    +0.000 C 
ATOM     13  S   UNL     1       3.097   3.072  19.573  0.00  0.00    +0.000 S 
ATOM     14  C   UNL     1       2.906   4.656  19.080  0.00  0.00    +0.000 A 
ENDROOT
BRANCH   1  15
ATOM     15  C   UNL     1       4.135   5.078  16.922  0.00  0.00    +0.000 C 
BRANCH  15  16
ATOM     16  C   UNL     1       5.573   5.624  17.037  0.00  0.00    +0.000 C 
BRANCH  16  17
ATOM     17  N   UNL     1       6.661   4.639  16.806  0.00  0.00    +0.000 NA
BRANCH  17  19
ATOM     18  C   UNL     1       6.353   4.039  14.354  0.00  0.00    +0.000 C 
ATOM     19  C   UNL     1       7.159   4.779  15.421  0.00  0.00    +0.000 C 
ENDBRANCH  17  19
BRANCH  17  20
ATOM     20  C   UNL     1       7.726   4.662  17.820  0.00  0.00    +0.000 C 
ATOM     21  C   UNL     1       7.756   5.880  18.738  0.00  0.00    +0.000 C 
ENDBRANCH  17  20
ENDBRANCH  16  17
ENDBRANCH  15  16
ENDBRANCH   1  15
TORSDOF 5
ENDMDL
MODEL 7
REMARK VINA RESULT:      -6.4      0.342      1.496
REMARK  Name = 
REMARK  8 active torsions:
REMARK  status: ('A' for Active; 'I' for Inactive)
REMARK    1  A    between atoms: C_1  and  C_2
REMARK    2  A    between atoms: C_2  and  N_3
REMARK    3  A    between atoms: N_3  and  C_4
REMARK    4  A    between atoms: N_3  and  C_6
REMARK    5  A    between atoms: C_4  and  C_5
REMARK    6  A    between atoms: C_6  and  C_7
REMARK    7  A    between atoms: C_7  and  N_8
REMARK    8  A    between atoms: C_18  and  C_19
REMARK                            x       y       z     vdW  Elec       q    Type
REMARK                         _______ _______ _______ _____ _____    ______ ____
ROOT
ATOM      1  N   UNL     1       4.910   4.811  18.415  0.00  0.00    +0.000 N 
ATOM      2  C   UNL     1       4.014   5.889  18.528  0.00  0.00    +0.000 A 
ATOM      3  C   UNL     1       3.147   6.285  19.562  0.00  0.00    +0.000 A 
ATOM      4  C   UNL     1       2.341   7.412  19.352  0.00  0.00    +0.000 A 
ATOM      5  C   UNL     1       2.399   8.129  18.159  0.00  0.00    +0.000 A 
ATOM      6 CL   UNL     1       1.379   9.500  17.935  0.00  0.00    +0.000 Cl
ATOM      7  C   UNL     1       3.259   7.750  17.134  0.00  0.00    +0.000 A 
ATOM      8  C   UNL     1       4.075   6.620  17.322  0.00  0.00    +0.000 A 
ATOM      9  C   UNL     1       5.012   5.955  16.526  0.00  0.00    +0.000 A 
ATOM     10  N   UNL     1       5.473   6.181  15.269  0.00  0.00    +0.000 NA
ATOM     11  C   UNL     1       6.337   5.215  14.994  0.00  0.00    +0.000 A 
ATOM     12  C   UNL     1       7.069   5.104  13.704  0.00  0.00    +0.000 C 
ATOM     13  S   UNL     1       6.580   4.027  16.260  0.00  0.00    +0.000 S 
ATOM     14  C   UNL     1       5.485   4.884  17.186  0.00  0.00    +0.000 A 
ENDROOT
BRANCH   1  15
ATOM     15  C   UNL     1       5.100   3.748  19.401  0.00  0.00    +0.000 C 
BRANCH  15  16
ATOM     16  C   UNL     1       4.101   2.583  19.246  0.00  0.00    +0.000 C 
BRANCH  16  17
ATOM     17  N   UNL     1       2.719   2.847  19.724  0.00  0.00    +0.000 NA
BRANCH  17  19
ATOM     18  C   UNL     1       1.351   3.669  17.743  0.00  0.00    +0.000 C 
ATOM     19  C   UNL     1       1.760   2.509  18.650  0.00  0.00    +0.000 C 
ENDBRANCH  17  19
BRANCH  17  20
ATOM     20  C   UNL     1       2.395   2.229  21.018  0.00  0.00    +0.000 C 
ATOM     21  C   UNL     1       1.222   2.837  21.781  0.00  0.00    +0.000 C 
ENDBRANCH  17  20
ENDBRANCH  16  17
ENDBRANCH  15  16
ENDBRANCH   1  15
TORSDOF 5
ENDMDL
MODEL 8
REMARK VINA RESULT:      -6.1      3.319      5.957
REMARK  Name = 
REMARK  8 active torsions:
REMARK  status: ('A' for Active; 'I' for Inactive)
REMARK    1  A    between atoms: C_1  and  C_2
REMARK    2  A    between atoms: C_2  and  N_3
REMARK    3  A    between atoms: N_3  and  C_4
REMARK    4  A    between atoms: N_3  and  C_6
REMARK    5  A    between atoms: C_4  and  C_5
REMARK    6  A    between atoms: C_6  and  C_7
REMARK    7  A    between atoms: C_7  and  N_8
REMARK    8  A    between atoms: C_18  and  C_19
REMARK                            x       y       z     vdW  Elec       q    Type
REMARK                         _______ _______ _______ _____ _____    ______ ____
ROOT
ATOM      1  N   UNL     1       2.878   6.590  18.703  0.00  0.00    +0.000 N 
ATOM      2  C   UNL     1       3.790   6.194  17.710  0.00  0.00    +0.000 A 
ATOM      3  C   UNL     1       4.390   6.899  16.651  0.00  0.00    +0.000 A 
ATOM      4  C   UNL     1       5.250   6.197  15.795  0.00  0.00    +0.000 A 
ATOM      5  C   UNL     1       5.514   4.843  15.986  0.00  0.00    +0.000 A 
ATOM      6 CL   UNL     1       6.565   4.015  14.901  0.00  0.00    +0.000 Cl
ATOM      7  C   UNL     1       4.932   4.139  17.035  0.00  0.00    +0.000 A 
ATOM      8  C   UNL     1       4.063   4.823  17.905  0.00  0.00    +0.000 A 
ATOM      9  C   UNL     1       3.305   4.443  19.016  0.00  0.00    +0.000 A 
ATOM     10  N   UNL     1       3.148   3.257  19.659  0.00  0.00    +0.000 NA
ATOM     11  C   UNL     1       2.280   3.459  20.638  0.00  0.00    +0.000 A 
ATOM     12  C   UNL     1       1.837   2.398  21.582  0.00  0.00    +0.000 C 
ATOM     13  S   UNL     1       1.646   5.088  20.771  0.00  0.00    +0.000 S 
ATOM     14  C   UNL     1       2.605   5.498  19.466  0.00  0.00    +0.000 A 
ENDROOT
BRANCH   1  15
ATOM     15  C   UNL     1       2.257   7.908  18.820  0.00  0.00    +0.000 C 
BRANCH  15  16
ATOM     16  C   UNL     1       1.789   8.241  20.252  0.00  0.00    +0.000 C 
BRANCH  16  17
ATOM     17  N   UNL     1       0.657   9.197  20.358  0.00  0.00    +0.000 NA
BRANCH  17  19
ATOM     18  C   UNL     1      -0.245   9.565  22.707  0.00  0.00    +0.000 C 
ATOM     19  C   UNL     1       0.768   9.945  21.628  0.00  0.00    +0.000 C 
ENDBRANCH  17  19
BRANCH  17  20
ATOM     20  C   UNL     1       0.478  10.060  19.180  0.00  0.00    +0.000 C 
ATOM     21  C   UNL     1      -0.963  10.366  18.782  0.00  0.00    +0.000 C 
ENDBRANCH  17  20
ENDBRANCH  16  17
ENDBRANCH  15  16
ENDBRANCH   1  15
TORSDOF 5
ENDMDL
MODEL 9
REMARK VINA RESULT:      -6.1      1.775      5.143
REMARK  Name = 
REMARK  8 active torsions:
REMARK  status: ('A' for Active; 'I' for Inactive)
REMARK    1  A    between atoms: C_1  and  C_2
REMARK    2  A    between atoms: C_2  and  N_3
REMARK    3  A    between atoms: N_3  and  C_4
REMARK    4  A    between atoms: N_3  and  C_6
REMARK    5  A    between atoms: C_4  and  C_5
REMARK    6  A    between atoms: C_6  and  C_7
REMARK    7  A    between atoms: C_7  and  N_8
REMARK    8  A    between atoms: C_18  and  C_19
REMARK                            x       y       z     vdW  Elec       q    Type
REMARK                         _______ _______ _______ _____ _____    ______ ____
ROOT
ATOM      1  N   UNL     1       4.085   4.809  18.548  0.00  0.00    +0.000 N 
ATOM      2  C   UNL     1       3.532   6.089  18.373  0.00  0.00    +0.000 A 
ATOM      3  C   UNL     1       3.900   7.167  17.547  0.00  0.00    +0.000 A 
ATOM      4  C   UNL     1       3.150   8.348  17.630  0.00  0.00    +0.000 A 
ATOM      5  C   UNL     1       2.065   8.455  18.496  0.00  0.00    +0.000 A 
ATOM      6 CL   UNL     1       1.179   9.931  18.577  0.00  0.00    +0.000 Cl
ATOM      7  C   UNL     1       1.688   7.393  19.311  0.00  0.00    +0.000 A 
ATOM      8  C   UNL     1       2.429   6.199  19.247  0.00  0.00    +0.000 A 
ATOM      9  C   UNL     1       2.355   4.974  19.915  0.00  0.00    +0.000 A 
ATOM     10  N   UNL     1       1.518   4.500  20.874  0.00  0.00    +0.000 NA
ATOM     11  C   UNL     1       1.925   3.275  21.172  0.00  0.00    +0.000 A 
ATOM     12  C   UNL     1       1.266   2.410  22.186  0.00  0.00    +0.000 C 
ATOM     13  S   UNL     1       3.332   2.705  20.295  0.00  0.00    +0.000 S 
ATOM     14  C   UNL     1       3.348   4.171  19.495  0.00  0.00    +0.000 A 
ENDROOT
BRANCH   1  15
ATOM     15  C   UNL     1       5.297   4.304  17.905  0.00  0.00    +0.000 C 
BRANCH  15  16
ATOM     16  C   UNL     1       5.303   4.494  16.374  0.00  0.00    +0.000 C 
BRANCH  16  17
ATOM     17  N   UNL     1       6.371   5.375  15.834  0.00  0.00    +0.000 NA
BRANCH  17  19
ATOM     18  C   UNL     1       7.446   7.196  17.247  0.00  0.00    +0.000 C 
ATOM     19  C   UNL     1       7.320   5.709  16.918  0.00  0.00    +0.000 C 
ENDBRANCH  17  19
BRANCH  17  20
ATOM     20  C   UNL     1       7.022   4.865  14.618  0.00  0.00    +0.000 C 
ATOM     21  C   UNL     1       6.195   3.912  13.761  0.00  0.00    +0.000 C 
ENDBRANCH  17  20
ENDBRANCH  16  17
ENDBRANCH  15  16
ENDBRANCH   1  15
TORSDOF 5
ENDMDL
