MODEL 1
REMARK VINA RESULT:      -7.2      0.000      0.000
REMARK  Name = 
REMARK  6 active torsions:
REMARK  status: ('A' for Active; 'I' for Inactive)
REMARK    1  A    between atoms: C_1  and  C_2
REMARK    2  A    between atoms: C_2  and  C_3
REMARK    3  A    between atoms: C_3  and  C_4
REMARK    4  A    between atoms: C_16  and  C_17
REMARK    5  A    between atoms: C_16  and  C_18
REMARK    6  A    between atoms: C_22  and  C_23
REMARK                            x       y       z     vdW  Elec       q    Type
REMARK                         _______ _______ _______ _____ _____    ______ ____
ROOT
ATOM      1  C   UNL     1      -0.513  10.821  19.387  0.00  0.00    +0.000 A 
ATOM      2  C   UNL     1       0.482  11.624  18.931  0.00  0.00    +0.000 A 
ATOM      3  C   UNL     1       0.836  12.452  20.139  0.00  0.00    +0.000 A 
ATOM      4  O   UNL     1       1.710  12.243  20.956  0.00  0.00    +0.000 OA
ATOM      5  O   UNL     1      -0.108  13.385  20.287  0.00  0.00    +0.000 OA
ATOM      6  C   UNL     1      -1.193  12.638  20.836  0.00  0.00    +0.000 A 
ATOM      7  C   UNL     1      -1.836  13.402  21.790  0.00  0.00    +0.000 A 
ATOM      8  C   UNL     1      -3.177  13.629  21.660  0.00  0.00    +0.000 A 
ATOM      9  C   UNL     1      -3.852  13.033  20.583  0.00  0.00    +0.000 A 
ATOM     10  C   UNL     1      -3.216  12.060  19.705  0.00  0.00    +0.000 A 
ATOM     11  C   UNL     1      -1.785  11.710  19.953  0.00  0.00    +0.000 A 
ATOM     12  O   UNL     1      -4.007  11.642  18.593  0.00  0.00    +0.000 OA
ATOM     13  C   UNL     1      -5.455  12.074  18.460  0.00  0.00    +0.000 C 
ATOM     14  C   UNL     1      -5.844  12.639  17.057  0.00  0.00    +0.000 C 
ATOM     15  C   UNL     1      -6.398  10.877  18.714  0.00  0.00    +0.000 C 
ATOM     16  C   UNL     1      -5.946  13.139  19.403  0.00  0.00    +0.000 C 
ATOM     17  C   UNL     1      -5.178  13.565  20.408  0.00  0.00    +0.000 C 
ATOM     18  O   UNL     1      -3.806  14.576  22.436  0.00  0.00    +0.000 OA
ATOM     19  C   UNL     1      -3.281  14.607  23.757  0.00  0.00    +0.000 C 
ATOM     20  C   UNL     1      -1.786  14.893  23.799  0.00  0.00    +0.000 C 
ATOM     21  C   UNL     1      -1.044  14.110  22.795  0.00  0.00    +0.000 C 
ATOM     22  O   UNL     1       0.180  14.082  22.816  0.00  0.00    +0.000 OA
ENDROOT
BRANCH  19  23
ATOM     23  C   UNL     1      -3.870  15.752  24.557  0.00  0.00    +0.000 A 
ATOM     24  C   UNL     1      -2.956  16.625  25.179  0.00  0.00    +0.000 A 
ATOM     25  C   UNL     1      -3.326  17.945  25.398  0.00  0.00    +0.000 A 
ATOM     26  C   UNL     1      -4.603  18.388  25.068  0.00  0.00    +0.000 A 
ATOM     27  C   UNL     1      -5.547  17.495  24.561  0.00  0.00    +0.000 A 
ATOM     28  C   UNL     1      -5.190  16.169  24.325  0.00  0.00    +0.000 A 
ENDBRANCH  19  23
BRANCH   1  29
ATOM     29  C   UNL     1       0.287   9.633  20.249  0.00  0.00    +0.000 C 
BRANCH  29  31
ATOM     30  C   UNL     1      -0.197   9.641  23.130  0.00  0.00    +0.000 C 
ATOM     31  C   UNL     1      -0.183   8.971  21.723  0.00  0.00    +0.000 C 
ENDBRANCH  29  31
ENDBRANCH   1  29
TORSDOF 3
ENDMDL
MODEL 2
REMARK VINA RESULT:      -7.0      6.503     10.658
REMARK  Name = 
REMARK  6 active torsions:
REMARK  status: ('A' for Active; 'I' for Inactive)
REMARK    1  A    between atoms: C_1  and  C_2
REMARK    2  A    between atoms: C_2  and  C_3
REMARK    3  A    between atoms: C_3  and  C_4
REMARK    4  A    between atoms: C_16  and  C_17
REMARK    5  A    between atoms: C_16  and  C_18
REMARK    6  A    between atoms: C_22  and  C_23
REMARK                            x       y       z     vdW  Elec       q    Type
REMARK                         _______ _______ _______ _____ _____    ______ ____
ROOT
ATOM      1  C   UNL     1       3.800   2.386  19.091  0.00  0.00    +0.000 A 
ATOM      2  C   UNL     1       4.306   2.489  20.346  0.00  0.00    +0.000 A 
ATOM      3  C   UNL     1       3.433   3.540  20.983  0.00  0.00    +0.000 A 
ATOM      4  O   UNL     1       2.438   3.373  21.660  0.00  0.00    +0.000 OA
ATOM      5  O   UNL     1       3.824   4.731  20.523  0.00  0.00    +0.000 OA
ATOM      6  C   UNL     1       3.272   4.747  19.207  0.00  0.00    +0.000 A 
ATOM      7  C   UNL     1       2.808   6.016  18.923  0.00  0.00    +0.000 A 
ATOM      8  C   UNL     1       3.277   6.658  17.812  0.00  0.00    +0.000 A 
ATOM      9  C   UNL     1       4.179   5.975  16.980  0.00  0.00    +0.000 A 
ATOM     10  C   UNL     1       4.500   4.566  17.166  0.00  0.00    +0.000 A 
ATOM     11  C   UNL     1       3.860   3.837  18.303  0.00  0.00    +0.000 A 
ATOM     12  O   UNL     1       5.520   4.060  16.307  0.00  0.00    +0.000 OA
ATOM     13  C   UNL     1       6.088   4.911  15.186  0.00  0.00    +0.000 C 
ATOM     14  C   UNL     1       7.648   4.948  15.118  0.00  0.00    +0.000 C 
ATOM     15  C   UNL     1       5.614   4.379  13.815  0.00  0.00    +0.000 C 
ATOM     16  C   UNL     1       5.712   6.367  15.168  0.00  0.00    +0.000 C 
ATOM     17  C   UNL     1       4.796   6.845  16.013  0.00  0.00    +0.000 C 
ATOM     18  O   UNL     1       3.039   8.000  17.623  0.00  0.00    +0.000 OA
ATOM     19  C   UNL     1       1.741   8.371  18.071  0.00  0.00    +0.000 C 
ATOM     20  C   UNL     1       1.507   8.061  19.544  0.00  0.00    +0.000 C 
ATOM     21  C   UNL     1       1.989   6.719  19.911  0.00  0.00    +0.000 C 
ATOM     22  O   UNL     1       1.714   6.241  21.004  0.00  0.00    +0.000 OA
ENDROOT
BRANCH  19  23
ATOM     23  C   UNL     1       1.543   9.873  18.003  0.00  0.00    +0.000 A 
ATOM     24  C   UNL     1       0.405  10.391  18.650  0.00  0.00    +0.000 A 
ATOM     25  C   UNL     1       0.441  11.687  19.147  0.00  0.00    +0.000 A 
ATOM     26  C   UNL     1       1.562  12.488  18.955  0.00  0.00    +0.000 A 
ATOM     27  C   UNL     1       2.644  12.016  18.213  0.00  0.00    +0.000 A 
ATOM     28  C   UNL     1       2.629  10.715  17.716  0.00  0.00    +0.000 A 
ENDBRANCH  19  23
BRANCH   1  29
ATOM     29  C   UNL     1       2.426   1.454  19.282  0.00  0.00    +0.000 C 
BRANCH  29  31
ATOM     30  C   UNL     1       0.116   3.243  19.250  0.00  0.00    +0.000 C 
ATOM     31  C   UNL     1       0.846   1.906  18.919  0.00  0.00    +0.000 C 
ENDBRANCH  29  31
ENDBRANCH   1  29
TORSDOF 3
ENDMDL
MODEL 3
REMARK VINA RESULT:      -6.9      2.948      5.375
REMARK  Name = 
REMARK  6 active torsions:
REMARK  status: ('A' for Active; 'I' for Inactive)
REMARK    1  A    between atoms: C_1  and  C_2
REMARK    2  A    between atoms: C_2  and  C_3
REMARK    3  A    between atoms: C_3  and  C_4
REMARK    4  A    between atoms: C_16  and  C_17
REMARK    5  A    between atoms: C_16  and  C_18
REMARK    6  A    between atoms: C_22  and  C_23
REMARK                            x       y       z     vdW  Elec       q    Type
REMARK                         _______ _______ _______ _____ _____    ______ ____
ROOT
ATOM      1  C   UNL     1       1.075  10.327  18.553  0.00  0.00    +0.000 A 
ATOM      2  C   UNL     1       1.487   9.338  19.387  0.00  0.00    +0.000 A 
ATOM      3  C   UNL     1       0.583   9.501  20.582  0.00  0.00    +0.000 A 
ATOM      4  O   UNL     1      -0.462   8.925  20.810  0.00  0.00    +0.000 OA
ATOM      5  O   UNL     1       1.024  10.542  21.291  0.00  0.00    +0.000 OA
ATOM      6  C   UNL     1       0.573  11.653  20.516  0.00  0.00    +0.000 A 
ATOM      7  C   UNL     1       0.150  12.658  21.363  0.00  0.00    +0.000 A 
ATOM      8  C   UNL     1       0.710  13.899  21.248  0.00  0.00    +0.000 A 
ATOM      9  C   UNL     1       1.662  14.108  20.237  0.00  0.00    +0.000 A 
ATOM     10  C   UNL     1       1.949  13.110  19.216  0.00  0.00    +0.000 A 
ATOM     11  C   UNL     1       1.215  11.809  19.269  0.00  0.00    +0.000 A 
ATOM     12  O   UNL     1       3.024  13.437  18.337  0.00  0.00    +0.000 OA
ATOM     13  C   UNL     1       3.687  14.801  18.388  0.00  0.00    +0.000 C 
ATOM     14  C   UNL     1       5.247  14.769  18.430  0.00  0.00    +0.000 C 
ATOM     15  C   UNL     1       3.310  15.628  17.139  0.00  0.00    +0.000 C 
ATOM     16  C   UNL     1       3.333  15.694  19.546  0.00  0.00    +0.000 C 
ATOM     17  C   UNL     1       2.363  15.355  20.397  0.00  0.00    +0.000 C 
ATOM     18  O   UNL     1       0.505  14.854  22.217  0.00  0.00    +0.000 OA
ATOM     19  C   UNL     1      -0.817  14.799  22.738  0.00  0.00    +0.000 C 
ATOM     20  C   UNL     1      -1.166  13.445  23.340  0.00  0.00    +0.000 C 
ATOM     21  C   UNL     1      -0.732  12.329  22.483  0.00  0.00    +0.000 C 
ATOM     22  O   UNL     1      -1.095  11.185  22.727  0.00  0.00    +0.000 OA
ENDROOT
BRANCH  19  23
ATOM     23  C   UNL     1      -0.988  15.747  23.908  0.00  0.00    +0.000 A 
ATOM     24  C   UNL     1      -1.712  15.263  25.014  0.00  0.00    +0.000 A 
ATOM     25  C   UNL     1      -1.429  15.762  26.278  0.00  0.00    +0.000 A 
ATOM     26  C   UNL     1      -0.488  16.774  26.445  0.00  0.00    +0.000 A 
ATOM     27  C   UNL     1       0.144  17.337  25.337  0.00  0.00    +0.000 A 
ATOM     28  C   UNL     1      -0.121  16.840  24.063  0.00  0.00    +0.000 A 
ENDBRANCH  19  23
BRANCH   1  29
ATOM     29  C   UNL     1      -0.321   9.722  17.864  0.00  0.00    +0.000 C 
BRANCH  29  31
ATOM     30  C   UNL     1      -3.201   9.865  17.387  0.00  0.00    +0.000 C 
ATOM     31  C   UNL     1      -1.834  10.459  17.845  0.00  0.00    +0.000 C 
ENDBRANCH  29  31
ENDBRANCH   1  29
TORSDOF 3
ENDMDL
MODEL 4
REMARK VINA RESULT:      -6.7      0.700      1.191
REMARK  Name = 
REMARK  6 active torsions:
REMARK  status: ('A' for Active; 'I' for Inactive)
REMARK    1  A    between atoms: C_1  and  C_2
REMARK    2  A    between atoms: C_2  and  C_3
REMARK    3  A    between atoms: C_3  and  C_4
REMARK    4  A    between atoms: C_16  and  C_17
REMARK    5  A    between atoms: C_16  and  C_18
REMARK    6  A    between atoms: C_22  and  C_23
REMARK                            x       y       z     vdW  Elec       q    Type
REMARK                         _______ _______ _______ _____ _____    ______ ____
ROOT
ATOM      1  C   UNL     1      -0.327  10.904  19.228  0.00  0.00    +0.000 A 
ATOM      2  C   UNL     1       0.626  11.748  18.756  0.00  0.00    +0.000 A 
ATOM      3  C   UNL     1       0.984  12.571  19.966  0.00  0.00    +0.000 A 
ATOM      4  O   UNL     1       1.889  12.382  20.755  0.00  0.00    +0.000 OA
ATOM      5  O   UNL     1       0.014  13.468  20.155  0.00  0.00    +0.000 OA
ATOM      6  C   UNL     1      -1.029  12.674  20.723  0.00  0.00    +0.000 A 
ATOM      7  C   UNL     1      -1.671  13.402  21.706  0.00  0.00    +0.000 A 
ATOM      8  C   UNL     1      -3.022  13.583  21.618  0.00  0.00    +0.000 A 
ATOM      9  C   UNL     1      -3.706  12.979  20.551  0.00  0.00    +0.000 A 
ATOM     10  C   UNL     1      -3.062  12.042  19.641  0.00  0.00    +0.000 A 
ATOM     11  C   UNL     1      -1.613  11.739  19.843  0.00  0.00    +0.000 A 
ATOM     12  O   UNL     1      -3.869  11.612  18.546  0.00  0.00    +0.000 OA
ATOM     13  C   UNL     1      -5.335  11.994  18.460  0.00  0.00    +0.000 C 
ATOM     14  C   UNL     1      -5.783  12.565  17.077  0.00  0.00    +0.000 C 
ATOM     15  C   UNL     1      -6.228  10.761  18.722  0.00  0.00    +0.000 C 
ATOM     16  C   UNL     1      -5.835  13.027  19.432  0.00  0.00    +0.000 C 
ATOM     17  C   UNL     1      -5.055  13.466  20.422  0.00  0.00    +0.000 C 
ATOM     18  O   UNL     1      -3.661  14.496  22.426  0.00  0.00    +0.000 OA
ATOM     19  C   UNL     1      -3.100  14.526  23.732  0.00  0.00    +0.000 C 
ATOM     20  C   UNL     1      -1.614  14.865  23.735  0.00  0.00    +0.000 C 
ATOM     21  C   UNL     1      -0.875  14.123  22.700  0.00  0.00    +0.000 C 
ATOM     22  O   UNL     1       0.349  14.138  22.685  0.00  0.00    +0.000 OA
ENDROOT
BRANCH  19  23
ATOM     23  C   UNL     1      -3.705  15.638  24.566  0.00  0.00    +0.000 A 
ATOM     24  C   UNL     1      -2.804  16.525  25.186  0.00  0.00    +0.000 A 
ATOM     25  C   UNL     1      -3.207  17.830  25.439  0.00  0.00    +0.000 A 
ATOM     26  C   UNL     1      -4.503  18.241  25.142  0.00  0.00    +0.000 A 
ATOM     27  C   UNL     1      -5.431  17.331  24.637  0.00  0.00    +0.000 A 
ATOM     28  C   UNL     1      -5.040  16.021  24.368  0.00  0.00    +0.000 A 
ENDBRANCH  19  23
BRANCH   1  29
ATOM     29  C   UNL     1       0.539   9.733  20.048  0.00  0.00    +0.000 C 
BRANCH  29  31
ATOM     30  C   UNL     1       2.032   8.450  17.888  0.00  0.00    +0.000 C 
ATOM     31  C   UNL     1       1.641   8.649  19.384  0.00  0.00    +0.000 C 
ENDBRANCH  29  31
ENDBRANCH   1  29
TORSDOF 3
ENDMDL
MODEL 5
REMARK VINA RESULT:      -6.6      1.908      7.563
REMARK  Name = 
REMARK  6 active torsions:
REMARK  status: ('A' for Active; 'I' for Inactive)
REMARK    1  A    between atoms: C_1  and  C_2
REMARK    2  A    between atoms: C_2  and  C_3
REMARK    3  A    between atoms: C_3  and  C_4
REMARK    4  A    between atoms: C_16  and  C_17
REMARK    5  A    between atoms: C_16  and  C_18
REMARK    6  A    between atoms: C_22  and  C_23
REMARK                            x       y       z     vdW  Elec       q    Type
REMARK                         _______ _______ _______ _____ _____    ______ ____
ROOT
ATOM      1  C   UNL     1      -6.668  13.290  20.162  0.00  0.00    +0.000 A 
ATOM      2  C   UNL     1      -6.810  13.795  18.910  0.00  0.00    +0.000 A 
ATOM      3  C   UNL     1      -6.119  12.770  18.047  0.00  0.00    +0.000 A 
ATOM      4  O   UNL     1      -6.618  11.830  17.462  0.00  0.00    +0.000 OA
ATOM      5  O   UNL     1      -4.802  12.948  18.174  0.00  0.00    +0.000 OA
ATOM      6  C   UNL     1      -4.539  12.377  19.456  0.00  0.00    +0.000 A 
ATOM      7  C   UNL     1      -3.335  11.702  19.416  0.00  0.00    +0.000 A 
ATOM      8  C   UNL     1      -2.360  12.036  20.313  0.00  0.00    +0.000 A 
ATOM      9  C   UNL     1      -2.646  13.024  21.269  0.00  0.00    +0.000 A 
ATOM     10  C   UNL     1      -3.981  13.580  21.443  0.00  0.00    +0.000 A 
ATOM     11  C   UNL     1      -5.074  13.093  20.548  0.00  0.00    +0.000 A 
ATOM     12  O   UNL     1      -4.071  14.655  22.377  0.00  0.00    +0.000 OA
ATOM     13  C   UNL     1      -2.878  15.052  23.227  0.00  0.00    +0.000 C 
ATOM     14  C   UNL     1      -2.565  16.581  23.242  0.00  0.00    +0.000 C 
ATOM     15  C   UNL     1      -3.110  14.648  24.700  0.00  0.00    +0.000 C 
ATOM     16  C   UNL     1      -1.550  14.436  22.879  0.00  0.00    +0.000 C 
ATOM     17  C   UNL     1      -1.466  13.469  21.963  0.00  0.00    +0.000 C 
ATOM     18  O   UNL     1      -1.074  11.573  20.155  0.00  0.00    +0.000 OA
ATOM     19  C   UNL     1      -1.052  10.240  19.660  0.00  0.00    +0.000 C 
ATOM     20  C   UNL     1      -1.766  10.088  18.323  0.00  0.00    +0.000 C 
ATOM     21  C   UNL     1      -3.058  10.795  18.302  0.00  0.00    +0.000 C 
ATOM     22  O   UNL     1      -3.840  10.624  17.376  0.00  0.00    +0.000 OA
ENDROOT
BRANCH  19  23
ATOM     23  C   UNL     1       0.361   9.792  19.345  0.00  0.00    +0.000 A 
ATOM     24  C   UNL     1       0.997   8.983  20.306  0.00  0.00    +0.000 A 
ATOM     25  C   UNL     1       1.966   8.078  19.893  0.00  0.00    +0.000 A 
ATOM     26  C   UNL     1       2.351   8.013  18.558  0.00  0.00    +0.000 A 
ATOM     27  C   UNL     1       1.806   8.896  17.625  0.00  0.00    +0.000 A 
ATOM     28  C   UNL     1       0.826   9.803  18.021  0.00  0.00    +0.000 A 
ENDBRANCH  19  23
BRANCH   1  29
ATOM     29  C   UNL     1      -7.833  12.097  20.252  0.00  0.00    +0.000 C 
BRANCH  29  31
ATOM     30  C   UNL     1      -7.094   9.330  19.671  0.00  0.00    +0.000 C 
ATOM     31  C   UNL     1      -7.582  10.472  20.613  0.00  0.00    +0.000 C 
ENDBRANCH  29  31
ENDBRANCH   1  29
TORSDOF 3
ENDMDL
MODEL 6
REMARK VINA RESULT:      -6.6      5.934      9.679
REMARK  Name = 
REMARK  6 active torsions:
REMARK  status: ('A' for Active; 'I' for Inactive)
REMARK    1  A    between atoms: C_1  and  C_2
REMARK    2  A    between atoms: C_2  and  C_3
REMARK    3  A    between atoms: C_3  and  C_4
REMARK    4  A    between atoms: C_16  and  C_17
REMARK    5  A    between atoms: C_16  and  C_18
REMARK    6  A    between atoms: C_22  and  C_23
REMARK                            x       y       z     vdW  Elec       q    Type
REMARK                         _______ _______ _______ _____ _____    ______ ____
ROOT
ATOM      1  C   UNL     1       5.668   4.767  17.122  0.00  0.00    +0.000 A 
ATOM      2  C   UNL     1       5.285   4.970  15.835  0.00  0.00    +0.000 A 
ATOM      3  C   UNL     1       4.795   6.395  15.845  0.00  0.00    +0.000 A 
ATOM      4  O   UNL     1       5.417   7.400  15.562  0.00  0.00    +0.000 OA
ATOM      5  O   UNL     1       3.584   6.409  16.408  0.00  0.00    +0.000 OA
ATOM      6  C   UNL     1       3.890   6.267  17.795  0.00  0.00    +0.000 A 
ATOM      7  C   UNL     1       3.036   7.062  18.534  0.00  0.00    +0.000 A 
ATOM      8  C   UNL     1       2.282   6.486  19.516  0.00  0.00    +0.000 A 
ATOM      9  C   UNL     1       2.446   5.113  19.763  0.00  0.00    +0.000 A 
ATOM     10  C   UNL     1       3.495   4.326  19.130  0.00  0.00    +0.000 A 
ATOM     11  C   UNL     1       4.410   5.008  18.164  0.00  0.00    +0.000 A 
ATOM     12  O   UNL     1       3.447   2.926  19.401  0.00  0.00    +0.000 OA
ATOM     13  C   UNL     1       2.464   2.360  20.408  0.00  0.00    +0.000 C 
ATOM     14  C   UNL     1       1.650   1.125  19.905  0.00  0.00    +0.000 C 
ATOM     15  C   UNL     1       3.206   1.892  21.679  0.00  0.00    +0.000 C 
ATOM     16  C   UNL     1       1.395   3.285  20.922  0.00  0.00    +0.000 C 
ATOM     17  C   UNL     1       1.415   4.585  20.618  0.00  0.00    +0.000 C 
ATOM     18  O   UNL     1       1.248   7.178  20.105  0.00  0.00    +0.000 OA
ATOM     19  C   UNL     1       1.565   8.555  20.271  0.00  0.00    +0.000 C 
ATOM     20  C   UNL     1       1.903   9.252  18.960  0.00  0.00    +0.000 C 
ATOM     21  C   UNL     1       2.809   8.447  18.122  0.00  0.00    +0.000 C 
ATOM     22  O   UNL     1       3.324   8.936  17.124  0.00  0.00    +0.000 OA
ENDROOT
BRANCH  19  23
ATOM     23  C   UNL     1       0.370   9.338  20.776  0.00  0.00    +0.000 A 
ATOM     24  C   UNL     1       0.033   9.174  22.133  0.00  0.00    +0.000 A 
ATOM     25  C   UNL     1      -0.595  10.214  22.804  0.00  0.00    +0.000 A 
ATOM     26  C   UNL     1      -0.945  11.381  22.133  0.00  0.00    +0.000 A 
ATOM     27  C   UNL     1      -0.719  11.498  20.762  0.00  0.00    +0.000 A 
ATOM     28  C   UNL     1      -0.081  10.467  20.075  0.00  0.00    +0.000 A 
ENDBRANCH  19  23
BRANCH   1  29
ATOM     29  C   UNL     1       7.157   5.517  17.224  0.00  0.00    +0.000 C 
BRANCH  29  31
ATOM     30  C   UNL     1       7.936   8.272  17.812  0.00  0.00    +0.000 C 
ATOM     31  C   UNL     1       7.564   6.814  18.218  0.00  0.00    +0.000 C 
ENDBRANCH  29  31
ENDBRANCH   1  29
TORSDOF 3
ENDMDL
MODEL 7
REMARK VINA RESULT:      -6.6      3.206      7.556
REMARK  Name = 
REMARK  6 active torsions:
REMARK  status: ('A' for Active; 'I' for Inactive)
REMARK    1  A    between atoms: C_1  and  C_2
REMARK    2  A    between atoms: C_2  and  C_3
REMARK    3  A    between atoms: C_3  and  C_4
REMARK    4  A    between atoms: C_16  and  C_17
REMARK    5  A    between atoms: C_16  and  C_18
REMARK    6  A    between atoms: C_22  and  C_23
REMARK                            x       y       z     vdW  Elec       q    Type
REMARK                         _______ _______ _______ _____ _____    ______ ____
ROOT
ATOM      1  C   UNL     1       0.065  17.850  20.430  0.00  0.00    +0.000 A 
ATOM      2  C   UNL     1       1.343  18.112  20.807  0.00  0.00    +0.000 A 
ATOM      3  C   UNL     1       2.149  17.147  19.975  0.00  0.00    +0.000 A 
ATOM      4  O   UNL     1       2.681  17.351  18.903  0.00  0.00    +0.000 OA
ATOM      5  O   UNL     1       2.034  15.936  20.526  0.00  0.00    +0.000 OA
ATOM      6  C   UNL     1       0.723  15.540  20.121  0.00  0.00    +0.000 A 
ATOM      7  C   UNL     1       0.728  14.194  19.814  0.00  0.00    +0.000 A 
ATOM      8  C   UNL     1      -0.147  13.366  20.458  0.00  0.00    +0.000 A 
ATOM      9  C   UNL     1      -1.049  13.933  21.374  0.00  0.00    +0.000 A 
ATOM     10  C   UNL     1      -1.194  15.373  21.537  0.00  0.00    +0.000 A 
ATOM     11  C   UNL     1      -0.329  16.271  20.713  0.00  0.00    +0.000 A 
ATOM     12  O   UNL     1      -2.068  15.777  22.590  0.00  0.00    +0.000 OA
ATOM     13  C   UNL     1      -2.892  14.757  23.353  0.00  0.00    +0.000 C 
ATOM     14  C   UNL     1      -2.824  14.890  24.907  0.00  0.00    +0.000 C 
ATOM     15  C   UNL     1      -4.386  14.886  22.979  0.00  0.00    +0.000 C 
ATOM     16  C   UNL     1      -2.577  13.304  23.122  0.00  0.00    +0.000 C 
ATOM     17  C   UNL     1      -1.716  12.937  22.171  0.00  0.00    +0.000 C 
ATOM     18  O   UNL     1      -0.014  11.999  20.371  0.00  0.00    +0.000 OA
ATOM     19  C   UNL     1       0.407  11.594  19.074  0.00  0.00    +0.000 C 
ATOM     20  C   UNL     1       1.733  12.217  18.655  0.00  0.00    +0.000 C 
ATOM     21  C   UNL     1       1.791  13.656  18.965  0.00  0.00    +0.000 C 
ATOM     22  O   UNL     1       2.705  14.344  18.531  0.00  0.00    +0.000 OA
ENDROOT
BRANCH  19  23
ATOM     23  C   UNL     1       0.700  10.107  19.029  0.00  0.00    +0.000 A 
ATOM     24  C   UNL     1       1.366   9.628  17.885  0.00  0.00    +0.000 A 
ATOM     25  C   UNL     1       2.171   8.502  17.995  0.00  0.00    +0.000 A 
ATOM     26  C   UNL     1       2.270   7.816  19.202  0.00  0.00    +0.000 A 
ATOM     27  C   UNL     1       1.518   8.222  20.304  0.00  0.00    +0.000 A 
ATOM     28  C   UNL     1       0.714   9.355  20.214  0.00  0.00    +0.000 A 
ENDBRANCH  19  23
BRANCH   1  29
ATOM     29  C   UNL     1      -0.093  18.631  18.961  0.00  0.00    +0.000 C 
BRANCH  29  31
ATOM     30  C   UNL     1       0.470  18.219  16.123  0.00  0.00    +0.000 C 
ATOM     31  C   UNL     1      -0.281  17.907  17.453  0.00  0.00    +0.000 C 
ENDBRANCH  29  31
ENDBRANCH   1  29
TORSDOF 3
ENDMDL
MODEL 8
REMARK VINA RESULT:      -6.6      6.141      9.913
REMARK  Name = 
REMARK  6 active torsions:
REMARK  status: ('A' for Active; 'I' for Inactive)
REMARK    1  A    between atoms: C_1  and  C_2
REMARK    2  A    between atoms: C_2  and  C_3
REMARK    3  A    between atoms: C_3  and  C_4
REMARK    4  A    between atoms: C_16  and  C_17
REMARK    5  A    between atoms: C_16  and  C_18
REMARK    6  A    between atoms: C_22  and  C_23
REMARK                            x       y       z     vdW  Elec       q    Type
REMARK                         _______ _______ _______ _____ _____    ______ ____
ROOT
ATOM      1  C   UNL     1       5.941   4.257  17.511  0.00  0.00    +0.000 A 
ATOM      2  C   UNL     1       5.788   4.318  16.164  0.00  0.00    +0.000 A 
ATOM      3  C   UNL     1       5.426   5.762  15.926  0.00  0.00    +0.000 A 
ATOM      4  O   UNL     1       6.168   6.680  15.639  0.00  0.00    +0.000 OA
ATOM      5  O   UNL     1       4.146   5.925  16.269  0.00  0.00    +0.000 OA
ATOM      6  C   UNL     1       4.212   5.942  17.695  0.00  0.00    +0.000 A 
ATOM      7  C   UNL     1       3.320   6.877  18.182  0.00  0.00    +0.000 A 
ATOM      8  C   UNL     1       2.372   6.481  19.082  0.00  0.00    +0.000 A 
ATOM      9  C   UNL     1       2.377   5.143  19.508  0.00  0.00    +0.000 A 
ATOM     10  C   UNL     1       3.444   4.216  19.158  0.00  0.00    +0.000 A 
ATOM     11  C   UNL     1       4.557   4.709  18.290  0.00  0.00    +0.000 A 
ATOM     12  O   UNL     1       3.235   2.868  19.576  0.00  0.00    +0.000 OA
ATOM     13  C   UNL     1       2.058   2.499  20.459  0.00  0.00    +0.000 C 
ATOM     14  C   UNL     1       1.234   1.266  19.971  0.00  0.00    +0.000 C 
ATOM     15  C   UNL     1       2.544   2.151  21.884  0.00  0.00    +0.000 C 
ATOM     16  C   UNL     1       1.003   3.549  20.674  0.00  0.00    +0.000 C 
ATOM     17  C   UNL     1       1.182   4.796  20.231  0.00  0.00    +0.000 C 
ATOM     18  O   UNL     1       1.319   7.308  19.402  0.00  0.00    +0.000 OA
ATOM     19  C   UNL     1       1.720   8.671  19.460  0.00  0.00    +0.000 C 
ATOM     20  C   UNL     1       2.323   9.172  18.154  0.00  0.00    +0.000 C 
ATOM     21  C   UNL     1       3.280   8.211  17.581  0.00  0.00    +0.000 C 
ATOM     22  O   UNL     1       3.988   8.534  16.636  0.00  0.00    +0.000 OA
ENDROOT
BRANCH  19  23
ATOM     23  C   UNL     1       0.530   9.587  19.661  0.00  0.00    +0.000 A 
ATOM     24  C   UNL     1       0.407  10.198  20.924  0.00  0.00    +0.000 A 
ATOM     25  C   UNL     1      -0.229  11.428  21.021  0.00  0.00    +0.000 A 
ATOM     26  C   UNL     1      -0.795  12.023  19.898  0.00  0.00    +0.000 A 
ATOM     27  C   UNL     1      -0.777  11.364  18.669  0.00  0.00    +0.000 A 
ATOM     28  C   UNL     1      -0.134  10.134  18.552  0.00  0.00    +0.000 A 
ENDBRANCH  19  23
BRANCH   1  29
ATOM     29  C   UNL     1       7.453   4.917  17.779  0.00  0.00    +0.000 C 
BRANCH  29  31
ATOM     30  C   UNL     1       8.177   7.699  18.300  0.00  0.00    +0.000 C 
ATOM     31  C   UNL     1       7.812   6.250  18.741  0.00  0.00    +0.000 C 
ENDBRANCH  29  31
ENDBRANCH   1  29
TORSDOF 3
ENDMDL
MODEL 9
REMARK VINA RESULT:      -6.5      2.851      5.310
REMARK  Name = 
REMARK  6 active torsions:
REMARK  status: ('A' for Active; 'I' for Inactive)
REMARK    1  A    between atoms: C_1  and  C_2
REMARK    2  A    between atoms: C_2  and  C_3
REMARK    3  A    between atoms: C_3  and  C_4
REMARK    4  A    between atoms: C_16  and  C_17
REMARK    5  A    between atoms: C_16  and  C_18
REMARK    6  A    between atoms: C_22  and  C_23
REMARK                            x       y       z     vdW  Elec       q    Type
REMARK                         _______ _______ _______ _____ _____    ______ ____
ROOT
ATOM      1  C   UNL     1       1.061  10.382  18.592  0.00  0.00    +0.000 A 
ATOM      2  C   UNL     1       1.452   9.405  19.450  0.00  0.00    +0.000 A 
ATOM      3  C   UNL     1       0.553   9.616  20.641  0.00  0.00    +0.000 A 
ATOM      4  O   UNL     1      -0.504   9.068  20.883  0.00  0.00    +0.000 OA
ATOM      5  O   UNL     1       1.016  10.665  21.325  0.00  0.00    +0.000 OA
ATOM      6  C   UNL     1       0.588  11.766  20.522  0.00  0.00    +0.000 A 
ATOM      7  C   UNL     1       0.187  12.800  21.344  0.00  0.00    +0.000 A 
ATOM      8  C   UNL     1       0.773  14.025  21.199  0.00  0.00    +0.000 A 
ATOM      9  C   UNL     1       1.729  14.190  20.184  0.00  0.00    +0.000 A 
ATOM     10  C   UNL     1       1.993  13.161  19.187  0.00  0.00    +0.000 A 
ATOM     11  C   UNL     1       1.233  11.878  19.272  0.00  0.00    +0.000 A 
ATOM     12  O   UNL     1       3.075  13.444  18.300  0.00  0.00    +0.000 OA
ATOM     13  C   UNL     1       3.766  14.795  18.318  0.00  0.00    +0.000 C 
ATOM     14  C   UNL     1       5.326  14.732  18.361  0.00  0.00    +0.000 C 
ATOM     15  C   UNL     1       3.406  15.599  17.049  0.00  0.00    +0.000 C 
ATOM     16  C   UNL     1       3.432  15.724  19.453  0.00  0.00    +0.000 C 
ATOM     17  C   UNL     1       2.455  15.426  20.313  0.00  0.00    +0.000 C 
ATOM     18  O   UNL     1       0.589  15.008  22.145  0.00  0.00    +0.000 OA
ATOM     19  C   UNL     1      -0.735  14.994  22.667  0.00  0.00    +0.000 C 
ATOM     20  C   UNL     1      -1.112  13.662  23.302  0.00  0.00    +0.000 C 
ATOM     21  C   UNL     1      -0.701  12.516  22.472  0.00  0.00    +0.000 C 
ATOM     22  O   UNL     1      -1.088  11.387  22.744  0.00  0.00    +0.000 OA
ENDROOT
BRANCH  19  23
ATOM     23  C   UNL     1      -0.885  15.974  23.813  0.00  0.00    +0.000 A 
ATOM     24  C   UNL     1      -1.256  17.289  23.476  0.00  0.00    +0.000 A 
ATOM     25  C   UNL     1      -1.969  18.047  24.396  0.00  0.00    +0.000 A 
ATOM     26  C   UNL     1      -2.258  17.540  25.659  0.00  0.00    +0.000 A 
ATOM     27  C   UNL     1      -1.789  16.282  26.035  0.00  0.00    +0.000 A 
ATOM     28  C   UNL     1      -1.082  15.504  25.121  0.00  0.00    +0.000 A 
ENDBRANCH  19  23
BRANCH   1  29
ATOM     29  C   UNL     1      -0.348   9.790  17.918  0.00  0.00    +0.000 C 
BRANCH  29  31
ATOM     30  C   UNL     1      -2.655  10.792  16.430  0.00  0.00    +0.000 C 
ATOM     31  C   UNL     1      -1.796  10.624  17.720  0.00  0.00    +0.000 C 
ENDBRANCH  29  31
ENDBRANCH   1  29
TORSDOF 3
ENDMDL
