MODEL 1
REMARK VINA RESULT:      -8.0      0.000      0.000
REMARK  Name = 
REMARK  7 active torsions:
REMARK  status: ('A' for Active; 'I' for Inactive)
REMARK    1  A    between atoms: C_1  and  C_2
REMARK    2  A    between atoms: C_2  and  C_3
REMARK    3  A    between atoms: C_2  and  C_4
REMARK    4  A    between atoms: C_2  and  O_5
REMARK    5  A    between atoms: O_5  and  C_6
REMARK    6  A    between atoms: C_11  and  C_12
REMARK    7  A    between atoms: C_15  and  N_16
REMARK                            x       y       z     vdW  Elec       q    Type
REMARK                         _______ _______ _______ _____ _____    ______ ____
ROOT
ATOM      1  C   UNL     1       0.942   8.909  20.247  0.00  0.00    +0.000 A 
ATOM      2  C   UNL     1       0.489   9.971  19.455  0.00  0.00    +0.000 A 
ATOM      3  C   UNL     1      -0.296  11.001  19.984  0.00  0.00    +0.000 A 
ATOM      4  C   UNL     1      -0.716  10.996  21.315  0.00  0.00    +0.000 A 
ATOM      5  C   UNL     1      -0.267   9.951  22.126  0.00  0.00    +0.000 A 
ATOM      6  C   UNL     1       0.542   8.916  21.592  0.00  0.00    +0.000 A 
ENDROOT
BRANCH   4   7
ATOM      7  N   UNL     1      -1.582  12.000  21.850  0.00  0.00    +0.000 N 
ATOM      8  C   UNL     1      -1.123  13.040  22.629  0.00  0.00    +0.000 C 
ATOM      9  O   UNL     1       0.067  13.218  22.885  0.00  0.00    +0.000 OA
ATOM     10  N   UNL     1      -2.034  13.934  23.120  0.00  0.00    +0.000 N 
ATOM     11  C   UNL     1      -1.473  15.037  23.893  0.00  0.00    +0.000 C 
ATOM     12  C   UNL     1      -2.644  15.876  24.247  0.00  0.00    +0.000 A 
ATOM     13  C   UNL     1      -2.629  17.101  24.892  0.00  0.00    +0.000 A 
ATOM     14  C   UNL     1      -3.848  17.676  25.230  0.00  0.00    +0.000 A 
ATOM     15  C   UNL     1      -5.047  17.009  24.934  0.00  0.00    +0.000 A 
ATOM     16  C   UNL     1      -5.048  15.785  24.245  0.00  0.00    +0.000 A 
ATOM     17  C   UNL     1      -3.831  15.232  23.878  0.00  0.00    +0.000 A 
ATOM     18  C   UNL     1      -3.507  13.992  23.082  0.00  0.00    +0.000 C 
ATOM     19  H   UNL     1      -2.488  12.107  21.426  0.00  0.00    +0.000 HD
ENDBRANCH   4   7
BRANCH   1  25
ATOM     20  C   UNL     1       3.698   4.484  17.933  0.00  0.00    +0.000 C 
ATOM     21  O   UNL     1       3.713   3.438  18.581  0.00  0.00    +0.000 OA
ATOM     22  N   UNL     1       3.241   5.671  18.488  0.00  0.00    +0.000 N 
ATOM     23  C   UNL     1       2.966   5.613  19.911  0.00  0.00    +0.000 C 
ATOM     24  C   UNL     1       2.156   6.773  20.393  0.00  0.00    +0.000 C 
ATOM     25  C   UNL     1       1.820   7.857  19.665  0.00  0.00    +0.000 C 
ATOM     26  C   UNL     1       2.293   7.955  18.231  0.00  0.00    +0.000 C 
ATOM     27  C   UNL     1       3.461   6.997  17.912  0.00  0.00    +0.000 C 
BRANCH  20  28
ATOM     28  O   UNL     1       4.120   4.575  16.642  0.00  0.00    +0.000 OA
BRANCH  28  30
ATOM     29  C   UNL     1       6.354   4.638  17.714  0.00  0.00    +0.000 C 
ATOM     30  C   UNL     1       5.552   4.732  16.404  0.00  0.00    +0.000 C 
ATOM     31  C   UNL     1       5.847   6.029  15.631  0.00  0.00    +0.000 C 
ATOM     32  C   UNL     1       5.993   3.554  15.516  0.00  0.00    +0.000 C 
ENDBRANCH  28  30
ENDBRANCH  20  28
ENDBRANCH   1  25
TORSDOF 4
ENDMDL
MODEL 2
REMARK VINA RESULT:      -8.0      2.315     12.378
REMARK  Name = 
REMARK  7 active torsions:
REMARK  status: ('A' for Active; 'I' for Inactive)
REMARK    1  A    between atoms: C_1  and  C_2
REMARK    2  A    between atoms: C_2  and  C_3
REMARK    3  A    between atoms: C_2  and  C_4
REMARK    4  A    between atoms: C_2  and  O_5
REMARK    5  A    between atoms: O_5  and  C_6
REMARK    6  A    between atoms: C_11  and  C_12
REMARK    7  A    between atoms: C_15  and  N_16
REMARK                            x       y       z     vdW  Elec       q    Type
REMARK                         _______ _______ _______ _____ _____    ______ ____
ROOT
ATOM      1  C   UNL     1      -1.116  11.449  22.424  0.00  0.00    +0.000 A 
ATOM      2  C   UNL     1      -0.712  10.338  23.173  0.00  0.00    +0.000 A 
ATOM      3  C   UNL     1       0.058   9.313  22.612  0.00  0.00    +0.000 A 
ATOM      4  C   UNL     1       0.413   9.316  21.262  0.00  0.00    +0.000 A 
ATOM      5  C   UNL     1       0.028  10.421  20.498  0.00  0.00    +0.000 A 
ATOM      6  C   UNL     1      -0.737  11.467  21.073  0.00  0.00    +0.000 A 
ENDROOT
BRANCH   4   7
ATOM      7  N   UNL     1       1.132   8.238  20.656  0.00  0.00    +0.000 N 
ATOM      8  C   UNL     1       1.847   8.384  19.487  0.00  0.00    +0.000 C 
ATOM      9  O   UNL     1       1.968   9.459  18.899  0.00  0.00    +0.000 OA
ATOM     10  N   UNL     1       2.476   7.286  18.970  0.00  0.00    +0.000 N 
ATOM     11  C   UNL     1       3.257   7.525  17.761  0.00  0.00    +0.000 C 
ATOM     12  C   UNL     1       3.873   6.211  17.451  0.00  0.00    +0.000 A 
ATOM     13  C   UNL     1       4.792   5.936  16.452  0.00  0.00    +0.000 A 
ATOM     14  C   UNL     1       5.165   4.611  16.257  0.00  0.00    +0.000 A 
ATOM     15  C   UNL     1       4.601   3.597  17.046  0.00  0.00    +0.000 A 
ATOM     16  C   UNL     1       3.698   3.896  18.080  0.00  0.00    +0.000 A 
ATOM     17  C   UNL     1       3.356   5.222  18.295  0.00  0.00    +0.000 A 
ATOM     18  C   UNL     1       2.489   5.861  19.351  0.00  0.00    +0.000 C 
ATOM     19  H   UNL     1       1.346   7.442  21.231  0.00  0.00    +0.000 HD
ENDBRANCH   4   7
BRANCH   1  25
ATOM     20  C   UNL     1      -4.081  15.978  24.223  0.00  0.00    +0.000 C 
ATOM     21  O   UNL     1      -3.501  17.063  24.209  0.00  0.00    +0.000 OA
ATOM     22  N   UNL     1      -3.396  14.790  24.008  0.00  0.00    +0.000 N 
ATOM     23  C   UNL     1      -1.952  14.921  23.949  0.00  0.00    +0.000 C 
ATOM     24  C   UNL     1      -1.284  13.715  23.373  0.00  0.00    +0.000 C 
ATOM     25  C   UNL     1      -1.888  12.549  23.066  0.00  0.00    +0.000 C 
ATOM     26  C   UNL     1      -3.372  12.401  23.321  0.00  0.00    +0.000 C 
ATOM     27  C   UNL     1      -3.927  13.459  24.298  0.00  0.00    +0.000 C 
BRANCH  20  28
ATOM     28  O   UNL     1      -5.416  15.842  24.449  0.00  0.00    +0.000 OA
BRANCH  28  30
ATOM     29  C   UNL     1      -5.677  15.854  21.984  0.00  0.00    +0.000 C 
ATOM     30  C   UNL     1      -6.326  16.145  23.349  0.00  0.00    +0.000 C 
ATOM     31  C   UNL     1      -6.857  17.585  23.447  0.00  0.00    +0.000 C 
ATOM     32  C   UNL     1      -7.532  15.198  23.488  0.00  0.00    +0.000 C 
ENDBRANCH  28  30
ENDBRANCH  20  28
ENDBRANCH   1  25
TORSDOF 4
ENDMDL
MODEL 3
REMARK VINA RESULT:      -7.9      1.649      2.572
REMARK  Name = 
REMARK  7 active torsions:
REMARK  status: ('A' for Active; 'I' for Inactive)
REMARK    1  A    between atoms: C_1  and  C_2
REMARK    2  A    between atoms: C_2  and  C_3
REMARK    3  A    between atoms: C_2  and  C_4
REMARK    4  A    between atoms: C_2  and  O_5
REMARK    5  A    between atoms: O_5  and  C_6
REMARK    6  A    between atoms: C_11  and  C_12
REMARK    7  A    between atoms: C_15  and  N_16
REMARK                            x       y       z     vdW  Elec       q    Type
REMARK                         _______ _______ _______ _____ _____    ______ ____
ROOT
ATOM      1  C   UNL     1       0.739   9.056  21.104  0.00  0.00    +0.000 A 
ATOM      2  C   UNL     1       0.805  10.329  20.527  0.00  0.00    +0.000 A 
ATOM      3  C   UNL     1       0.263  11.453  21.159  0.00  0.00    +0.000 A 
ATOM      4  C   UNL     1      -0.423  11.355  22.371  0.00  0.00    +0.000 A 
ATOM      5  C   UNL     1      -0.492  10.095  22.970  0.00  0.00    +0.000 A 
ATOM      6  C   UNL     1       0.072   8.960  22.336  0.00  0.00    +0.000 A 
ENDROOT
BRANCH   4   7
ATOM      7  N   UNL     1      -1.049  12.482  22.991  0.00  0.00    +0.000 N 
ATOM      8  C   UNL     1      -2.320  12.900  22.664  0.00  0.00    +0.000 C 
ATOM      9  O   UNL     1      -3.038  12.313  21.854  0.00  0.00    +0.000 OA
ATOM     10  N   UNL     1      -2.820  14.008  23.291  0.00  0.00    +0.000 N 
ATOM     11  C   UNL     1      -4.190  14.363  22.934  0.00  0.00    +0.000 C 
ATOM     12  C   UNL     1      -4.502  15.538  23.784  0.00  0.00    +0.000 A 
ATOM     13  C   UNL     1      -5.720  16.187  23.897  0.00  0.00    +0.000 A 
ATOM     14  C   UNL     1      -5.776  17.341  24.669  0.00  0.00    +0.000 A 
ATOM     15  C   UNL     1      -4.617  17.829  25.292  0.00  0.00    +0.000 A 
ATOM     16  C   UNL     1      -3.396  17.139  25.200  0.00  0.00    +0.000 A 
ATOM     17  C   UNL     1      -3.353  15.968  24.458  0.00  0.00    +0.000 A 
ATOM     18  C   UNL     1      -2.236  14.980  24.233  0.00  0.00    +0.000 C 
ATOM     19  H   UNL     1      -0.669  12.801  23.866  0.00  0.00    +0.000 HD
ENDBRANCH   4   7
BRANCH   1  25
ATOM     20  C   UNL     1       3.801   4.831  18.801  0.00  0.00    +0.000 C 
ATOM     21  O   UNL     1       4.612   5.143  17.930  0.00  0.00    +0.000 OA
ATOM     22  N   UNL     1       2.865   5.739  19.276  0.00  0.00    +0.000 N 
ATOM     23  C   UNL     1       2.807   6.992  18.548  0.00  0.00    +0.000 C 
ATOM     24  C   UNL     1       2.063   8.058  19.285  0.00  0.00    +0.000 C 
ATOM     25  C   UNL     1       1.373   7.889  20.431  0.00  0.00    +0.000 C 
ATOM     26  C   UNL     1       1.310   6.512  21.055  0.00  0.00    +0.000 C 
ATOM     27  C   UNL     1       1.692   5.384  20.072  0.00  0.00    +0.000 C 
BRANCH  20  28
ATOM     28  O   UNL     1       3.744   3.594  19.366  0.00  0.00    +0.000 OA
BRANCH  28  30
ATOM     29  C   UNL     1       2.497   3.042  17.297  0.00  0.00    +0.000 C 
ATOM     30  C   UNL     1       2.945   2.575  18.693  0.00  0.00    +0.000 C 
ATOM     31  C   UNL     1       1.761   2.129  19.567  0.00  0.00    +0.000 C 
ATOM     32  C   UNL     1       3.856   1.350  18.491  0.00  0.00    +0.000 C 
ENDBRANCH  28  30
ENDBRANCH  20  28
ENDBRANCH   1  25
TORSDOF 4
ENDMDL
MODEL 4
REMARK VINA RESULT:      -7.8      1.742      2.720
REMARK  Name = 
REMARK  7 active torsions:
REMARK  status: ('A' for Active; 'I' for Inactive)
REMARK    1  A    between atoms: C_1  and  C_2
REMARK    2  A    between atoms: C_2  and  C_3
REMARK    3  A    between atoms: C_2  and  C_4
REMARK    4  A    between atoms: C_2  and  O_5
REMARK    5  A    between atoms: O_5  and  C_6
REMARK    6  A    between atoms: C_11  and  C_12
REMARK    7  A    between atoms: C_15  and  N_16
REMARK                            x       y       z     vdW  Elec       q    Type
REMARK                         _______ _______ _______ _____ _____    ______ ____
ROOT
ATOM      1  C   UNL     1       0.688   9.355  21.135  0.00  0.00    +0.000 A 
ATOM      2  C   UNL     1      -0.020   9.239  22.337  0.00  0.00    +0.000 A 
ATOM      3  C   UNL     1      -0.639  10.341  22.936  0.00  0.00    +0.000 A 
ATOM      4  C   UNL     1      -0.534  11.625  22.398  0.00  0.00    +0.000 A 
ATOM      5  C   UNL     1       0.160  11.763  21.193  0.00  0.00    +0.000 A 
ATOM      6  C   UNL     1       0.773  10.641  20.579  0.00  0.00    +0.000 A 
ENDROOT
BRANCH   4   7
ATOM      7  N   UNL     1      -1.095  12.773  23.040  0.00  0.00    +0.000 N 
ATOM      8  C   UNL     1      -2.381  13.207  22.799  0.00  0.00    +0.000 C 
ATOM      9  O   UNL     1      -3.165  12.616  22.057  0.00  0.00    +0.000 OA
ATOM     10  N   UNL     1      -2.816  14.334  23.439  0.00  0.00    +0.000 N 
ATOM     11  C   UNL     1      -4.203  14.705  23.178  0.00  0.00    +0.000 C 
ATOM     12  C   UNL     1      -4.433  15.901  24.025  0.00  0.00    +0.000 A 
ATOM     13  C   UNL     1      -5.629  16.572  24.214  0.00  0.00    +0.000 A 
ATOM     14  C   UNL     1      -5.611  17.742  24.965  0.00  0.00    +0.000 A 
ATOM     15  C   UNL     1      -4.401  18.221  25.490  0.00  0.00    +0.000 A 
ATOM     16  C   UNL     1      -3.201  17.509  25.322  0.00  0.00    +0.000 A 
ATOM     17  C   UNL     1      -3.231  16.324  24.603  0.00  0.00    +0.000 A 
ATOM     18  C   UNL     1      -2.148  15.314  24.316  0.00  0.00    +0.000 C 
ATOM     19  H   UNL     1      -0.647  13.102  23.878  0.00  0.00    +0.000 HD
ENDBRANCH   4   7
BRANCH   1  25
ATOM     20  C   UNL     1       3.632   4.995  18.931  0.00  0.00    +0.000 C 
ATOM     21  O   UNL     1       4.420   5.259  18.024  0.00  0.00    +0.000 OA
ATOM     22  N   UNL     1       2.721   5.935  19.393  0.00  0.00    +0.000 N 
ATOM     23  C   UNL     1       2.656   7.156  18.612  0.00  0.00    +0.000 C 
ATOM     24  C   UNL     1       1.947   8.262  19.324  0.00  0.00    +0.000 C 
ATOM     25  C   UNL     1       1.289   8.153  20.496  0.00  0.00    +0.000 C 
ATOM     26  C   UNL     1       1.229   6.805  21.182  0.00  0.00    +0.000 C 
ATOM     27  C   UNL     1       1.568   5.630  20.238  0.00  0.00    +0.000 C 
BRANCH  20  28
ATOM     28  O   UNL     1       3.577   3.785  19.552  0.00  0.00    +0.000 OA
BRANCH  28  30
ATOM     29  C   UNL     1       3.882   1.509  18.618  0.00  0.00    +0.000 C 
ATOM     30  C   UNL     1       2.920   2.688  18.847  0.00  0.00    +0.000 C 
ATOM     31  C   UNL     1       2.274   3.176  17.540  0.00  0.00    +0.000 C 
ATOM     32  C   UNL     1       1.789   2.181  19.760  0.00  0.00    +0.000 C 
ENDBRANCH  28  30
ENDBRANCH  20  28
ENDBRANCH   1  25
TORSDOF 4
ENDMDL
MODEL 5
REMARK VINA RESULT:      -7.8      0.358      1.213
REMARK  Name = 
REMARK  7 active torsions:
REMARK  status: ('A' for Active; 'I' for Inactive)
REMARK    1  A    between atoms: C_1  and  C_2
REMARK    2  A    between atoms: C_2  and  C_3
REMARK    3  A    between atoms: C_2  and  C_4
REMARK    4  A    between atoms: C_2  and  O_5
REMARK    5  A    between atoms: O_5  and  C_6
REMARK    6  A    between atoms: C_11  and  C_12
REMARK    7  A    between atoms: C_15  and  N_16
REMARK                            x       y       z     vdW  Elec       q    Type
REMARK                         _______ _______ _______ _____ _____    ______ ____
ROOT
ATOM      1  C   UNL     1       0.816   9.253  20.191  0.00  0.00    +0.000 A 
ATOM      2  C   UNL     1       0.631   9.355  21.575  0.00  0.00    +0.000 A 
ATOM      3  C   UNL     1      -0.218  10.315  22.135  0.00  0.00    +0.000 A 
ATOM      4  C   UNL     1      -0.881  11.258  21.348  0.00  0.00    +0.000 A 
ATOM      5  C   UNL     1      -0.719  11.168  19.963  0.00  0.00    +0.000 A 
ATOM      6  C   UNL     1       0.129  10.184  19.396  0.00  0.00    +0.000 A 
ENDROOT
BRANCH   4   7
ATOM      7  N   UNL     1      -1.691  12.294  21.911  0.00  0.00    +0.000 N 
ATOM      8  C   UNL     1      -1.171  13.307  22.685  0.00  0.00    +0.000 C 
ATOM      9  O   UNL     1       0.031  13.435  22.913  0.00  0.00    +0.000 OA
ATOM     10  N   UNL     1      -2.033  14.234  23.204  0.00  0.00    +0.000 N 
ATOM     11  C   UNL     1      -1.408  15.308  23.970  0.00  0.00    +0.000 C 
ATOM     12  C   UNL     1      -2.535  16.191  24.359  0.00  0.00    +0.000 A 
ATOM     13  C   UNL     1      -2.453  17.409  25.012  0.00  0.00    +0.000 A 
ATOM     14  C   UNL     1      -3.640  18.031  25.384  0.00  0.00    +0.000 A 
ATOM     15  C   UNL     1      -4.872  17.416  25.113  0.00  0.00    +0.000 A 
ATOM     16  C   UNL     1      -4.940  16.198  24.417  0.00  0.00    +0.000 A 
ATOM     17  C   UNL     1      -3.755  15.599  24.016  0.00  0.00    +0.000 A 
ATOM     18  C   UNL     1      -3.502  14.353  23.204  0.00  0.00    +0.000 C 
ATOM     19  H   UNL     1      -2.602  12.440  21.510  0.00  0.00    +0.000 HD
ENDBRANCH   4   7
BRANCH   1  25
ATOM     20  C   UNL     1       3.526   4.802  17.870  0.00  0.00    +0.000 C 
ATOM     21  O   UNL     1       3.444   3.729  18.466  0.00  0.00    +0.000 OA
ATOM     22  N   UNL     1       3.086   5.985  18.448  0.00  0.00    +0.000 N 
ATOM     23  C   UNL     1       2.703   5.877  19.843  0.00  0.00    +0.000 C 
ATOM     24  C   UNL     1       1.915   7.053  20.320  0.00  0.00    +0.000 C 
ATOM     25  C   UNL     1       1.685   8.185  19.624  0.00  0.00    +0.000 C 
ATOM     26  C   UNL     1       2.268   8.323  18.234  0.00  0.00    +0.000 C 
ATOM     27  C   UNL     1       3.410   7.323  17.954  0.00  0.00    +0.000 C 
BRANCH  20  28
ATOM     28  O   UNL     1       4.047   4.930  16.619  0.00  0.00    +0.000 OA
BRANCH  28  30
ATOM     29  C   UNL     1       5.784   3.564  15.496  0.00  0.00    +0.000 C 
ATOM     30  C   UNL     1       5.484   4.728  16.457  0.00  0.00    +0.000 C 
ATOM     31  C   UNL     1       6.178   4.553  17.818  0.00  0.00    +0.000 C 
ATOM     32  C   UNL     1       6.048   6.006  15.812  0.00  0.00    +0.000 C 
ENDBRANCH  28  30
ENDBRANCH  20  28
ENDBRANCH   1  25
TORSDOF 4
ENDMDL
MODEL 6
REMARK VINA RESULT:      -7.8      1.031      1.658
REMARK  Name = 
REMARK  7 active torsions:
REMARK  status: ('A' for Active; 'I' for Inactive)
REMARK    1  A    between atoms: C_1  and  C_2
REMARK    2  A    between atoms: C_2  and  C_3
REMARK    3  A    between atoms: C_2  and  C_4
REMARK    4  A    between atoms: C_2  and  O_5
REMARK    5  A    between atoms: O_5  and  C_6
REMARK    6  A    between atoms: C_11  and  C_12
REMARK    7  A    between atoms: C_15  and  N_16
REMARK                            x       y       z     vdW  Elec       q    Type
REMARK                         _______ _______ _______ _____ _____    ______ ____
ROOT
ATOM      1  C   UNL     1       0.944   8.956  20.782  0.00  0.00    +0.000 A 
ATOM      2  C   UNL     1       0.805  10.213  20.181  0.00  0.00    +0.000 A 
ATOM      3  C   UNL     1       0.135  11.263  20.818  0.00  0.00    +0.000 A 
ATOM      4  C   UNL     1      -0.480  11.096  22.060  0.00  0.00    +0.000 A 
ATOM      5  C   UNL     1      -0.344   9.852  22.683  0.00  0.00    +0.000 A 
ATOM      6  C   UNL     1       0.350   8.795  22.043  0.00  0.00    +0.000 A 
ENDROOT
BRANCH   4   7
ATOM      7  N   UNL     1      -1.234  12.136  22.688  0.00  0.00    +0.000 N 
ATOM      8  C   UNL     1      -2.336  12.716  22.100  0.00  0.00    +0.000 C 
ATOM      9  O   UNL     1      -2.791  12.355  21.015  0.00  0.00    +0.000 OA
ATOM     10  N   UNL     1      -2.973  13.726  22.768  0.00  0.00    +0.000 N 
ATOM     11  C   UNL     1      -4.161  14.258  22.110  0.00  0.00    +0.000 C 
ATOM     12  C   UNL     1      -4.684  15.275  23.054  0.00  0.00    +0.000 A 
ATOM     13  C   UNL     1      -5.862  15.993  22.938  0.00  0.00    +0.000 A 
ATOM     14  C   UNL     1      -6.119  16.984  23.880  0.00  0.00    +0.000 A 
ATOM     15  C   UNL     1      -5.188  17.244  24.898  0.00  0.00    +0.000 A 
ATOM     16  C   UNL     1      -4.015  16.481  25.025  0.00  0.00    +0.000 A 
ATOM     17  C   UNL     1      -3.781  15.470  24.105  0.00  0.00    +0.000 A 
ATOM     18  C   UNL     1      -2.674  14.450  24.017  0.00  0.00    +0.000 C 
ATOM     19  H   UNL     1      -1.128  12.252  23.682  0.00  0.00    +0.000 HD
ENDBRANCH   4   7
BRANCH   1  25
ATOM     20  C   UNL     1       3.230   4.527  18.009  0.00  0.00    +0.000 C 
ATOM     21  O   UNL     1       3.072   3.415  18.512  0.00  0.00    +0.000 OA
ATOM     22  N   UNL     1       2.901   5.685  18.699  0.00  0.00    +0.000 N 
ATOM     23  C   UNL     1       2.539   5.484  20.089  0.00  0.00    +0.000 C 
ATOM     24  C   UNL     1       1.861   6.673  20.689  0.00  0.00    +0.000 C 
ATOM     25  C   UNL     1       1.710   7.877  20.100  0.00  0.00    +0.000 C 
ATOM     26  C   UNL     1       2.273   8.091  18.712  0.00  0.00    +0.000 C 
ATOM     27  C   UNL     1       3.323   7.031  18.315  0.00  0.00    +0.000 C 
BRANCH  20  28
ATOM     28  O   UNL     1       3.733   4.722  16.759  0.00  0.00    +0.000 OA
BRANCH  28  30
ATOM     29  C   UNL     1       5.597   3.511  15.663  0.00  0.00    +0.000 C 
ATOM     30  C   UNL     1       5.183   4.664  16.593  0.00  0.00    +0.000 C 
ATOM     31  C   UNL     1       5.896   4.600  17.955  0.00  0.00    +0.000 C 
ATOM     32  C   UNL     1       5.610   5.975  15.910  0.00  0.00    +0.000 C 
ENDBRANCH  28  30
ENDBRANCH  20  28
ENDBRANCH   1  25
TORSDOF 4
ENDMDL
MODEL 7
REMARK VINA RESULT:      -7.7      0.613      1.010
REMARK  Name = 
REMARK  7 active torsions:
REMARK  status: ('A' for Active; 'I' for Inactive)
REMARK    1  A    between atoms: C_1  and  C_2
REMARK    2  A    between atoms: C_2  and  C_3
REMARK    3  A    between atoms: C_2  and  C_4
REMARK    4  A    between atoms: C_2  and  O_5
REMARK    5  A    between atoms: O_5  and  C_6
REMARK    6  A    between atoms: C_11  and  C_12
REMARK    7  A    between atoms: C_15  and  N_16
REMARK                            x       y       z     vdW  Elec       q    Type
REMARK                         _______ _______ _______ _____ _____    ______ ____
ROOT
ATOM      1  C   UNL     1       1.307   8.599  20.150  0.00  0.00    +0.000 A 
ATOM      2  C   UNL     1       0.751   9.633  19.389  0.00  0.00    +0.000 A 
ATOM      3  C   UNL     1      -0.001  10.656  19.977  0.00  0.00    +0.000 A 
ATOM      4  C   UNL     1      -0.285  10.668  21.343  0.00  0.00    +0.000 A 
ATOM      5  C   UNL     1       0.270   9.650  22.124  0.00  0.00    +0.000 A 
ATOM      6  C   UNL     1       1.046   8.624  21.529  0.00  0.00    +0.000 A 
ENDROOT
BRANCH   4   7
ATOM      7  N   UNL     1      -1.116  11.664  21.945  0.00  0.00    +0.000 N 
ATOM      8  C   UNL     1      -0.649  12.912  22.293  0.00  0.00    +0.000 C 
ATOM      9  O   UNL     1       0.500  13.290  22.070  0.00  0.00    +0.000 OA
ATOM     10  N   UNL     1      -1.515  13.785  22.893  0.00  0.00    +0.000 N 
ATOM     11  C   UNL     1      -0.968  15.105  23.186  0.00  0.00    +0.000 C 
ATOM     12  C   UNL     1      -2.107  15.860  23.764  0.00  0.00    +0.000 A 
ATOM     13  C   UNL     1      -2.131  17.200  24.111  0.00  0.00    +0.000 A 
ATOM     14  C   UNL     1      -3.268  17.691  24.742  0.00  0.00    +0.000 A 
ATOM     15  C   UNL     1      -4.341  16.833  25.027  0.00  0.00    +0.000 A 
ATOM     16  C   UNL     1      -4.318  15.484  24.634  0.00  0.00    +0.000 A 
ATOM     17  C   UNL     1      -3.197  15.007  23.973  0.00  0.00    +0.000 A 
ATOM     18  C   UNL     1      -2.904  13.655  23.371  0.00  0.00    +0.000 C 
ATOM     19  H   UNL     1      -2.112  11.551  21.859  0.00  0.00    +0.000 HD
ENDBRANCH   4   7
BRANCH   1  25
ATOM     20  C   UNL     1       3.912   4.215  17.595  0.00  0.00    +0.000 C 
ATOM     21  O   UNL     1       3.944   3.151  18.211  0.00  0.00    +0.000 OA
ATOM     22  N   UNL     1       3.493   5.390  18.202  0.00  0.00    +0.000 N 
ATOM     23  C   UNL     1       3.278   5.294  19.633  0.00  0.00    +0.000 C 
ATOM     24  C   UNL     1       2.504   6.447  20.183  0.00  0.00    +0.000 C 
ATOM     25  C   UNL     1       2.148   7.555  19.502  0.00  0.00    +0.000 C 
ATOM     26  C   UNL     1       2.560   7.690  18.052  0.00  0.00    +0.000 C 
ATOM     27  C   UNL     1       3.702   6.730  17.655  0.00  0.00    +0.000 C 
BRANCH  20  28
ATOM     28  O   UNL     1       4.279   4.339  16.290  0.00  0.00    +0.000 OA
BRANCH  28  30
ATOM     29  C   UNL     1       6.189   3.616  14.885  0.00  0.00    +0.000 C 
ATOM     30  C   UNL     1       5.693   4.555  15.999  0.00  0.00    +0.000 C 
ATOM     31  C   UNL     1       6.546   4.447  17.274  0.00  0.00    +0.000 C 
ATOM     32  C   UNL     1       5.830   5.995  15.472  0.00  0.00    +0.000 C 
ENDBRANCH  28  30
ENDBRANCH  20  28
ENDBRANCH   1  25
TORSDOF 4
ENDMDL
MODEL 8
REMARK VINA RESULT:      -7.5      1.499      2.532
REMARK  Name = 
REMARK  7 active torsions:
REMARK  status: ('A' for Active; 'I' for Inactive)
REMARK    1  A    between atoms: C_1  and  C_2
REMARK    2  A    between atoms: C_2  and  C_3
REMARK    3  A    between atoms: C_2  and  C_4
REMARK    4  A    between atoms: C_2  and  O_5
REMARK    5  A    between atoms: O_5  and  C_6
REMARK    6  A    between atoms: C_11  and  C_12
REMARK    7  A    between atoms: C_15  and  N_16
REMARK                            x       y       z     vdW  Elec       q    Type
REMARK                         _______ _______ _______ _____ _____    ______ ____
ROOT
ATOM      1  C   UNL     1       0.474  10.121  20.968  0.00  0.00    +0.000 A 
ATOM      2  C   UNL     1       0.732  11.454  20.627  0.00  0.00    +0.000 A 
ATOM      3  C   UNL     1       0.155  12.518  21.326  0.00  0.00    +0.000 A 
ATOM      4  C   UNL     1      -0.754  12.309  22.365  0.00  0.00    +0.000 A 
ATOM      5  C   UNL     1      -1.019  10.986  22.729  0.00  0.00    +0.000 A 
ATOM      6  C   UNL     1      -0.420   9.908  22.030  0.00  0.00    +0.000 A 
ENDROOT
BRANCH   4   7
ATOM      7  N   UNL     1      -1.412  13.385  23.038  0.00  0.00    +0.000 N 
ATOM      8  C   UNL     1      -2.586  13.942  22.581  0.00  0.00    +0.000 C 
ATOM      9  O   UNL     1      -3.191  13.529  21.592  0.00  0.00    +0.000 OA
ATOM     10  N   UNL     1      -3.122  14.990  23.279  0.00  0.00    +0.000 N 
ATOM     11  C   UNL     1      -4.392  15.496  22.769  0.00  0.00    +0.000 C 
ATOM     12  C   UNL     1      -4.775  16.565  23.723  0.00  0.00    +0.000 A 
ATOM     13  C   UNL     1      -5.958  17.285  23.738  0.00  0.00    +0.000 A 
ATOM     14  C   UNL     1      -6.078  18.325  24.653  0.00  0.00    +0.000 A 
ATOM     15  C   UNL     1      -5.013  18.631  25.514  0.00  0.00    +0.000 A 
ATOM     16  C   UNL     1      -3.833  17.867  25.513  0.00  0.00    +0.000 A 
ATOM     17  C   UNL     1      -3.732  16.808  24.623  0.00  0.00    +0.000 A 
ATOM     18  C   UNL     1      -2.649  15.776  24.433  0.00  0.00    +0.000 C 
ATOM     19  H   UNL     1      -1.165  13.552  23.999  0.00  0.00    +0.000 HD
ENDBRANCH   4   7
BRANCH   1  25
ATOM     20  C   UNL     1       3.669   6.258  18.249  0.00  0.00    +0.000 C 
ATOM     21  O   UNL     1       4.155   6.598  17.171  0.00  0.00    +0.000 OA
ATOM     22  N   UNL     1       2.714   7.036  18.889  0.00  0.00    +0.000 N 
ATOM     23  C   UNL     1       2.220   8.156  18.111  0.00  0.00    +0.000 C 
ATOM     24  C   UNL     1       1.480   9.155  18.940  0.00  0.00    +0.000 C 
ATOM     25  C   UNL     1       1.147   9.012  20.238  0.00  0.00    +0.000 C 
ATOM     26  C   UNL     1       1.527   7.736  20.958  0.00  0.00    +0.000 C 
ATOM     27  C   UNL     1       1.875   6.580  19.995  0.00  0.00    +0.000 C 
BRANCH  20  28
ATOM     28  O   UNL     1       4.010   5.112  18.899  0.00  0.00    +0.000 OA
BRANCH  28  30
ATOM     29  C   UNL     1       3.820   2.663  19.233  0.00  0.00    +0.000 C 
ATOM     30  C   UNL     1       3.694   3.842  18.252  0.00  0.00    +0.000 C 
ATOM     31  C   UNL     1       4.540   3.639  16.984  0.00  0.00    +0.000 C 
ATOM     32  C   UNL     1       2.219   3.914  17.816  0.00  0.00    +0.000 C 
ENDBRANCH  28  30
ENDBRANCH  20  28
ENDBRANCH   1  25
TORSDOF 4
ENDMDL
MODEL 9
REMARK VINA RESULT:      -7.5      2.089     12.433
REMARK  Name = 
REMARK  7 active torsions:
REMARK  status: ('A' for Active; 'I' for Inactive)
REMARK    1  A    between atoms: C_1  and  C_2
REMARK    2  A    between atoms: C_2  and  C_3
REMARK    3  A    between atoms: C_2  and  C_4
REMARK    4  A    between atoms: C_2  and  O_5
REMARK    5  A    between atoms: O_5  and  C_6
REMARK    6  A    between atoms: C_11  and  C_12
REMARK    7  A    between atoms: C_15  and  N_16
REMARK                            x       y       z     vdW  Elec       q    Type
REMARK                         _______ _______ _______ _____ _____    ______ ____
ROOT
ATOM      1  C   UNL     1      -0.865  11.382  21.560  0.00  0.00    +0.000 A 
ATOM      2  C   UNL     1      -0.793  11.188  20.176  0.00  0.00    +0.000 A 
ATOM      3  C   UNL     1      -0.092  10.113  19.619  0.00  0.00    +0.000 A 
ATOM      4  C   UNL     1       0.620   9.211  20.411  0.00  0.00    +0.000 A 
ATOM      5  C   UNL     1       0.553   9.380  21.796  0.00  0.00    +0.000 A 
ATOM      6  C   UNL     1      -0.172  10.460  22.359  0.00  0.00    +0.000 A 
ENDROOT
BRANCH   4   7
ATOM      7  N   UNL     1       1.404   8.153  19.853  0.00  0.00    +0.000 N 
ATOM      8  C   UNL     1       2.210   8.326  18.749  0.00  0.00    +0.000 C 
ATOM      9  O   UNL     1       2.362   9.410  18.187  0.00  0.00    +0.000 OA
ATOM     10  N   UNL     1       2.898   7.245  18.272  0.00  0.00    +0.000 N 
ATOM     11  C   UNL     1       3.771   7.513  17.134  0.00  0.00    +0.000 C 
ATOM     12  C   UNL     1       4.432   6.213  16.859  0.00  0.00    +0.000 A 
ATOM     13  C   UNL     1       5.435   5.966  15.937  0.00  0.00    +0.000 A 
ATOM     14  C   UNL     1       5.845   4.650  15.756  0.00  0.00    +0.000 A 
ATOM     15  C   UNL     1       5.234   3.616  16.482  0.00  0.00    +0.000 A 
ATOM     16  C   UNL     1       4.244   3.887  17.443  0.00  0.00    +0.000 A 
ATOM     17  C   UNL     1       3.864   5.205  17.646  0.00  0.00    +0.000 A 
ATOM     18  C   UNL     1       2.903   5.816  18.634  0.00  0.00    +0.000 C 
ATOM     19  H   UNL     1       1.584   7.352  20.434  0.00  0.00    +0.000 HD
ENDBRANCH   4   7
BRANCH   1  25
ATOM     20  C   UNL     1      -4.236  15.186  24.149  0.00  0.00    +0.000 C 
ATOM     21  O   UNL     1      -5.447  15.074  23.961  0.00  0.00    +0.000 OA
ATOM     22  N   UNL     1      -3.319  14.452  23.409  0.00  0.00    +0.000 N 
ATOM     23  C   UNL     1      -3.887  13.703  22.304  0.00  0.00    +0.000 C 
ATOM     24  C   UNL     1      -2.954  12.669  21.764  0.00  0.00    +0.000 C 
ATOM     25  C   UNL     1      -1.664  12.505  22.122  0.00  0.00    +0.000 C 
ATOM     26  C   UNL     1      -1.064  13.438  23.151  0.00  0.00    +0.000 C 
ATOM     27  C   UNL     1      -1.885  14.730  23.349  0.00  0.00    +0.000 C 
BRANCH  20  28
ATOM     28  O   UNL     1      -3.693  16.022  25.076  0.00  0.00    +0.000 OA
BRANCH  28  30
ATOM     29  C   UNL     1      -5.114  18.002  25.528  0.00  0.00    +0.000 C 
ATOM     30  C   UNL     1      -3.837  17.459  24.863  0.00  0.00    +0.000 C 
ATOM     31  C   UNL     1      -3.765  17.809  23.367  0.00  0.00    +0.000 C 
ATOM     32  C   UNL     1      -2.640  18.139  25.554  0.00  0.00    +0.000 C 
ENDBRANCH  28  30
ENDBRANCH  20  28
ENDBRANCH   1  25
TORSDOF 4
ENDMDL
