MODEL 1
REMARK VINA RESULT:      -8.4      0.000      0.000
REMARK  Name = 
REMARK  12 active torsions:
REMARK  status: ('A' for Active; 'I' for Inactive)
REMARK    1  A    between atoms: C_6  and  C_7
REMARK    2  A    between atoms: C_10  and  O_11
REMARK    3  A    between atoms: O_11  and  C_12
REMARK    4  A    between atoms: C_12  and  C_13
REMARK    5  A    between atoms: C_15  and  C_16
REMARK    6  A    between atoms: C_15  and  C_17
REMARK    7  A    between atoms: C_17  and  O_18
REMARK    8  A    between atoms: C_19  and  C_20
REMARK    9  A    between atoms: C_20  and  C_21
REMARK   10  A    between atoms: C_27  and  O_28
REMARK   11  A    between atoms: O_28  and  C_29
REMARK   12  A    between atoms: C_29  and  C_30
REMARK                            x       y       z     vdW  Elec       q    Type
REMARK                         _______ _______ _______ _____ _____    ______ ____
ROOT
ATOM      1  C   UNL     1       1.731   5.045  20.650  0.00  0.00    +0.000 C 
ATOM      2  C   UNL     1       2.015   4.929  19.340  0.00  0.00    +0.000 C 
ATOM      3  C   UNL     1       2.159   3.561  18.713  0.00  0.00    +0.000 C 
ATOM      4  C   UNL     1       3.532   3.333  18.046  0.00  0.00    +0.000 C 
ATOM      5  C   UNL     1       4.033   4.509  17.174  0.00  0.00    +0.000 C 
ATOM      6  C   UNL     1       3.858   5.884  17.893  0.00  0.00    +0.000 C 
ATOM      7  C   UNL     1       4.712   5.998  19.206  0.00  0.00    +0.000 C 
ATOM      8  C   UNL     1       4.207   6.988  16.830  0.00  0.00    +0.000 C 
ATOM      9  C   UNL     1       5.304   6.764  15.770  0.00  0.00    +0.000 C 
ATOM     10  C   UNL     1       5.594   5.334  15.317  0.00  0.00    +0.000 C 
ATOM     11  C   UNL     1       5.490   4.330  16.519  0.00  0.00    +0.000 C 
ATOM     12  C   UNL     1       5.652   2.895  15.974  0.00  0.00    +0.000 C 
ATOM     13  C   UNL     1       2.342   6.086  18.386  0.00  0.00    +0.000 C 
ENDROOT
BRANCH  10  14
ATOM     14  O   UNL     1       6.970   5.237  14.835  0.00  0.00    +0.000 OA
BRANCH  14  15
ATOM     15  C   UNL     1       7.323   5.088  13.547  0.00  0.00    +0.000 C 
ATOM     16  C   UNL     1       6.529   3.966  12.929  0.00  0.00    +0.000 C 
ATOM     17  O   UNL     1       8.200   5.723  12.977  0.00  0.00    +0.000 OA
ENDBRANCH  14  15
ENDBRANCH  10  14
BRANCH  11  18
ATOM     18  C   UNL     1       6.680   4.612  17.498  0.00  0.00    +0.000 C 
BRANCH  18  19
ATOM     19  O   UNL     1       7.961   4.130  17.104  0.00  0.00    +0.000 OA
ATOM     20  H   UNL     1       7.797   3.345  16.544  0.00  0.00    +0.000 HD
ENDBRANCH  18  19
ENDBRANCH  11  18
BRANCH  13  21
ATOM     21  C   UNL     1       2.193   7.543  18.934  0.00  0.00    +0.000 C 
BRANCH  21  22
ATOM     22  C   UNL     1       1.201   8.508  18.357  0.00  0.00    +0.000 C 
ATOM     23  C   UNL     1       0.741   9.565  19.058  0.00  0.00    +0.000 C 
ATOM     24  C   UNL     1      -0.377  10.395  18.570  0.00  0.00    +0.000 C 
ATOM     25  O   UNL     1      -0.924  10.290  17.487  0.00  0.00    +0.000 OA
ATOM     26  O   UNL     1      -0.721  11.281  19.538  0.00  0.00    +0.000 OA
ATOM     27  C   UNL     1       0.028  11.048  20.732  0.00  0.00    +0.000 C 
ATOM     28  C   UNL     1       1.150  10.088  20.396  0.00  0.00    +0.000 C 
BRANCH  28  29
ATOM     29  O   UNL     1       1.273   9.028  21.358  0.00  0.00    +0.000 OA
BRANCH  29  30
ATOM     30  C   UNL     1       0.116   8.731  22.011  0.00  0.00    +0.000 C 
ATOM     31  C   UNL     1       0.030   9.450  23.327  0.00  0.00    +0.000 C 
ATOM     32  O   UNL     1      -0.762   8.003  21.577  0.00  0.00    +0.000 OA
ENDBRANCH  29  30
ENDBRANCH  28  29
ENDBRANCH  21  22
ENDBRANCH  13  21
TORSDOF 8
ENDMDL
MODEL 2
REMARK VINA RESULT:      -7.8      0.937      2.339
REMARK  Name = 
REMARK  12 active torsions:
REMARK  status: ('A' for Active; 'I' for Inactive)
REMARK    1  A    between atoms: C_6  and  C_7
REMARK    2  A    between atoms: C_10  and  O_11
REMARK    3  A    between atoms: O_11  and  C_12
REMARK    4  A    between atoms: C_12  and  C_13
REMARK    5  A    between atoms: C_15  and  C_16
REMARK    6  A    between atoms: C_15  and  C_17
REMARK    7  A    between atoms: C_17  and  O_18
REMARK    8  A    between atoms: C_19  and  C_20
REMARK    9  A    between atoms: C_20  and  C_21
REMARK   10  A    between atoms: C_27  and  O_28
REMARK   11  A    between atoms: O_28  and  C_29
REMARK   12  A    between atoms: C_29  and  C_30
REMARK                            x       y       z     vdW  Elec       q    Type
REMARK                         _______ _______ _______ _____ _____    ______ ____
ROOT
ATOM      1  C   UNL     1       1.516   5.183  20.597  0.00  0.00    +0.000 C 
ATOM      2  C   UNL     1       1.849   5.030  19.302  0.00  0.00    +0.000 C 
ATOM      3  C   UNL     1       2.023   3.646  18.720  0.00  0.00    +0.000 C 
ATOM      4  C   UNL     1       3.421   3.408  18.112  0.00  0.00    +0.000 C 
ATOM      5  C   UNL     1       3.946   4.562  17.224  0.00  0.00    +0.000 C 
ATOM      6  C   UNL     1       3.738   5.956  17.896  0.00  0.00    +0.000 C 
ATOM      7  C   UNL     1       4.542   6.113  19.235  0.00  0.00    +0.000 C 
ATOM      8  C   UNL     1       4.119   7.031  16.815  0.00  0.00    +0.000 C 
ATOM      9  C   UNL     1       5.255   6.784  15.802  0.00  0.00    +0.000 C 
ATOM     10  C   UNL     1       5.570   5.344  15.402  0.00  0.00    +0.000 C 
ATOM     11  C   UNL     1       5.428   4.373  16.628  0.00  0.00    +0.000 C 
ATOM     12  C   UNL     1       5.618   2.925  16.132  0.00  0.00    +0.000 C 
ATOM     13  C   UNL     1       2.203   6.161  18.328  0.00  0.00    +0.000 C 
ENDROOT
BRANCH  10  14
ATOM     14  O   UNL     1       6.963   5.242  14.973  0.00  0.00    +0.000 OA
BRANCH  14  15
ATOM     15  C   UNL     1       7.366   5.105  13.699  0.00  0.00    +0.000 C 
ATOM     16  C   UNL     1       6.528   4.057  13.011  0.00  0.00    +0.000 C 
ATOM     17  O   UNL     1       8.310   5.694  13.189  0.00  0.00    +0.000 OA
ENDBRANCH  14  15
ENDBRANCH  10  14
BRANCH  11  18
ATOM     18  C   UNL     1       6.579   4.692  17.641  0.00  0.00    +0.000 C 
BRANCH  18  19
ATOM     19  O   UNL     1       7.871   4.184  17.322  0.00  0.00    +0.000 OA
ATOM     20  H   UNL     1       8.514   4.817  17.698  0.00  0.00    +0.000 HD
ENDBRANCH  18  19
ENDBRANCH  11  18
BRANCH  13  21
ATOM     21  C   UNL     1       2.026   7.633  18.827  0.00  0.00    +0.000 C 
BRANCH  21  22
ATOM     22  C   UNL     1       1.986   7.974  20.286  0.00  0.00    +0.000 C 
ATOM     23  C   UNL     1       1.113   8.873  20.786  0.00  0.00    +0.000 C 
ATOM     24  C   UNL     1       1.205   9.355  22.177  0.00  0.00    +0.000 C 
ATOM     25  O   UNL     1       1.979   8.948  23.024  0.00  0.00    +0.000 OA
ATOM     26  O   UNL     1       0.304  10.354  22.356  0.00  0.00    +0.000 OA
ATOM     27  C   UNL     1      -0.349  10.677  21.127  0.00  0.00    +0.000 C 
ATOM     28  C   UNL     1      -0.020   9.590  20.126  0.00  0.00    +0.000 C 
BRANCH  28  29
ATOM     29  O   UNL     1       0.370  10.119  18.848  0.00  0.00    +0.000 OA
BRANCH  29  30
ATOM     30  C   UNL     1      -0.606  10.831  18.220  0.00  0.00    +0.000 C 
ATOM     31  C   UNL     1      -1.625   9.925  17.589  0.00  0.00    +0.000 C 
ATOM     32  O   UNL     1      -0.672  12.049  18.194  0.00  0.00    +0.000 OA
ENDBRANCH  29  30
ENDBRANCH  28  29
ENDBRANCH  21  22
ENDBRANCH  13  21
TORSDOF 8
ENDMDL
MODEL 3
REMARK VINA RESULT:      -7.6      1.224      2.292
REMARK  Name = 
REMARK  12 active torsions:
REMARK  status: ('A' for Active; 'I' for Inactive)
REMARK    1  A    between atoms: C_6  and  C_7
REMARK    2  A    between atoms: C_10  and  O_11
REMARK    3  A    between atoms: O_11  and  C_12
REMARK    4  A    between atoms: C_12  and  C_13
REMARK    5  A    between atoms: C_15  and  C_16
REMARK    6  A    between atoms: C_15  and  C_17
REMARK    7  A    between atoms: C_17  and  O_18
REMARK    8  A    between atoms: C_19  and  C_20
REMARK    9  A    between atoms: C_20  and  C_21
REMARK   10  A    between atoms: C_27  and  O_28
REMARK   11  A    between atoms: O_28  and  C_29
REMARK   12  A    between atoms: C_29  and  C_30
REMARK                            x       y       z     vdW  Elec       q    Type
REMARK                         _______ _______ _______ _____ _____    ______ ____
ROOT
ATOM      1  C   UNL     1       1.547   4.570  20.744  0.00  0.00    +0.000 C 
ATOM      2  C   UNL     1       1.868   4.669  19.440  0.00  0.00    +0.000 C 
ATOM      3  C   UNL     1       1.930   3.429  18.578  0.00  0.00    +0.000 C 
ATOM      4  C   UNL     1       3.305   3.215  17.910  0.00  0.00    +0.000 C 
ATOM      5  C   UNL     1       3.922   4.485  17.277  0.00  0.00    +0.000 C 
ATOM      6  C   UNL     1       3.826   5.718  18.230  0.00  0.00    +0.000 C 
ATOM      7  C   UNL     1       4.640   5.525  19.559  0.00  0.00    +0.000 C 
ATOM      8  C   UNL     1       4.295   6.963  17.393  0.00  0.00    +0.000 C 
ATOM      9  C   UNL     1       5.408   6.847  16.333  0.00  0.00    +0.000 C 
ATOM     10  C   UNL     1       5.605   5.503  15.634  0.00  0.00    +0.000 C 
ATOM     11  C   UNL     1       5.385   4.310  16.630  0.00  0.00    +0.000 C 
ATOM     12  C   UNL     1       5.457   2.988  15.837  0.00  0.00    +0.000 C 
ATOM     13  C   UNL     1       2.313   5.948  18.720  0.00  0.00    +0.000 C 
ENDROOT
BRANCH  10  14
ATOM     14  O   UNL     1       6.986   5.384  15.170  0.00  0.00    +0.000 OA
BRANCH  14  15
ATOM     15  C   UNL     1       7.356   5.253  13.886  0.00  0.00    +0.000 C 
ATOM     16  C   UNL     1       6.473   4.239  13.204  0.00  0.00    +0.000 C 
ATOM     17  O   UNL     1       8.305   5.821  13.362  0.00  0.00    +0.000 OA
ENDBRANCH  14  15
ENDBRANCH  10  14
BRANCH  11  18
ATOM     18  C   UNL     1       6.557   4.316  17.668  0.00  0.00    +0.000 C 
BRANCH  18  19
ATOM     19  O   UNL     1       7.871   4.134  17.151  0.00  0.00    +0.000 OA
ATOM     20  H   UNL     1       8.340   3.560  17.789  0.00  0.00    +0.000 HD
ENDBRANCH  18  19
ENDBRANCH  11  18
BRANCH  13  21
ATOM     21  C   UNL     1       2.255   7.290  19.520  0.00  0.00    +0.000 C 
BRANCH  21  22
ATOM     22  C   UNL     1       1.208   7.546  20.563  0.00  0.00    +0.000 C 
ATOM     23  C   UNL     1       0.575   8.733  20.664  0.00  0.00    +0.000 C 
ATOM     24  C   UNL     1      -0.304   9.050  21.806  0.00  0.00    +0.000 C 
ATOM     25  O   UNL     1      -0.624   8.283  22.696  0.00  0.00    +0.000 OA
ATOM     26  O   UNL     1      -0.679  10.352  21.722  0.00  0.00    +0.000 OA
ATOM     27  C   UNL     1      -0.020  11.003  20.635  0.00  0.00    +0.000 C 
ATOM     28  C   UNL     1       0.631   9.937  19.781  0.00  0.00    +0.000 C 
BRANCH  28  29
ATOM     29  O   UNL     1       1.986  10.265  19.429  0.00  0.00    +0.000 OA
BRANCH  29  30
ATOM     30  C   UNL     1       2.149  10.642  18.132  0.00  0.00    +0.000 C 
ATOM     31  C   UNL     1       2.420  12.115  18.019  0.00  0.00    +0.000 C 
ATOM     32  O   UNL     1       2.115   9.883  17.176  0.00  0.00    +0.000 OA
ENDBRANCH  29  30
ENDBRANCH  28  29
ENDBRANCH  21  22
ENDBRANCH  13  21
TORSDOF 8
ENDMDL
MODEL 4
REMARK VINA RESULT:      -7.1      1.096      1.120
REMARK  Name = 
REMARK  12 active torsions:
REMARK  status: ('A' for Active; 'I' for Inactive)
REMARK    1  A    between atoms: C_6  and  C_7
REMARK    2  A    between atoms: C_10  and  O_11
REMARK    3  A    between atoms: O_11  and  C_12
REMARK    4  A    between atoms: C_12  and  C_13
REMARK    5  A    between atoms: C_15  and  C_16
REMARK    6  A    between atoms: C_15  and  C_17
REMARK    7  A    between atoms: C_17  and  O_18
REMARK    8  A    between atoms: C_19  and  C_20
REMARK    9  A    between atoms: C_20  and  C_21
REMARK   10  A    between atoms: C_27  and  O_28
REMARK   11  A    between atoms: O_28  and  C_29
REMARK   12  A    between atoms: C_29  and  C_30
REMARK                            x       y       z     vdW  Elec       q    Type
REMARK                         _______ _______ _______ _____ _____    ______ ____
ROOT
ATOM      1  C   UNL     1       1.196   4.638  20.461  0.00  0.00    +0.000 C 
ATOM      2  C   UNL     1       1.618   4.678  19.183  0.00  0.00    +0.000 C 
ATOM      3  C   UNL     1       1.823   3.396  18.411  0.00  0.00    +0.000 C 
ATOM      4  C   UNL     1       3.259   3.228  17.870  0.00  0.00    +0.000 C 
ATOM      5  C   UNL     1       3.853   4.494  17.207  0.00  0.00    +0.000 C 
ATOM      6  C   UNL     1       3.608   5.773  18.068  0.00  0.00    +0.000 C 
ATOM      7  C   UNL     1       4.317   5.711  19.467  0.00  0.00    +0.000 C 
ATOM      8  C   UNL     1       4.072   6.992  17.192  0.00  0.00    +0.000 C 
ATOM      9  C   UNL     1       5.275   6.882  16.234  0.00  0.00    +0.000 C 
ATOM     10  C   UNL     1       5.606   5.513  15.641  0.00  0.00    +0.000 C 
ATOM     11  C   UNL     1       5.372   4.371  16.692  0.00  0.00    +0.000 C 
ATOM     12  C   UNL     1       5.586   3.012  15.994  0.00  0.00    +0.000 C 
ATOM     13  C   UNL     1       2.048   5.938  18.420  0.00  0.00    +0.000 C 
ENDROOT
BRANCH  10  14
ATOM     14  O   UNL     1       7.026   5.453  15.298  0.00  0.00    +0.000 OA
BRANCH  14  15
ATOM     15  C   UNL     1       7.509   5.327  14.051  0.00  0.00    +0.000 C 
ATOM     16  C   UNL     1       6.640   4.381  13.263  0.00  0.00    +0.000 C 
ATOM     17  O   UNL     1       8.534   5.850  13.634  0.00  0.00    +0.000 OA
ENDBRANCH  14  15
ENDBRANCH  10  14
BRANCH  11  18
ATOM     18  C   UNL     1       6.451   4.512  17.818  0.00  0.00    +0.000 C 
BRANCH  18  19
ATOM     19  O   UNL     1       7.741   3.976  17.538  0.00  0.00    +0.000 OA
ATOM     20  H   UNL     1       7.616   3.016  17.406  0.00  0.00    +0.000 HD
ENDBRANCH  18  19
ENDBRANCH  11  18
BRANCH  13  21
ATOM     21  C   UNL     1       1.847   7.319  19.124  0.00  0.00    +0.000 C 
BRANCH  21  22
ATOM     22  C   UNL     1       2.245   8.608  18.469  0.00  0.00    +0.000 C 
ATOM     23  C   UNL     1       1.790   9.801  18.904  0.00  0.00    +0.000 C 
ATOM     24  C   UNL     1       2.018  11.044  18.142  0.00  0.00    +0.000 C 
ATOM     25  O   UNL     1       2.693  11.151  17.135  0.00  0.00    +0.000 OA
ATOM     26  O   UNL     1       1.326  12.052  18.731  0.00  0.00    +0.000 OA
ATOM     27  C   UNL     1       0.530  11.562  19.811  0.00  0.00    +0.000 C 
ATOM     28  C   UNL     1       0.971  10.143  20.105  0.00  0.00    +0.000 C 
BRANCH  28  29
ATOM     29  O   UNL     1      -0.139   9.243  20.256  0.00  0.00    +0.000 OA
BRANCH  29  30
ATOM     30  C   UNL     1      -0.368   8.851  21.539  0.00  0.00    +0.000 C 
ATOM     31  C   UNL     1      -0.326  10.018  22.484  0.00  0.00    +0.000 C 
ATOM     32  O   UNL     1      -0.612   7.706  21.885  0.00  0.00    +0.000 OA
ENDBRANCH  29  30
ENDBRANCH  28  29
ENDBRANCH  21  22
ENDBRANCH  13  21
TORSDOF 8
ENDMDL
MODEL 5
REMARK VINA RESULT:      -7.1      2.878      9.687
REMARK  Name = 
REMARK  12 active torsions:
REMARK  status: ('A' for Active; 'I' for Inactive)
REMARK    1  A    between atoms: C_6  and  C_7
REMARK    2  A    between atoms: C_10  and  O_11
REMARK    3  A    between atoms: O_11  and  C_12
REMARK    4  A    between atoms: C_12  and  C_13
REMARK    5  A    between atoms: C_15  and  C_16
REMARK    6  A    between atoms: C_15  and  C_17
REMARK    7  A    between atoms: C_17  and  O_18
REMARK    8  A    between atoms: C_19  and  C_20
REMARK    9  A    between atoms: C_20  and  C_21
REMARK   10  A    between atoms: C_27  and  O_28
REMARK   11  A    between atoms: O_28  and  C_29
REMARK   12  A    between atoms: C_29  and  C_30
REMARK                            x       y       z     vdW  Elec       q    Type
REMARK                         _______ _______ _______ _____ _____    ______ ____
ROOT
ATOM      1  C   UNL     1       2.172   9.133  17.689  0.00  0.00    +0.000 C 
ATOM      2  C   UNL     1       1.011   9.240  18.361  0.00  0.00    +0.000 C 
ATOM      3  C   UNL     1      -0.115  10.078  17.803  0.00  0.00    +0.000 C 
ATOM      4  C   UNL     1      -0.572  11.204  18.755  0.00  0.00    +0.000 C 
ATOM      5  C   UNL     1      -0.745  10.774  20.231  0.00  0.00    +0.000 C 
ATOM      6  C   UNL     1       0.461   9.920  20.736  0.00  0.00    +0.000 C 
ATOM      7  C   UNL     1       1.815  10.715  20.730  0.00  0.00    +0.000 C 
ATOM      8  C   UNL     1       0.062   9.387  22.159  0.00  0.00    +0.000 C 
ATOM      9  C   UNL     1      -0.788  10.235  23.126  0.00  0.00    +0.000 C 
ATOM     10  C   UNL     1      -1.763  11.251  22.534  0.00  0.00    +0.000 C 
ATOM     11  C   UNL     1      -1.157  11.940  21.260  0.00  0.00    +0.000 C 
ATOM     12  C   UNL     1      -2.236  12.844  20.631  0.00  0.00    +0.000 C 
ATOM     13  C   UNL     1       0.729   8.672  19.759  0.00  0.00    +0.000 C 
ENDROOT
BRANCH  10  14
ATOM     14  O   UNL     1      -1.999  12.328  23.494  0.00  0.00    +0.000 OA
BRANCH  14  15
ATOM     15  C   UNL     1      -3.201  12.661  23.993  0.00  0.00    +0.000 C 
ATOM     16  C   UNL     1      -3.220  14.129  24.333  0.00  0.00    +0.000 C 
ATOM     17  O   UNL     1      -4.121  11.881  24.201  0.00  0.00    +0.000 OA
ENDBRANCH  14  15
ENDBRANCH  10  14
BRANCH  11  18
ATOM     18  C   UNL     1       0.033  12.852  21.715  0.00  0.00    +0.000 C 
BRANCH  18  19
ATOM     19  O   UNL     1      -0.306  14.137  22.227  0.00  0.00    +0.000 OA
ATOM     20  H   UNL     1      -0.734  13.982  23.093  0.00  0.00    +0.000 HD
ENDBRANCH  18  19
ENDBRANCH  11  18
BRANCH  13  21
ATOM     21  C   UNL     1       1.823   7.765  20.410  0.00  0.00    +0.000 C 
BRANCH  21  22
ATOM     22  C   UNL     1       1.560   6.329  20.754  0.00  0.00    +0.000 C 
ATOM     23  C   UNL     1       2.397   5.340  20.380  0.00  0.00    +0.000 C 
ATOM     24  C   UNL     1       2.041   3.917  20.541  0.00  0.00    +0.000 C 
ATOM     25  O   UNL     1       1.043   3.489  21.092  0.00  0.00    +0.000 OA
ATOM     26  O   UNL     1       2.993   3.156  19.947  0.00  0.00    +0.000 OA
ATOM     27  C   UNL     1       3.955   3.973  19.276  0.00  0.00    +0.000 C 
ATOM     28  C   UNL     1       3.736   5.405  19.719  0.00  0.00    +0.000 C 
BRANCH  28  29
ATOM     29  O   UNL     1       3.731   6.326  18.616  0.00  0.00    +0.000 OA
BRANCH  29  30
ATOM     30  C   UNL     1       4.891   6.349  17.905  0.00  0.00    +0.000 C 
ATOM     31  C   UNL     1       4.634   6.602  16.446  0.00  0.00    +0.000 C 
ATOM     32  O   UNL     1       6.005   6.217  18.385  0.00  0.00    +0.000 OA
ENDBRANCH  29  30
ENDBRANCH  28  29
ENDBRANCH  21  22
ENDBRANCH  13  21
TORSDOF 8
ENDMDL
MODEL 6
REMARK VINA RESULT:      -7.0      2.915      8.524
REMARK  Name = 
REMARK  12 active torsions:
REMARK  status: ('A' for Active; 'I' for Inactive)
REMARK    1  A    between atoms: C_6  and  C_7
REMARK    2  A    between atoms: C_10  and  O_11
REMARK    3  A    between atoms: O_11  and  C_12
REMARK    4  A    between atoms: C_12  and  C_13
REMARK    5  A    between atoms: C_15  and  C_16
REMARK    6  A    between atoms: C_15  and  C_17
REMARK    7  A    between atoms: C_17  and  O_18
REMARK    8  A    between atoms: C_19  and  C_20
REMARK    9  A    between atoms: C_20  and  C_21
REMARK   10  A    between atoms: C_27  and  O_28
REMARK   11  A    between atoms: O_28  and  C_29
REMARK   12  A    between atoms: C_29  and  C_30
REMARK                            x       y       z     vdW  Elec       q    Type
REMARK                         _______ _______ _______ _____ _____    ______ ____
ROOT
ATOM      1  C   UNL     1       0.376   7.164  20.896  0.00  0.00    +0.000 C 
ATOM      2  C   UNL     1       1.043   8.333  20.929  0.00  0.00    +0.000 C 
ATOM      3  C   UNL     1       0.951   9.227  22.143  0.00  0.00    +0.000 C 
ATOM      4  C   UNL     1       0.423  10.642  21.825  0.00  0.00    +0.000 C 
ATOM      5  C   UNL     1       1.049  11.301  20.573  0.00  0.00    +0.000 C 
ATOM      6  C   UNL     1       1.102  10.318  19.361  0.00  0.00    +0.000 C 
ATOM      7  C   UNL     1      -0.323   9.870  18.879  0.00  0.00    +0.000 C 
ATOM      8  C   UNL     1       1.936  11.040  18.241  0.00  0.00    +0.000 C 
ATOM      9  C   UNL     1       1.861  12.566  18.041  0.00  0.00    +0.000 C 
ATOM     10  C   UNL     1       1.533  13.441  19.250  0.00  0.00    +0.000 C 
ATOM     11  C   UNL     1       0.473  12.749  20.177  0.00  0.00    +0.000 C 
ATOM     12  C   UNL     1       0.291  13.611  21.444  0.00  0.00    +0.000 C 
ATOM     13  C   UNL     1       1.834   8.946  19.766  0.00  0.00    +0.000 C 
ENDROOT
BRANCH  10  14
ATOM     14  O   UNL     1       0.919  14.690  18.806  0.00  0.00    +0.000 OA
BRANCH  14  15
ATOM     15  C   UNL     1       1.544  15.879  18.758  0.00  0.00    +0.000 C 
ATOM     16  C   UNL     1       0.525  16.989  18.796  0.00  0.00    +0.000 C 
ATOM     17  O   UNL     1       2.751  16.038  18.638  0.00  0.00    +0.000 OA
ENDBRANCH  14  15
ENDBRANCH  10  14
BRANCH  11  18
ATOM     18  C   UNL     1      -0.895  12.715  19.416  0.00  0.00    +0.000 C 
BRANCH  18  19
ATOM     19  O   UNL     1      -1.722  13.870  19.533  0.00  0.00    +0.000 OA
ATOM     20  H   UNL     1      -2.363  13.822  18.797  0.00  0.00    +0.000 HD
ENDBRANCH  18  19
ENDBRANCH  11  18
BRANCH  13  21
ATOM     21  C   UNL     1       2.012   8.085  18.473  0.00  0.00    +0.000 C 
BRANCH  21  22
ATOM     22  C   UNL     1       3.357   7.864  17.847  0.00  0.00    +0.000 C 
ATOM     23  C   UNL     1       3.822   6.628  17.570  0.00  0.00    +0.000 C 
ATOM     24  C   UNL     1       5.215   6.400  17.143  0.00  0.00    +0.000 C 
ATOM     25  O   UNL     1       6.041   7.263  16.908  0.00  0.00    +0.000 OA
ATOM     26  O   UNL     1       5.442   5.064  17.083  0.00  0.00    +0.000 OA
ATOM     27  C   UNL     1       4.308   4.332  17.552  0.00  0.00    +0.000 C 
ATOM     28  C   UNL     1       3.148   5.298  17.667  0.00  0.00    +0.000 C 
BRANCH  28  29
ATOM     29  O   UNL     1       2.439   5.160  18.909  0.00  0.00    +0.000 OA
BRANCH  29  30
ATOM     30  C   UNL     1       1.552   4.127  18.932  0.00  0.00    +0.000 C 
ATOM     31  C   UNL     1       1.270   3.679  20.338  0.00  0.00    +0.000 C 
ATOM     32  O   UNL     1       1.022   3.643  17.945  0.00  0.00    +0.000 OA
ENDBRANCH  29  30
ENDBRANCH  28  29
ENDBRANCH  21  22
ENDBRANCH  13  21
TORSDOF 8
ENDMDL
MODEL 7
REMARK VINA RESULT:      -6.9      1.114      2.398
REMARK  Name = 
REMARK  12 active torsions:
REMARK  status: ('A' for Active; 'I' for Inactive)
REMARK    1  A    between atoms: C_6  and  C_7
REMARK    2  A    between atoms: C_10  and  O_11
REMARK    3  A    between atoms: O_11  and  C_12
REMARK    4  A    between atoms: C_12  and  C_13
REMARK    5  A    between atoms: C_15  and  C_16
REMARK    6  A    between atoms: C_15  and  C_17
REMARK    7  A    between atoms: C_17  and  O_18
REMARK    8  A    between atoms: C_19  and  C_20
REMARK    9  A    between atoms: C_20  and  C_21
REMARK   10  A    between atoms: C_27  and  O_28
REMARK   11  A    between atoms: O_28  and  C_29
REMARK   12  A    between atoms: C_29  and  C_30
REMARK                            x       y       z     vdW  Elec       q    Type
REMARK                         _______ _______ _______ _____ _____    ______ ____
ROOT
ATOM      1  C   UNL     1       1.751   5.256  20.672  0.00  0.00    +0.000 C 
ATOM      2  C   UNL     1       1.999   5.114  19.357  0.00  0.00    +0.000 C 
ATOM      3  C   UNL     1       2.088   3.736  18.745  0.00  0.00    +0.000 C 
ATOM      4  C   UNL     1       3.438   3.459  18.048  0.00  0.00    +0.000 C 
ATOM      5  C   UNL     1       3.950   4.609  17.148  0.00  0.00    +0.000 C 
ATOM      6  C   UNL     1       3.832   5.998  17.853  0.00  0.00    +0.000 C 
ATOM      7  C   UNL     1       4.721   6.103  19.143  0.00  0.00    +0.000 C 
ATOM      8  C   UNL     1       4.187   7.077  16.767  0.00  0.00    +0.000 C 
ATOM      9  C   UNL     1       5.250   6.809  15.683  0.00  0.00    +0.000 C 
ATOM     10  C   UNL     1       5.487   5.365  15.243  0.00  0.00    +0.000 C 
ATOM     11  C   UNL     1       5.385   4.379  16.460  0.00  0.00    +0.000 C 
ATOM     12  C   UNL     1       5.492   2.934  15.931  0.00  0.00    +0.000 C 
ATOM     13  C   UNL     1       2.336   6.249  18.380  0.00  0.00    +0.000 C 
ENDROOT
BRANCH  10  14
ATOM     14  O   UNL     1       6.848   5.222  14.728  0.00  0.00    +0.000 OA
BRANCH  14  15
ATOM     15  C   UNL     1       7.160   4.805  13.490  0.00  0.00    +0.000 C 
ATOM     16  C   UNL     1       8.255   5.673  12.924  0.00  0.00    +0.000 C 
ATOM     17  O   UNL     1       6.600   3.899  12.887  0.00  0.00    +0.000 OA
ENDBRANCH  14  15
ENDBRANCH  10  14
BRANCH  11  18
ATOM     18  C   UNL     1       6.606   4.639  17.405  0.00  0.00    +0.000 C 
BRANCH  18  19
ATOM     19  O   UNL     1       7.899   4.385  16.865  0.00  0.00    +0.000 OA
ATOM     20  H   UNL     1       8.453   4.084  17.613  0.00  0.00    +0.000 HD
ENDBRANCH  18  19
ENDBRANCH  11  18
BRANCH  13  21
ATOM     21  C   UNL     1       2.242   7.717  18.912  0.00  0.00    +0.000 C 
BRANCH  21  22
ATOM     22  C   UNL     1       1.996   8.021  20.359  0.00  0.00    +0.000 C 
ATOM     23  C   UNL     1       1.122   8.971  20.752  0.00  0.00    +0.000 C 
ATOM     24  C   UNL     1       1.027   9.406  22.158  0.00  0.00    +0.000 C 
ATOM     25  O   UNL     1       1.625   8.917  23.099  0.00  0.00    +0.000 OA
ATOM     26  O   UNL     1       0.185  10.467  22.233  0.00  0.00    +0.000 OA
ATOM     27  C   UNL     1      -0.240  10.874  20.931  0.00  0.00    +0.000 C 
ATOM     28  C   UNL     1       0.164   9.792  19.952  0.00  0.00    +0.000 C 
BRANCH  28  29
ATOM     29  O   UNL     1       0.789  10.324  18.772  0.00  0.00    +0.000 OA
BRANCH  29  30
ATOM     30  C   UNL     1       0.508  11.635  18.536  0.00  0.00    +0.000 C 
ATOM     31  C   UNL     1       1.759  12.465  18.499  0.00  0.00    +0.000 C 
ATOM     32  O   UNL     1      -0.610  12.084  18.343  0.00  0.00    +0.000 OA
ENDBRANCH  29  30
ENDBRANCH  28  29
ENDBRANCH  21  22
ENDBRANCH  13  21
TORSDOF 8
ENDMDL
MODEL 8
REMARK VINA RESULT:      -6.9      2.305      8.212
REMARK  Name = 
REMARK  12 active torsions:
REMARK  status: ('A' for Active; 'I' for Inactive)
REMARK    1  A    between atoms: C_6  and  C_7
REMARK    2  A    between atoms: C_10  and  O_11
REMARK    3  A    between atoms: O_11  and  C_12
REMARK    4  A    between atoms: C_12  and  C_13
REMARK    5  A    between atoms: C_15  and  C_16
REMARK    6  A    between atoms: C_15  and  C_17
REMARK    7  A    between atoms: C_17  and  O_18
REMARK    8  A    between atoms: C_19  and  C_20
REMARK    9  A    between atoms: C_20  and  C_21
REMARK   10  A    between atoms: C_27  and  O_28
REMARK   11  A    between atoms: O_28  and  C_29
REMARK   12  A    between atoms: C_29  and  C_30
REMARK                            x       y       z     vdW  Elec       q    Type
REMARK                         _______ _______ _______ _____ _____    ______ ____
ROOT
ATOM      1  C   UNL     1       1.542   5.302  19.577  0.00  0.00    +0.000 C 
ATOM      2  C   UNL     1       1.888   6.553  19.931  0.00  0.00    +0.000 C 
ATOM      3  C   UNL     1       1.364   7.152  21.216  0.00  0.00    +0.000 C 
ATOM      4  C   UNL     1       0.574   8.461  21.006  0.00  0.00    +0.000 C 
ATOM      5  C   UNL     1       1.237   9.469  20.037  0.00  0.00    +0.000 C 
ATOM      6  C   UNL     1       1.745   8.777  18.733  0.00  0.00    +0.000 C 
ATOM      7  C   UNL     1       0.583   8.148  17.885  0.00  0.00    +0.000 C 
ATOM      8  C   UNL     1       2.566   9.862  17.946  0.00  0.00    +0.000 C 
ATOM      9  C   UNL     1       2.160  11.349  17.966  0.00  0.00    +0.000 C 
ATOM     10  C   UNL     1       1.417  11.881  19.191  0.00  0.00    +0.000 C 
ATOM     11  C   UNL     1       0.407  10.816  19.746  0.00  0.00    +0.000 C 
ATOM     12  C   UNL     1      -0.204  11.354  21.056  0.00  0.00    +0.000 C 
ATOM     13  C   UNL     1       2.703   7.535  19.078  0.00  0.00    +0.000 C 
ENDROOT
BRANCH  10  14
ATOM     14  O   UNL     1       0.608  13.038  18.815  0.00  0.00    +0.000 OA
BRANCH  14  15
ATOM     15  C   UNL     1       0.921  14.316  19.089  0.00  0.00    +0.000 C 
ATOM     16  C   UNL     1      -0.253  15.206  18.768  0.00  0.00    +0.000 C 
ATOM     17  O   UNL     1       2.012  14.708  19.482  0.00  0.00    +0.000 OA
ENDBRANCH  14  15
ENDBRANCH  10  14
BRANCH  11  18
ATOM     18  C   UNL     1      -0.751  10.650  18.705  0.00  0.00    +0.000 C 
BRANCH  18  19
ATOM     19  O   UNL     1      -1.839  11.564  18.807  0.00  0.00    +0.000 OA
ATOM     20  H   UNL     1      -2.528  11.111  19.332  0.00  0.00    +0.000 HD
ENDBRANCH  18  19
ENDBRANCH  11  18
BRANCH  13  21
ATOM     21  C   UNL     1       3.315   7.001  17.741  0.00  0.00    +0.000 C 
BRANCH  21  22
ATOM     22  C   UNL     1       4.729   7.300  17.343  0.00  0.00    +0.000 C 
ATOM     23  C   UNL     1       5.695   6.358  17.371  0.00  0.00    +0.000 C 
ATOM     24  C   UNL     1       7.117   6.697  17.173  0.00  0.00    +0.000 C 
ATOM     25  O   UNL     1       7.556   7.794  16.880  0.00  0.00    +0.000 OA
ATOM     26  O   UNL     1       7.867   5.590  17.403  0.00  0.00    +0.000 OA
ATOM     27  C   UNL     1       7.054   4.508  17.860  0.00  0.00    +0.000 C 
ATOM     28  C   UNL     1       5.606   4.891  17.640  0.00  0.00    +0.000 C 
BRANCH  28  29
ATOM     29  O   UNL     1       4.785   4.618  18.787  0.00  0.00    +0.000 OA
BRANCH  29  30
ATOM     30  C   UNL     1       4.503   3.299  18.969  0.00  0.00    +0.000 C 
ATOM     31  C   UNL     1       3.691   2.750  17.830  0.00  0.00    +0.000 C 
ATOM     32  O   UNL     1       4.885   2.629  19.915  0.00  0.00    +0.000 OA
ENDBRANCH  29  30
ENDBRANCH  28  29
ENDBRANCH  21  22
ENDBRANCH  13  21
TORSDOF 8
ENDMDL
MODEL 9
REMARK VINA RESULT:      -6.8      3.126      8.405
REMARK  Name = 
REMARK  12 active torsions:
REMARK  status: ('A' for Active; 'I' for Inactive)
REMARK    1  A    between atoms: C_6  and  C_7
REMARK    2  A    between atoms: C_10  and  O_11
REMARK    3  A    between atoms: O_11  and  C_12
REMARK    4  A    between atoms: C_12  and  C_13
REMARK    5  A    between atoms: C_15  and  C_16
REMARK    6  A    between atoms: C_15  and  C_17
REMARK    7  A    between atoms: C_17  and  O_18
REMARK    8  A    between atoms: C_19  and  C_20
REMARK    9  A    between atoms: C_20  and  C_21
REMARK   10  A    between atoms: C_27  and  O_28
REMARK   11  A    between atoms: O_28  and  C_29
REMARK   12  A    between atoms: C_29  and  C_30
REMARK                            x       y       z     vdW  Elec       q    Type
REMARK                         _______ _______ _______ _____ _____    ______ ____
ROOT
ATOM      1  C   UNL     1      -0.515   8.088  21.084  0.00  0.00    +0.000 C 
ATOM      2  C   UNL     1       0.404   9.071  21.078  0.00  0.00    +0.000 C 
ATOM      3  C   UNL     1       0.436  10.088  22.196  0.00  0.00    +0.000 C 
ATOM      4  C   UNL     1       0.280  11.543  21.707  0.00  0.00    +0.000 C 
ATOM      5  C   UNL     1       1.133  11.905  20.468  0.00  0.00    +0.000 C 
ATOM      6  C   UNL     1       1.041  10.812  19.356  0.00  0.00    +0.000 C 
ATOM      7  C   UNL     1      -0.411  10.650  18.781  0.00  0.00    +0.000 C 
ATOM      8  C   UNL     1       2.100  11.202  18.263  0.00  0.00    +0.000 C 
ATOM      9  C   UNL     1       2.401  12.676  17.923  0.00  0.00    +0.000 C 
ATOM     10  C   UNL     1       2.201  13.726  19.015  0.00  0.00    +0.000 C 
ATOM     11  C   UNL     1       0.943  13.396  19.893  0.00  0.00    +0.000 C 
ATOM     12  C   UNL     1       0.877  14.406  21.057  0.00  0.00    +0.000 C 
ATOM     13  C   UNL     1       1.399   9.362  19.947  0.00  0.00    +0.000 C 
ENDROOT
BRANCH  10  14
ATOM     14  O   UNL     1       1.931  15.027  18.407  0.00  0.00    +0.000 OA
BRANCH  14  15
ATOM     15  C   UNL     1       2.770  16.076  18.434  0.00  0.00    +0.000 C 
ATOM     16  C   UNL     1       4.188  15.588  18.587  0.00  0.00    +0.000 C 
ATOM     17  O   UNL     1       2.432  17.252  18.402  0.00  0.00    +0.000 OA
ENDBRANCH  14  15
ENDBRANCH  10  14
BRANCH  11  18
ATOM     18  C   UNL     1      -0.336  13.591  19.011  0.00  0.00    +0.000 C 
BRANCH  18  19
ATOM     19  O   UNL     1      -1.316  14.504  19.498  0.00  0.00    +0.000 OA
ATOM     20  H   UNL     1      -2.161  14.014  19.515  0.00  0.00    +0.000 HD
ENDBRANCH  18  19
ENDBRANCH  11  18
BRANCH  13  21
ATOM     21  C   UNL     1       1.463   8.349  18.757  0.00  0.00    +0.000 C 
BRANCH  21  22
ATOM     22  C   UNL     1       2.757   7.989  18.092  0.00  0.00    +0.000 C 
ATOM     23  C   UNL     1       3.277   6.746  18.164  0.00  0.00    +0.000 C 
ATOM     24  C   UNL     1       4.639   6.444  17.684  0.00  0.00    +0.000 C 
ATOM     25  O   UNL     1       5.380   7.218  17.106  0.00  0.00    +0.000 OA
ATOM     26  O   UNL     1       4.948   5.166  18.018  0.00  0.00    +0.000 OA
ATOM     27  C   UNL     1       3.912   4.580  18.809  0.00  0.00    +0.000 C 
ATOM     28  C   UNL     1       2.705   5.492  18.740  0.00  0.00    +0.000 C 
BRANCH  28  29
ATOM     29  O   UNL     1       2.121   5.728  20.032  0.00  0.00    +0.000 OA
BRANCH  29  30
ATOM     30  C   UNL     1       1.828   4.595  20.726  0.00  0.00    +0.000 C 
ATOM     31  C   UNL     1       0.710   3.829  20.078  0.00  0.00    +0.000 C 
ATOM     32  O   UNL     1       2.414   4.220  21.729  0.00  0.00    +0.000 OA
ENDBRANCH  29  30
ENDBRANCH  28  29
ENDBRANCH  21  22
ENDBRANCH  13  21
TORSDOF 8
ENDMDL
