MODEL 1
REMARK VINA RESULT:      -8.6      0.000      0.000
REMARK  Name = 
REMARK  8 active torsions:
REMARK  status: ('A' for Active; 'I' for Inactive)
REMARK    1  A    between atoms: C_2  and  CA_15
REMARK    2  A    between atoms: N_3  and  CA_4
REMARK    3  A    between atoms: CA_4  and  C_5
REMARK    4  A    between atoms: CA_4  and  CB_7
REMARK    5  A    between atoms: C_5  and  O_6
REMARK    6  A    between atoms: CB_7  and  OG1_8
REMARK    7  A    between atoms: CB_7  and  CG2_9
REMARK    8  A    between atoms: C_17  and  C_18
REMARK                            x       y       z     vdW  Elec       q    Type
REMARK                         _______ _______ _______ _____ _____    ______ ____
ROOT
ATOM      1  O   UNL     1       5.795   4.040  19.298  0.00  0.00    +0.000 OA
ATOM      2  C   UNL     1       4.824   3.552  18.720  0.00  0.00    +0.000 C 
ATOM      3  N   UNL     1       4.464   3.940  17.449  0.00  0.00    +0.000 N 
ATOM      4  H   UNL     1       3.663   3.508  17.010  0.00  0.00    +0.000 HD
ENDROOT
BRANCH   2   5
ATOM      5  CA  UNL     1       3.978   2.427  19.372  0.00  0.00    +0.000 C 
ATOM      6  C   UNL     1       3.171   2.896  20.589  0.00  0.00    +0.000 C 
ATOM      7  C   UNL     1       1.850   3.605  20.218  0.00  0.00    +0.000 C 
ATOM      8  C   UNL     1       1.059   2.617  19.334  0.00  0.00    +0.000 C 
ATOM      9  C   UNL     1       1.852   2.178  18.104  0.00  0.00    +0.000 C 
ATOM     10  N   UNL     1       3.163   1.638  18.428  0.00  0.00    +0.000 NA
ATOM     11  H   UNL     1       3.701   1.371  17.606  0.00  0.00    +0.000 HD
BRANCH   7  12
ATOM     12  C   UNL     1       1.988   5.028  19.676  0.00  0.00    +0.000 A 
ATOM     13  C   UNL     1       1.914   5.316  18.301  0.00  0.00    +0.000 A 
ATOM     14  C   UNL     1       1.990   6.625  17.821  0.00  0.00    +0.000 A 
ATOM     15  C   UNL     1       2.127   7.688  18.704  0.00  0.00    +0.000 A 
ATOM     16  C   UNL     1       2.168   7.440  20.069  0.00  0.00    +0.000 A 
ATOM     17  C   UNL     1       2.080   6.131  20.547  0.00  0.00    +0.000 A 
ENDBRANCH   7  12
ENDBRANCH   2   5
BRANCH   3  18
ATOM     18  CA  UNL     1       5.239   4.899  16.643  0.00  0.00    +0.000 C 
BRANCH  18  19
ATOM     19  C   UNL     1       5.570   6.136  17.521  0.00  0.00    +0.000 C 
BRANCH  19  20
ATOM     20  O   UNL     1       6.369   7.142  16.903  0.00  0.00    +0.000 OA
ATOM     21  H   UNL     1       6.358   7.027  15.943  0.00  0.00    +0.000 HD
ENDBRANCH  19  20
ENDBRANCH  18  19
BRANCH  18  22
ATOM     22  CB  UNL     1       6.495   4.180  16.041  0.00  0.00    +0.000 C 
BRANCH  22  23
ATOM     23  CG2 UNL     1       6.607   4.339  14.531  0.00  0.00    +0.000 A 
ATOM     24  C   UNL     1       5.888   3.539  13.629  0.00  0.00    +0.000 A 
ATOM     25  C   UNL     1       6.217   3.533  12.269  0.00  0.00    +0.000 A 
ATOM     26  C   UNL     1       7.234   4.356  11.790  0.00  0.00    +0.000 A 
ATOM     27  C   UNL     1       7.889   5.224  12.657  0.00  0.00    +0.000 A 
ATOM     28  C   UNL     1       7.562   5.233  14.012  0.00  0.00    +0.000 A 
ENDBRANCH  22  23
BRANCH  22  29
ATOM     29  OG1 UNL     1       7.669   4.648  16.730  0.00  0.00    +0.000 OA
ATOM     30  HG1 UNL     1       8.061   3.889  17.195  0.00  0.00    +0.000 HD
ENDBRANCH  22  29
ENDBRANCH  18  22
ENDBRANCH   3  18
TORSDOF 8
ENDMDL
MODEL 2
REMARK VINA RESULT:      -8.5      1.560      3.238
REMARK  Name = 
REMARK  8 active torsions:
REMARK  status: ('A' for Active; 'I' for Inactive)
REMARK    1  A    between atoms: C_2  and  CA_15
REMARK    2  A    between atoms: N_3  and  CA_4
REMARK    3  A    between atoms: CA_4  and  C_5
REMARK    4  A    between atoms: CA_4  and  CB_7
REMARK    5  A    between atoms: C_5  and  O_6
REMARK    6  A    between atoms: CB_7  and  OG1_8
REMARK    7  A    between atoms: CB_7  and  CG2_9
REMARK    8  A    between atoms: C_17  and  C_18
REMARK                            x       y       z     vdW  Elec       q    Type
REMARK                         _______ _______ _______ _____ _____    ______ ____
ROOT
ATOM      1  O   UNL     1       5.336   4.097  19.684  0.00  0.00    +0.000 OA
ATOM      2  C   UNL     1       4.751   3.317  18.933  0.00  0.00    +0.000 C 
ATOM      3  N   UNL     1       4.967   3.317  17.574  0.00  0.00    +0.000 N 
ATOM      4  H   UNL     1       4.469   2.655  16.996  0.00  0.00    +0.000 HD
ENDROOT
BRANCH   2   5
ATOM      5  CA  UNL     1       3.773   2.248  19.485  0.00  0.00    +0.000 C 
ATOM      6  C   UNL     1       2.883   2.761  20.623  0.00  0.00    +0.000 C 
ATOM      7  C   UNL     1       1.655   3.561  20.136  0.00  0.00    +0.000 C 
ATOM      8  C   UNL     1       0.891   2.634  19.165  0.00  0.00    +0.000 C 
ATOM      9  C   UNL     1       1.769   2.152  18.013  0.00  0.00    +0.000 C 
ATOM     10  N   UNL     1       3.003   1.522  18.455  0.00  0.00    +0.000 NA
ATOM     11  H   UNL     1       3.600   1.225  17.686  0.00  0.00    +0.000 HD
BRANCH   7  12
ATOM     12  C   UNL     1       1.940   4.975  19.629  0.00  0.00    +0.000 A 
ATOM     13  C   UNL     1       2.050   5.271  18.258  0.00  0.00    +0.000 A 
ATOM     14  C   UNL     1       2.260   6.575  17.804  0.00  0.00    +0.000 A 
ATOM     15  C   UNL     1       2.350   7.625  18.708  0.00  0.00    +0.000 A 
ATOM     16  C   UNL     1       2.211   7.371  20.065  0.00  0.00    +0.000 A 
ATOM     17  C   UNL     1       1.989   6.067  20.516  0.00  0.00    +0.000 A 
ENDBRANCH   7  12
ENDBRANCH   2   5
BRANCH   3  18
ATOM     18  CA  UNL     1       5.960   4.178  16.910  0.00  0.00    +0.000 C 
BRANCH  18  19
ATOM     19  C   UNL     1       6.085   3.743  15.425  0.00  0.00    +0.000 C 
BRANCH  19  20
ATOM     20  O   UNL     1       7.018   4.477  14.637  0.00  0.00    +0.000 OA
ATOM     21  H   UNL     1       6.617   4.716  13.789  0.00  0.00    +0.000 HD
ENDBRANCH  19  20
ENDBRANCH  18  19
BRANCH  18  22
ATOM     22  CB  UNL     1       5.563   5.682  17.109  0.00  0.00    +0.000 C 
BRANCH  22  23
ATOM     23  CG2 UNL     1       6.729   6.552  17.557  0.00  0.00    +0.000 A 
ATOM     24  C   UNL     1       7.627   6.159  18.564  0.00  0.00    +0.000 A 
ATOM     25  C   UNL     1       8.509   7.086  19.127  0.00  0.00    +0.000 A 
ATOM     26  C   UNL     1       8.537   8.400  18.664  0.00  0.00    +0.000 A 
ATOM     27  C   UNL     1       7.723   8.777  17.602  0.00  0.00    +0.000 A 
ATOM     28  C   UNL     1       6.843   7.855  17.038  0.00  0.00    +0.000 A 
ENDBRANCH  22  23
BRANCH  22  29
ATOM     29  OG1 UNL     1       4.954   6.163  15.898  0.00  0.00    +0.000 OA
ATOM     30  HG1 UNL     1       5.667   6.445  15.300  0.00  0.00    +0.000 HD
ENDBRANCH  22  29
ENDBRANCH  18  22
ENDBRANCH   3  18
TORSDOF 8
ENDMDL
MODEL 3
REMARK VINA RESULT:      -8.3      1.568      3.372
REMARK  Name = 
REMARK  8 active torsions:
REMARK  status: ('A' for Active; 'I' for Inactive)
REMARK    1  A    between atoms: C_2  and  CA_15
REMARK    2  A    between atoms: N_3  and  CA_4
REMARK    3  A    between atoms: CA_4  and  C_5
REMARK    4  A    between atoms: CA_4  and  CB_7
REMARK    5  A    between atoms: C_5  and  O_6
REMARK    6  A    between atoms: CB_7  and  OG1_8
REMARK    7  A    between atoms: CB_7  and  CG2_9
REMARK    8  A    between atoms: C_17  and  C_18
REMARK                            x       y       z     vdW  Elec       q    Type
REMARK                         _______ _______ _______ _____ _____    ______ ____
ROOT
ATOM      1  O   UNL     1       5.369   3.954  19.682  0.00  0.00    +0.000 OA
ATOM      2  C   UNL     1       4.737   3.236  18.907  0.00  0.00    +0.000 C 
ATOM      3  N   UNL     1       4.900   3.319  17.543  0.00  0.00    +0.000 N 
ATOM      4  H   UNL     1       4.365   2.706  16.944  0.00  0.00    +0.000 HD
ENDROOT
BRANCH   2   5
ATOM      5  CA  UNL     1       3.758   2.152  19.428  0.00  0.00    +0.000 C 
ATOM      6  C   UNL     1       2.820   2.656  20.532  0.00  0.00    +0.000 C 
ATOM      7  C   UNL     1       1.596   3.433  19.997  0.00  0.00    +0.000 C 
ATOM      8  C   UNL     1       0.883   2.490  19.004  0.00  0.00    +0.000 C 
ATOM      9  C   UNL     1       1.809   2.017  17.886  0.00  0.00    +0.000 C 
ATOM     10  N   UNL     1       3.038   1.409  18.375  0.00  0.00    +0.000 NA
ATOM     11  H   UNL     1       3.666   1.120  17.629  0.00  0.00    +0.000 HD
BRANCH   7  12
ATOM     12  C   UNL     1       1.877   4.849  19.494  0.00  0.00    +0.000 A 
ATOM     13  C   UNL     1       2.242   5.893  20.363  0.00  0.00    +0.000 A 
ATOM     14  C   UNL     1       2.546   7.171  19.888  0.00  0.00    +0.000 A 
ATOM     15  C   UNL     1       2.511   7.438  18.525  0.00  0.00    +0.000 A 
ATOM     16  C   UNL     1       2.189   6.420  17.639  0.00  0.00    +0.000 A 
ATOM     17  C   UNL     1       1.896   5.140  18.116  0.00  0.00    +0.000 A 
ENDBRANCH   7  12
ENDBRANCH   2   5
BRANCH   3  18
ATOM     18  CA  UNL     1       5.885   4.202  16.895  0.00  0.00    +0.000 C 
BRANCH  18  19
ATOM     19  C   UNL     1       6.166   3.672  15.464  0.00  0.00    +0.000 C 
BRANCH  19  20
ATOM     20  O   UNL     1       7.077   4.440  14.682  0.00  0.00    +0.000 OA
ATOM     21  H   UNL     1       7.708   3.854  14.241  0.00  0.00    +0.000 HD
ENDBRANCH  19  20
ENDBRANCH  18  19
BRANCH  18  22
ATOM     22  CB  UNL     1       5.371   5.683  16.945  0.00  0.00    +0.000 C 
BRANCH  22  23
ATOM     23  CG2 UNL     1       6.362   6.636  17.599  0.00  0.00    +0.000 A 
ATOM     24  C   UNL     1       6.488   7.981  17.215  0.00  0.00    +0.000 A 
ATOM     25  C   UNL     1       7.580   8.741  17.645  0.00  0.00    +0.000 A 
ATOM     26  C   UNL     1       8.531   8.184  18.497  0.00  0.00    +0.000 A 
ATOM     27  C   UNL     1       8.366   6.884  18.963  0.00  0.00    +0.000 A 
ATOM     28  C   UNL     1       7.278   6.124  18.537  0.00  0.00    +0.000 A 
ENDBRANCH  22  23
BRANCH  22  29
ATOM     29  OG1 UNL     1       5.014   6.092  15.612  0.00  0.00    +0.000 OA
ATOM     30  HG1 UNL     1       5.380   5.437  14.994  0.00  0.00    +0.000 HD
ENDBRANCH  22  29
ENDBRANCH  18  22
ENDBRANCH   3  18
TORSDOF 8
ENDMDL
MODEL 4
REMARK VINA RESULT:      -8.2      0.943      1.620
REMARK  Name = 
REMARK  8 active torsions:
REMARK  status: ('A' for Active; 'I' for Inactive)
REMARK    1  A    between atoms: C_2  and  CA_15
REMARK    2  A    between atoms: N_3  and  CA_4
REMARK    3  A    between atoms: CA_4  and  C_5
REMARK    4  A    between atoms: CA_4  and  CB_7
REMARK    5  A    between atoms: C_5  and  O_6
REMARK    6  A    between atoms: CB_7  and  OG1_8
REMARK    7  A    between atoms: CB_7  and  CG2_9
REMARK    8  A    between atoms: C_17  and  C_18
REMARK                            x       y       z     vdW  Elec       q    Type
REMARK                         _______ _______ _______ _____ _____    ______ ____
ROOT
ATOM      1  O   UNL     1       5.300   4.547  19.934  0.00  0.00    +0.000 OA
ATOM      2  C   UNL     1       4.950   3.801  19.020  0.00  0.00    +0.000 C 
ATOM      3  N   UNL     1       5.366   3.998  17.723  0.00  0.00    +0.000 N 
ATOM      4  H   UNL     1       5.060   3.358  17.004  0.00  0.00    +0.000 HD
ENDROOT
BRANCH   2   5
ATOM      5  CA  UNL     1       4.061   2.559  19.287  0.00  0.00    +0.000 C 
ATOM      6  C   UNL     1       3.018   2.780  20.390  0.00  0.00    +0.000 C 
ATOM      7  C   UNL     1       1.752   3.519  19.904  0.00  0.00    +0.000 C 
ATOM      8  C   UNL     1       1.194   2.696  18.723  0.00  0.00    +0.000 C 
ATOM      9  C   UNL     1       2.222   2.508  17.611  0.00  0.00    +0.000 C 
ATOM     10  N   UNL     1       3.479   1.942  18.079  0.00  0.00    +0.000 NA
ATOM     11  H   UNL     1       4.173   1.842  17.341  0.00  0.00    +0.000 HD
BRANCH   7  12
ATOM     12  C   UNL     1       1.911   5.020  19.660  0.00  0.00    +0.000 A 
ATOM     13  C   UNL     1       2.104   5.553  18.373  0.00  0.00    +0.000 A 
ATOM     14  C   UNL     1       2.197   6.929  18.156  0.00  0.00    +0.000 A 
ATOM     15  C   UNL     1       2.083   7.816  19.219  0.00  0.00    +0.000 A 
ATOM     16  C   UNL     1       1.857   7.323  20.496  0.00  0.00    +0.000 A 
ATOM     17  C   UNL     1       1.753   5.946  20.709  0.00  0.00    +0.000 A 
ENDBRANCH   7  12
ENDBRANCH   2   5
BRANCH   3  18
ATOM     18  CA  UNL     1       6.316   5.051  17.325  0.00  0.00    +0.000 C 
BRANCH  18  19
ATOM     19  C   UNL     1       7.739   4.437  17.250  0.00  0.00    +0.000 C 
BRANCH  19  20
ATOM     20  O   UNL     1       8.469   4.403  18.474  0.00  0.00    +0.000 OA
ATOM     21  H   UNL     1       9.128   3.695  18.445  0.00  0.00    +0.000 HD
ENDBRANCH  19  20
ENDBRANCH  18  19
BRANCH  18  22
ATOM     22  CB  UNL     1       5.830   5.717  15.992  0.00  0.00    +0.000 C 
BRANCH  22  23
ATOM     23  CG2 UNL     1       6.361   5.018  14.748  0.00  0.00    +0.000 A 
ATOM     24  C   UNL     1       7.504   5.458  14.060  0.00  0.00    +0.000 A 
ATOM     25  C   UNL     1       7.799   4.961  12.786  0.00  0.00    +0.000 A 
ATOM     26  C   UNL     1       6.986   3.990  12.206  0.00  0.00    +0.000 A 
ATOM     27  C   UNL     1       5.907   3.474  12.917  0.00  0.00    +0.000 A 
ATOM     28  C   UNL     1       5.611   3.968  14.187  0.00  0.00    +0.000 A 
ENDBRANCH  22  23
BRANCH  22  29
ATOM     29  OG1 UNL     1       4.392   5.788  16.009  0.00  0.00    +0.000 OA
ATOM     30  HG1 UNL     1       4.139   6.472  16.651  0.00  0.00    +0.000 HD
ENDBRANCH  22  29
ENDBRANCH  18  22
ENDBRANCH   3  18
TORSDOF 8
ENDMDL
MODEL 5
REMARK VINA RESULT:      -8.0      1.587      2.456
REMARK  Name = 
REMARK  8 active torsions:
REMARK  status: ('A' for Active; 'I' for Inactive)
REMARK    1  A    between atoms: C_2  and  CA_15
REMARK    2  A    between atoms: N_3  and  CA_4
REMARK    3  A    between atoms: CA_4  and  C_5
REMARK    4  A    between atoms: CA_4  and  CB_7
REMARK    5  A    between atoms: C_5  and  O_6
REMARK    6  A    between atoms: CB_7  and  OG1_8
REMARK    7  A    between atoms: CB_7  and  CG2_9
REMARK    8  A    between atoms: C_17  and  C_18
REMARK                            x       y       z     vdW  Elec       q    Type
REMARK                         _______ _______ _______ _____ _____    ______ ____
ROOT
ATOM      1  O   UNL     1       4.706   5.475  20.090  0.00  0.00    +0.000 OA
ATOM      2  C   UNL     1       5.163   4.523  19.457  0.00  0.00    +0.000 C 
ATOM      3  N   UNL     1       6.368   4.602  18.795  0.00  0.00    +0.000 N 
ATOM      4  H   UNL     1       6.708   3.795  18.293  0.00  0.00    +0.000 HD
ENDROOT
BRANCH   2   5
ATOM      5  CA  UNL     1       4.432   3.157  19.414  0.00  0.00    +0.000 C 
ATOM      6  C   UNL     1       3.118   3.141  20.205  0.00  0.00    +0.000 C 
ATOM      7  C   UNL     1       1.925   3.748  19.434  0.00  0.00    +0.000 C 
ATOM      8  C   UNL     1       1.821   2.964  18.108  0.00  0.00    +0.000 C 
ATOM      9  C   UNL     1       3.119   3.010  17.305  0.00  0.00    +0.000 C 
ATOM     10  N   UNL     1       4.281   2.576  18.065  0.00  0.00    +0.000 NA
ATOM     11  H   UNL     1       5.150   2.633  17.537  0.00  0.00    +0.000 HD
BRANCH   7  12
ATOM     12  C   UNL     1       1.915   5.272  19.316  0.00  0.00    +0.000 A 
ATOM     13  C   UNL     1       1.711   6.107  20.429  0.00  0.00    +0.000 A 
ATOM     14  C   UNL     1       1.756   7.499  20.320  0.00  0.00    +0.000 A 
ATOM     15  C   UNL     1       2.023   8.097  19.095  0.00  0.00    +0.000 A 
ATOM     16  C   UNL     1       2.264   7.300  17.985  0.00  0.00    +0.000 A 
ATOM     17  C   UNL     1       2.230   5.908  18.099  0.00  0.00    +0.000 A 
ENDBRANCH   7  12
ENDBRANCH   2   5
BRANCH   3  18
ATOM     18  CA  UNL     1       7.246   5.783  18.847  0.00  0.00    +0.000 C 
BRANCH  18  19
ATOM     19  C   UNL     1       8.506   5.432  19.683  0.00  0.00    +0.000 C 
BRANCH  19  20
ATOM     20  O   UNL     1       8.292   5.230  21.078  0.00  0.00    +0.000 OA
ATOM     21  H   UNL     1       8.468   6.051  21.559  0.00  0.00    +0.000 HD
ENDBRANCH  19  20
ENDBRANCH  18  19
BRANCH  18  22
ATOM     22  CB  UNL     1       7.556   6.268  17.388  0.00  0.00    +0.000 C 
BRANCH  22  23
ATOM     23  CG2 UNL     1       6.752   5.526  16.329  0.00  0.00    +0.000 A 
ATOM     24  C   UNL     1       7.268   4.435  15.610  0.00  0.00    +0.000 A 
ATOM     25  C   UNL     1       6.607   3.959  14.474  0.00  0.00    +0.000 A 
ATOM     26  C   UNL     1       5.404   4.534  14.069  0.00  0.00    +0.000 A 
ATOM     27  C   UNL     1       4.832   5.549  14.828  0.00  0.00    +0.000 A 
ATOM     28  C   UNL     1       5.489   6.025  15.962  0.00  0.00    +0.000 A 
ENDBRANCH  22  23
BRANCH  22  29
ATOM     29  OG1 UNL     1       7.362   7.692  17.325  0.00  0.00    +0.000 OA
ATOM     30  HG1 UNL     1       6.767   7.877  16.578  0.00  0.00    +0.000 HD
ENDBRANCH  22  29
ENDBRANCH  18  22
ENDBRANCH   3  18
TORSDOF 8
ENDMDL
MODEL 6
REMARK VINA RESULT:      -8.0      0.207      1.347
REMARK  Name = 
REMARK  8 active torsions:
REMARK  status: ('A' for Active; 'I' for Inactive)
REMARK    1  A    between atoms: C_2  and  CA_15
REMARK    2  A    between atoms: N_3  and  CA_4
REMARK    3  A    between atoms: CA_4  and  C_5
REMARK    4  A    between atoms: CA_4  and  CB_7
REMARK    5  A    between atoms: C_5  and  O_6
REMARK    6  A    between atoms: CB_7  and  OG1_8
REMARK    7  A    between atoms: CB_7  and  CG2_9
REMARK    8  A    between atoms: C_17  and  C_18
REMARK                            x       y       z     vdW  Elec       q    Type
REMARK                         _______ _______ _______ _____ _____    ______ ____
ROOT
ATOM      1  O   UNL     1       5.657   4.178  19.284  0.00  0.00    +0.000 OA
ATOM      2  C   UNL     1       4.782   3.578  18.660  0.00  0.00    +0.000 C 
ATOM      3  N   UNL     1       4.508   3.859  17.341  0.00  0.00    +0.000 N 
ATOM      4  H   UNL     1       3.785   3.337  16.866  0.00  0.00    +0.000 HD
ENDROOT
BRANCH   2   5
ATOM      5  CA  UNL     1       3.970   2.429  19.313  0.00  0.00    +0.000 C 
ATOM      6  C   UNL     1       3.140   2.876  20.522  0.00  0.00    +0.000 C 
ATOM      7  C   UNL     1       1.798   3.539  20.140  0.00  0.00    +0.000 C 
ATOM      8  C   UNL     1       1.047   2.521  19.256  0.00  0.00    +0.000 C 
ATOM      9  C   UNL     1       1.861   2.104  18.033  0.00  0.00    +0.000 C 
ATOM     10  N   UNL     1       3.188   1.608  18.368  0.00  0.00    +0.000 NA
ATOM     11  H   UNL     1       3.739   1.356  17.550  0.00  0.00    +0.000 HD
BRANCH   7  12
ATOM     12  C   UNL     1       1.893   4.964  19.592  0.00  0.00    +0.000 A 
ATOM     13  C   UNL     1       2.179   6.065  20.418  0.00  0.00    +0.000 A 
ATOM     14  C   UNL     1       2.315   7.355  19.899  0.00  0.00    +0.000 A 
ATOM     15  C   UNL     1       2.184   7.579  18.534  0.00  0.00    +0.000 A 
ATOM     16  C   UNL     1       1.938   6.506  17.689  0.00  0.00    +0.000 A 
ATOM     17  C   UNL     1       1.814   5.216  18.209  0.00  0.00    +0.000 A 
ENDBRANCH   7  12
ENDBRANCH   2   5
BRANCH   3  18
ATOM     18  CA  UNL     1       5.276   4.828  16.541  0.00  0.00    +0.000 C 
BRANCH  18  19
ATOM     19  C   UNL     1       5.377   6.160  17.332  0.00  0.00    +0.000 C 
BRANCH  19  20
ATOM     20  O   UNL     1       6.137   7.195  16.714  0.00  0.00    +0.000 OA
ATOM     21  H   UNL     1       6.809   7.521  17.329  0.00  0.00    +0.000 HD
ENDBRANCH  19  20
ENDBRANCH  18  19
BRANCH  18  22
ATOM     22  CB  UNL     1       6.660   4.203  16.151  0.00  0.00    +0.000 C 
BRANCH  22  23
ATOM     23  CG2 UNL     1       6.929   4.238  14.653  0.00  0.00    +0.000 A 
ATOM     24  C   UNL     1       7.818   5.151  14.062  0.00  0.00    +0.000 A 
ATOM     25  C   UNL     1       7.833   5.328  12.675  0.00  0.00    +0.000 A 
ATOM     26  C   UNL     1       6.997   4.567  11.861  0.00  0.00    +0.000 A 
ATOM     27  C   UNL     1       6.183   3.591  12.425  0.00  0.00    +0.000 A 
ATOM     28  C   UNL     1       6.166   3.411  13.807  0.00  0.00    +0.000 A 
ENDBRANCH  22  23
BRANCH  22  29
ATOM     29  OG1 UNL     1       7.692   4.860  16.909  0.00  0.00    +0.000 OA
ATOM     30  HG1 UNL     1       7.352   5.003  17.808  0.00  0.00    +0.000 HD
ENDBRANCH  22  29
ENDBRANCH  18  22
ENDBRANCH   3  18
TORSDOF 8
ENDMDL
MODEL 7
REMARK VINA RESULT:      -8.0      1.106      1.562
REMARK  Name = 
REMARK  8 active torsions:
REMARK  status: ('A' for Active; 'I' for Inactive)
REMARK    1  A    between atoms: C_2  and  CA_15
REMARK    2  A    between atoms: N_3  and  CA_4
REMARK    3  A    between atoms: CA_4  and  C_5
REMARK    4  A    between atoms: CA_4  and  CB_7
REMARK    5  A    between atoms: C_5  and  O_6
REMARK    6  A    between atoms: CB_7  and  OG1_8
REMARK    7  A    between atoms: CB_7  and  CG2_9
REMARK    8  A    between atoms: C_17  and  C_18
REMARK                            x       y       z     vdW  Elec       q    Type
REMARK                         _______ _______ _______ _____ _____    ______ ____
ROOT
ATOM      1  O   UNL     1       3.603   3.101  16.961  0.00  0.00    +0.000 OA
ATOM      2  C   UNL     1       4.000   3.038  18.125  0.00  0.00    +0.000 C 
ATOM      3  N   UNL     1       5.084   3.764  18.563  0.00  0.00    +0.000 N 
ATOM      4  H   UNL     1       5.372   3.688  19.528  0.00  0.00    +0.000 HD
ENDROOT
BRANCH   2   5
ATOM      5  CA  UNL     1       3.264   2.176  19.182  0.00  0.00    +0.000 C 
ATOM      6  C   UNL     1       3.017   2.910  20.506  0.00  0.00    +0.000 C 
ATOM      7  C   UNL     1       1.783   3.838  20.477  0.00  0.00    +0.000 C 
ATOM      8  C   UNL     1       0.586   2.956  20.063  0.00  0.00    +0.000 C 
ATOM      9  C   UNL     1       0.819   2.253  18.727  0.00  0.00    +0.000 C 
ATOM     10  N   UNL     1       2.056   1.487  18.689  0.00  0.00    +0.000 NA
ATOM     11  H   UNL     1       2.223   1.041  17.790  0.00  0.00    +0.000 HD
BRANCH   7  12
ATOM     12  C   UNL     1       1.953   5.146  19.704  0.00  0.00    +0.000 A 
ATOM     13  C   UNL     1       2.308   6.350  20.340  0.00  0.00    +0.000 A 
ATOM     14  C   UNL     1       2.511   7.528  19.617  0.00  0.00    +0.000 A 
ATOM     15  C   UNL     1       2.381   7.533  18.234  0.00  0.00    +0.000 A 
ATOM     16  C   UNL     1       2.066   6.353  17.575  0.00  0.00    +0.000 A 
ATOM     17  C   UNL     1       1.875   5.174  18.298  0.00  0.00    +0.000 A 
ENDBRANCH   7  12
ENDBRANCH   2   5
BRANCH   3  18
ATOM     18  CA  UNL     1       5.810   4.729  17.719  0.00  0.00    +0.000 C 
BRANCH  18  19
ATOM     19  C   UNL     1       6.421   5.828  18.629  0.00  0.00    +0.000 C 
BRANCH  19  20
ATOM     20  O   UNL     1       7.058   5.370  19.819  0.00  0.00    +0.000 OA
ATOM     21  H   UNL     1       7.984   5.156  19.635  0.00  0.00    +0.000 HD
ENDBRANCH  19  20
ENDBRANCH  18  19
BRANCH  18  22
ATOM     22  CB  UNL     1       6.858   3.966  16.837  0.00  0.00    +0.000 C 
BRANCH  22  23
ATOM     23  CG2 UNL     1       6.715   4.262  15.350  0.00  0.00    +0.000 A 
ATOM     24  C   UNL     1       5.803   3.584  14.526  0.00  0.00    +0.000 A 
ATOM     25  C   UNL     1       5.890   3.693  13.134  0.00  0.00    +0.000 A 
ATOM     26  C   UNL     1       6.857   4.511  12.553  0.00  0.00    +0.000 A 
ATOM     27  C   UNL     1       7.703   5.263  13.360  0.00  0.00    +0.000 A 
ATOM     28  C   UNL     1       7.618   5.158  14.747  0.00  0.00    +0.000 A 
ENDBRANCH  22  23
BRANCH  22  29
ATOM     29  OG1 UNL     1       8.177   4.260  17.331  0.00  0.00    +0.000 OA
ATOM     30  HG1 UNL     1       8.109   5.036  17.912  0.00  0.00    +0.000 HD
ENDBRANCH  22  29
ENDBRANCH  18  22
ENDBRANCH   3  18
TORSDOF 8
ENDMDL
MODEL 8
REMARK VINA RESULT:      -7.8      1.670      2.644
REMARK  Name = 
REMARK  8 active torsions:
REMARK  status: ('A' for Active; 'I' for Inactive)
REMARK    1  A    between atoms: C_2  and  CA_15
REMARK    2  A    between atoms: N_3  and  CA_4
REMARK    3  A    between atoms: CA_4  and  C_5
REMARK    4  A    between atoms: CA_4  and  CB_7
REMARK    5  A    between atoms: C_5  and  O_6
REMARK    6  A    between atoms: CB_7  and  OG1_8
REMARK    7  A    between atoms: CB_7  and  CG2_9
REMARK    8  A    between atoms: C_17  and  C_18
REMARK                            x       y       z     vdW  Elec       q    Type
REMARK                         _______ _______ _______ _____ _____    ______ ____
ROOT
ATOM      1  O   UNL     1       4.730   5.460  20.056  0.00  0.00    +0.000 OA
ATOM      2  C   UNL     1       5.249   4.574  19.378  0.00  0.00    +0.000 C 
ATOM      3  N   UNL     1       6.488   4.731  18.801  0.00  0.00    +0.000 N 
ATOM      4  H   UNL     1       6.879   3.975  18.258  0.00  0.00    +0.000 HD
ENDROOT
BRANCH   2   5
ATOM      5  CA  UNL     1       4.557   3.200  19.180  0.00  0.00    +0.000 C 
ATOM      6  C   UNL     1       3.238   3.064  19.951  0.00  0.00    +0.000 C 
ATOM      7  C   UNL     1       2.034   3.717  19.237  0.00  0.00    +0.000 C 
ATOM      8  C   UNL     1       1.962   3.079  17.833  0.00  0.00    +0.000 C 
ATOM      9  C   UNL     1       3.265   3.247  17.054  0.00  0.00    +0.000 C 
ATOM     10  N   UNL     1       4.433   2.765  17.775  0.00  0.00    +0.000 NA
ATOM     11  H   UNL     1       5.303   2.902  17.266  0.00  0.00    +0.000 HD
BRANCH   7  12
ATOM     12  C   UNL     1       1.982   5.244  19.284  0.00  0.00    +0.000 A 
ATOM     13  C   UNL     1       1.727   5.948  20.476  0.00  0.00    +0.000 A 
ATOM     14  C   UNL     1       1.733   7.344  20.518  0.00  0.00    +0.000 A 
ATOM     15  C   UNL     1       2.012   8.078  19.373  0.00  0.00    +0.000 A 
ATOM     16  C   UNL     1       2.303   7.413  18.190  0.00  0.00    +0.000 A 
ATOM     17  C   UNL     1       2.307   6.017  18.153  0.00  0.00    +0.000 A 
ENDBRANCH   7  12
ENDBRANCH   2   5
BRANCH   3  18
ATOM     18  CA  UNL     1       7.332   5.922  19.002  0.00  0.00    +0.000 C 
BRANCH  18  19
ATOM     19  C   UNL     1       8.544   5.531  19.889  0.00  0.00    +0.000 C 
BRANCH  19  20
ATOM     20  O   UNL     1       8.234   5.087  21.208  0.00  0.00    +0.000 OA
ATOM     21  H   UNL     1       7.424   4.558  21.195  0.00  0.00    +0.000 HD
ENDBRANCH  19  20
ENDBRANCH  18  19
BRANCH  18  22
ATOM     22  CB  UNL     1       7.721   6.527  17.609  0.00  0.00    +0.000 C 
BRANCH  22  23
ATOM     23  CG2 UNL     1       6.920   5.937  16.457  0.00  0.00    +0.000 A 
ATOM     24  C   UNL     1       5.665   6.436  16.071  0.00  0.00    +0.000 A 
ATOM     25  C   UNL     1       4.850   5.708  15.198  0.00  0.00    +0.000 A 
ATOM     26  C   UNL     1       5.295   4.499  14.667  0.00  0.00    +0.000 A 
ATOM     27  C   UNL     1       6.574   4.042  14.964  0.00  0.00    +0.000 A 
ATOM     28  C   UNL     1       7.389   4.766  15.833  0.00  0.00    +0.000 A 
ENDBRANCH  22  23
BRANCH  22  29
ATOM     29  OG1 UNL     1       7.607   7.959  17.680  0.00  0.00    +0.000 OA
ATOM     30  HG1 UNL     1       6.941   8.235  17.027  0.00  0.00    +0.000 HD
ENDBRANCH  22  29
ENDBRANCH  18  22
ENDBRANCH   3  18
TORSDOF 8
ENDMDL
MODEL 9
REMARK VINA RESULT:      -7.8      1.713      3.482
REMARK  Name = 
REMARK  8 active torsions:
REMARK  status: ('A' for Active; 'I' for Inactive)
REMARK    1  A    between atoms: C_2  and  CA_15
REMARK    2  A    between atoms: N_3  and  CA_4
REMARK    3  A    between atoms: CA_4  and  C_5
REMARK    4  A    between atoms: CA_4  and  CB_7
REMARK    5  A    between atoms: C_5  and  O_6
REMARK    6  A    between atoms: CB_7  and  OG1_8
REMARK    7  A    between atoms: CB_7  and  CG2_9
REMARK    8  A    between atoms: C_17  and  C_18
REMARK                            x       y       z     vdW  Elec       q    Type
REMARK                         _______ _______ _______ _____ _____    ______ ____
ROOT
ATOM      1  O   UNL     1       5.233   4.303  19.708  0.00  0.00    +0.000 OA
ATOM      2  C   UNL     1       4.845   3.443  18.918  0.00  0.00    +0.000 C 
ATOM      3  N   UNL     1       5.254   3.427  17.604  0.00  0.00    +0.000 N 
ATOM      4  H   UNL     1       4.916   2.699  16.991  0.00  0.00    +0.000 HD
ENDROOT
BRANCH   2   5
ATOM      5  CA  UNL     1       3.913   2.290  19.372  0.00  0.00    +0.000 C 
ATOM      6  C   UNL     1       2.919   2.703  20.466  0.00  0.00    +0.000 C 
ATOM      7  C   UNL     1       1.670   3.432  19.923  0.00  0.00    +0.000 C 
ATOM      8  C   UNL     1       1.036   2.488  18.878  0.00  0.00    +0.000 C 
ATOM      9  C   UNL     1       2.017   2.107  17.772  0.00  0.00    +0.000 C 
ATOM     10  N   UNL     1       3.263   1.548  18.275  0.00  0.00    +0.000 NA
ATOM     11  H   UNL     1       3.926   1.320  17.537  0.00  0.00    +0.000 HD
BRANCH   7  12
ATOM     12  C   UNL     1       1.886   4.878  19.478  0.00  0.00    +0.000 A 
ATOM     13  C   UNL     1       2.096   5.921  20.398  0.00  0.00    +0.000 A 
ATOM     14  C   UNL     1       2.344   7.230  19.979  0.00  0.00    +0.000 A 
ATOM     15  C   UNL     1       2.405   7.532  18.625  0.00  0.00    +0.000 A 
ATOM     16  C   UNL     1       2.238   6.519  17.692  0.00  0.00    +0.000 A 
ATOM     17  C   UNL     1       2.002   5.208  18.113  0.00  0.00    +0.000 A 
ENDBRANCH   7  12
ENDBRANCH   2   5
BRANCH   3  18
ATOM     18  CA  UNL     1       6.238   4.371  17.048  0.00  0.00    +0.000 C 
BRANCH  18  19
ATOM     19  C   UNL     1       6.493   4.009  15.560  0.00  0.00    +0.000 C 
BRANCH  19  20
ATOM     20  O   UNL     1       5.339   3.953  14.726  0.00  0.00    +0.000 OA
ATOM     21  H   UNL     1       4.558   4.231  15.224  0.00  0.00    +0.000 HD
ENDBRANCH  19  20
ENDBRANCH  18  19
BRANCH  18  22
ATOM     22  CB  UNL     1       5.740   5.840  17.278  0.00  0.00    +0.000 C 
BRANCH  22  23
ATOM     23  CG2 UNL     1       6.862   6.798  17.656  0.00  0.00    +0.000 A 
ATOM     24  C   UNL     1       7.809   6.503  18.650  0.00  0.00    +0.000 A 
ATOM     25  C   UNL     1       8.648   7.505  19.149  0.00  0.00    +0.000 A 
ATOM     26  C   UNL     1       8.581   8.797  18.633  0.00  0.00    +0.000 A 
ATOM     27  C   UNL     1       7.716   9.079  17.581  0.00  0.00    +0.000 A 
ATOM     28  C   UNL     1       6.881   8.082  17.081  0.00  0.00    +0.000 A 
ENDBRANCH  22  23
BRANCH  22  29
ATOM     29  OG1 UNL     1       5.021   6.272  16.109  0.00  0.00    +0.000 OA
ATOM     30  HG1 UNL     1       5.666   6.659  15.492  0.00  0.00    +0.000 HD
ENDBRANCH  22  29
ENDBRANCH  18  22
ENDBRANCH   3  18
TORSDOF 8
ENDMDL
