MODEL 1
REMARK VINA RESULT:      -7.3      0.000      0.000
REMARK  Name = 
REMARK  2 active torsions:
REMARK  status: ('A' for Active; 'I' for Inactive)
REMARK    1  A    between atoms: C_1  and  C_2
REMARK    2  A    between atoms: C_6  and  C_7
REMARK                            x       y       z     vdW  Elec       q    Type
REMARK                         _______ _______ _______ _____ _____    ______ ____
ROOT
ATOM      1  C   UNL     1       6.574   5.144  15.994  0.00  0.00    +0.000 A 
ATOM      2  N   UNL     1       7.487   4.387  16.675  0.00  0.00    +0.000 NA
ATOM      3  C   UNL     1       6.837   3.977  17.732  0.00  0.00    +0.000 A 
ATOM      4  N   UNL     1       5.557   4.487  17.770  0.00  0.00    +0.000 N 
ATOM      5  C   UNL     1       5.633   5.587  16.934  0.00  0.00    +0.000 A 
ATOM      6  C   UNL     1       5.440   6.907  17.613  0.00  0.00    +0.000 C 
ATOM      7  N   UNL     1       4.027   7.131  17.776  0.00  0.00    +0.000 N 
ATOM      8  N   UNL     1       3.448   8.225  17.258  0.00  0.00    +0.000 NA
ATOM      9  C   UNL     1       2.163   7.885  17.334  0.00  0.00    +0.000 A 
ATOM     10  N   UNL     1       1.908   6.716  18.001  0.00  0.00    +0.000 NA
ATOM     11  C   UNL     1       3.111   6.239  18.280  0.00  0.00    +0.000 A 
ATOM     12  C   UNL     1       3.427   4.974  18.970  0.00  0.00    +0.000 A 
ATOM     13  C   UNL     1       2.563   4.577  20.014  0.00  0.00    +0.000 A 
ATOM     14  C   UNL     1       2.783   3.399  20.733  0.00  0.00    +0.000 A 
ATOM     15 CL   UNL     1       1.792   3.003  22.081  0.00  0.00    +0.000 Cl
ATOM     16  C   UNL     1       3.818   2.545  20.388  0.00  0.00    +0.000 A 
ATOM     17  C   UNL     1       4.685   2.909  19.361  0.00  0.00    +0.000 A 
ATOM     18  C   UNL     1       4.539   4.142  18.698  0.00  0.00    +0.000 A 
ENDROOT
BRANCH   1  24
ATOM     19  C   UNL     1       5.036   2.877  11.901  0.00  0.00    +0.000 C 
ATOM     20  C   UNL     1       5.933   3.857  12.617  0.00  0.00    +0.000 A 
ATOM     21  C   UNL     1       7.071   4.300  11.939  0.00  0.00    +0.000 A 
ATOM     22  C   UNL     1       7.936   5.175  12.579  0.00  0.00    +0.000 A 
ATOM     23  C   UNL     1       7.654   5.558  13.874  0.00  0.00    +0.000 A 
ATOM     24  C   UNL     1       6.524   5.050  14.528  0.00  0.00    +0.000 A 
ATOM     25  N   UNL     1       5.655   4.203  13.927  0.00  0.00    +0.000 NA
ENDBRANCH   1  24
TORSDOF 1
ENDMDL
MODEL 2
REMARK VINA RESULT:      -6.9      6.978     10.458
REMARK  Name = 
REMARK  2 active torsions:
REMARK  status: ('A' for Active; 'I' for Inactive)
REMARK    1  A    between atoms: C_1  and  C_2
REMARK    2  A    between atoms: C_6  and  C_7
REMARK                            x       y       z     vdW  Elec       q    Type
REMARK                         _______ _______ _______ _____ _____    ______ ____
ROOT
ATOM      1  C   UNL     1       0.094  11.532  19.969  0.00  0.00    +0.000 A 
ATOM      2  N   UNL     1       0.226  12.530  20.895  0.00  0.00    +0.000 NA
ATOM      3  C   UNL     1      -0.996  12.948  21.092  0.00  0.00    +0.000 A 
ATOM      4  N   UNL     1      -1.896  12.281  20.289  0.00  0.00    +0.000 N 
ATOM      5  C   UNL     1      -1.098  11.780  19.275  0.00  0.00    +0.000 A 
ATOM      6  C   UNL     1      -1.367  12.356  17.920  0.00  0.00    +0.000 C 
ATOM      7  N   UNL     1      -2.506  11.679  17.356  0.00  0.00    +0.000 N 
ATOM      8  N   UNL     1      -2.405  11.046  16.178  0.00  0.00    +0.000 NA
ATOM      9  C   UNL     1      -3.516  10.311  16.196  0.00  0.00    +0.000 A 
ATOM     10  N   UNL     1      -4.365  10.564  17.240  0.00  0.00    +0.000 NA
ATOM     11  C   UNL     1      -3.707  11.443  17.980  0.00  0.00    +0.000 A 
ATOM     12  C   UNL     1      -4.151  12.040  19.255  0.00  0.00    +0.000 A 
ATOM     13  C   UNL     1      -5.528  12.321  19.388  0.00  0.00    +0.000 A 
ATOM     14  C   UNL     1      -6.045  12.895  20.553  0.00  0.00    +0.000 A 
ATOM     15 CL   UNL     1      -7.701  13.345  20.643  0.00  0.00    +0.000 Cl
ATOM     16  C   UNL     1      -5.224  13.133  21.645  0.00  0.00    +0.000 A 
ATOM     17  C   UNL     1      -3.862  12.863  21.543  0.00  0.00    +0.000 A 
ATOM     18  C   UNL     1      -3.311  12.385  20.340  0.00  0.00    +0.000 A 
ENDROOT
BRANCH   1  24
ATOM     19  C   UNL     1       2.395   7.665  17.967  0.00  0.00    +0.000 C 
ATOM     20  C   UNL     1       1.839   8.406  19.157  0.00  0.00    +0.000 A 
ATOM     21  C   UNL     1       1.656   7.682  20.338  0.00  0.00    +0.000 A 
ATOM     22  C   UNL     1       1.115   8.322  21.443  0.00  0.00    +0.000 A 
ATOM     23  C   UNL     1       0.753   9.649  21.329  0.00  0.00    +0.000 A 
ATOM     24  C   UNL     1       0.913  10.320  20.110  0.00  0.00    +0.000 A 
ATOM     25  N   UNL     1       1.447   9.726  19.017  0.00  0.00    +0.000 NA
ENDBRANCH   1  24
TORSDOF 1
ENDMDL
MODEL 3
REMARK VINA RESULT:      -6.9      6.282     10.511
REMARK  Name = 
REMARK  2 active torsions:
REMARK  status: ('A' for Active; 'I' for Inactive)
REMARK    1  A    between atoms: C_1  and  C_2
REMARK    2  A    between atoms: C_6  and  C_7
REMARK                            x       y       z     vdW  Elec       q    Type
REMARK                         _______ _______ _______ _____ _____    ______ ____
ROOT
ATOM      1  C   UNL     1      -1.865  12.346  19.233  0.00  0.00    +0.000 A 
ATOM      2  N   UNL     1      -1.236  12.757  18.090  0.00  0.00    +0.000 NA
ATOM      3  C   UNL     1      -0.280  11.883  17.920  0.00  0.00    +0.000 A 
ATOM      4  N   UNL     1      -0.250  10.959  18.941  0.00  0.00    +0.000 N 
ATOM      5  C   UNL     1      -0.931  11.597  19.962  0.00  0.00    +0.000 A 
ATOM      6  C   UNL     1      -0.100  11.927  21.163  0.00  0.00    +0.000 C 
ATOM      7  N   UNL     1       0.009  10.744  21.978  0.00  0.00    +0.000 N 
ATOM      8  N   UNL     1      -0.396  10.762  23.257  0.00  0.00    +0.000 NA
ATOM      9  C   UNL     1      -0.438   9.457  23.520  0.00  0.00    +0.000 A 
ATOM     10  N   UNL     1       0.057   8.646  22.533  0.00  0.00    +0.000 NA
ATOM     11  C   UNL     1       0.340   9.483  21.547  0.00  0.00    +0.000 A 
ATOM     12  C   UNL     1       0.878   9.138  20.216  0.00  0.00    +0.000 A 
ATOM     13  C   UNL     1       1.811   8.080  20.155  0.00  0.00    +0.000 A 
ATOM     14  C   UNL     1       2.384   7.684  18.943  0.00  0.00    +0.000 A 
ATOM     15 CL   UNL     1       3.610   6.479  18.911  0.00  0.00    +0.000 Cl
ATOM     16  C   UNL     1       1.991   8.273  17.752  0.00  0.00    +0.000 A 
ATOM     17  C   UNL     1       1.072   9.318  17.782  0.00  0.00    +0.000 A 
ATOM     18  C   UNL     1       0.566   9.798  19.004  0.00  0.00    +0.000 A 
ENDROOT
BRANCH   1  24
ATOM     19  C   UNL     1      -6.006  12.823  21.857  0.00  0.00    +0.000 C 
ATOM     20  C   UNL     1      -5.276  12.468  20.585  0.00  0.00    +0.000 A 
ATOM     21  C   UNL     1      -5.969  11.717  19.633  0.00  0.00    +0.000 A 
ATOM     22  C   UNL     1      -5.318  11.343  18.467  0.00  0.00    +0.000 A 
ATOM     23  C   UNL     1      -3.998  11.706  18.299  0.00  0.00    +0.000 A 
ATOM     24  C   UNL     1      -3.331  12.420  19.303  0.00  0.00    +0.000 A 
ATOM     25  N   UNL     1      -3.941  12.809  20.447  0.00  0.00    +0.000 NA
ENDBRANCH   1  24
TORSDOF 1
ENDMDL
MODEL 4
REMARK VINA RESULT:      -6.9      8.601     12.023
REMARK  Name = 
REMARK  2 active torsions:
REMARK  status: ('A' for Active; 'I' for Inactive)
REMARK    1  A    between atoms: C_1  and  C_2
REMARK    2  A    between atoms: C_6  and  C_7
REMARK                            x       y       z     vdW  Elec       q    Type
REMARK                         _______ _______ _______ _____ _____    ______ ____
ROOT
ATOM      1  C   UNL     1      -1.953  11.950  19.506  0.00  0.00    +0.000 A 
ATOM      2  N   UNL     1      -1.414  13.161  19.843  0.00  0.00    +0.000 NA
ATOM      3  C   UNL     1      -2.310  13.704  20.623  0.00  0.00    +0.000 A 
ATOM      4  N   UNL     1      -3.421  12.901  20.755  0.00  0.00    +0.000 N 
ATOM      5  C   UNL     1      -3.342  12.071  19.651  0.00  0.00    +0.000 A 
ATOM      6  C   UNL     1      -4.442  12.250  18.650  0.00  0.00    +0.000 C 
ATOM      7  N   UNL     1      -5.596  11.522  19.111  0.00  0.00    +0.000 N 
ATOM      8  N   UNL     1      -6.149  10.570  18.344  0.00  0.00    +0.000 NA
ATOM      9  C   UNL     1      -6.923   9.954  19.236  0.00  0.00    +0.000 A 
ATOM     10  N   UNL     1      -6.995  10.558  20.462  0.00  0.00    +0.000 NA
ATOM     11  C   UNL     1      -6.138  11.563  20.373  0.00  0.00    +0.000 A 
ATOM     12  C   UNL     1      -5.793  12.534  21.430  0.00  0.00    +0.000 A 
ATOM     13  C   UNL     1      -6.833  12.941  22.294  0.00  0.00    +0.000 A 
ATOM     14  C   UNL     1      -6.609  13.862  23.320  0.00  0.00    +0.000 A 
ATOM     15 CL   UNL     1      -7.916  14.437  24.277  0.00  0.00    +0.000 Cl
ATOM     16  C   UNL     1      -5.334  14.346  23.566  0.00  0.00    +0.000 A 
ATOM     17  C   UNL     1      -4.288  13.961  22.732  0.00  0.00    +0.000 A 
ATOM     18  C   UNL     1      -4.519  13.116  21.630  0.00  0.00    +0.000 A 
ENDROOT
BRANCH   1  24
ATOM     19  C   UNL     1       1.188   8.828  21.661  0.00  0.00    +0.000 C 
ATOM     20  C   UNL     1       0.543   9.424  20.435  0.00  0.00    +0.000 A 
ATOM     21  C   UNL     1       1.169   9.201  19.206  0.00  0.00    +0.000 A 
ATOM     22  C   UNL     1       0.623   9.761  18.061  0.00  0.00    +0.000 A 
ATOM     23  C   UNL     1      -0.508  10.542  18.179  0.00  0.00    +0.000 A 
ATOM     24  C   UNL     1      -1.074  10.775  19.440  0.00  0.00    +0.000 A 
ATOM     25  N   UNL     1      -0.571  10.233  20.574  0.00  0.00    +0.000 NA
ENDBRANCH   1  24
TORSDOF 1
ENDMDL
MODEL 5
REMARK VINA RESULT:      -6.8      3.477      7.398
REMARK  Name = 
REMARK  2 active torsions:
REMARK  status: ('A' for Active; 'I' for Inactive)
REMARK    1  A    between atoms: C_1  and  C_2
REMARK    2  A    between atoms: C_6  and  C_7
REMARK                            x       y       z     vdW  Elec       q    Type
REMARK                         _______ _______ _______ _____ _____    ______ ____
ROOT
ATOM      1  C   UNL     1       1.140   9.409  18.687  0.00  0.00    +0.000 A 
ATOM      2  N   UNL     1       2.105  10.279  18.259  0.00  0.00    +0.000 NA
ATOM      3  C   UNL     1       3.041   9.506  17.775  0.00  0.00    +0.000 A 
ATOM      4  N   UNL     1       2.724   8.173  17.923  0.00  0.00    +0.000 N 
ATOM      5  C   UNL     1       1.778   8.186  18.933  0.00  0.00    +0.000 A 
ATOM      6  C   UNL     1       2.204   7.515  20.202  0.00  0.00    +0.000 C 
ATOM      7  N   UNL     1       2.020   6.095  20.050  0.00  0.00    +0.000 N 
ATOM      8  N   UNL     1       1.238   5.417  20.903  0.00  0.00    +0.000 NA
ATOM      9  C   UNL     1       1.077   4.275  20.236  0.00  0.00    +0.000 A 
ATOM     10  N   UNL     1       1.830   4.153  19.099  0.00  0.00    +0.000 NA
ATOM     11  C   UNL     1       2.431   5.327  18.987  0.00  0.00    +0.000 A 
ATOM     12  C   UNL     1       3.345   5.759  17.912  0.00  0.00    +0.000 A 
ATOM     13  C   UNL     1       4.219   4.784  17.382  0.00  0.00    +0.000 A 
ATOM     14  C   UNL     1       5.129   5.097  16.368  0.00  0.00    +0.000 A 
ATOM     15 CL   UNL     1       6.268   3.928  15.828  0.00  0.00    +0.000 Cl
ATOM     16  C   UNL     1       5.143   6.361  15.799  0.00  0.00    +0.000 A 
ATOM     17  C   UNL     1       4.291   7.341  16.300  0.00  0.00    +0.000 A 
ATOM     18  C   UNL     1       3.445   7.071  17.392  0.00  0.00    +0.000 A 
ENDROOT
BRANCH   1  24
ATOM     19  C   UNL     1      -2.710   9.956  15.664  0.00  0.00    +0.000 C 
ATOM     20  C   UNL     1      -2.024  10.172  16.990  0.00  0.00    +0.000 A 
ATOM     21  C   UNL     1      -2.552  11.152  17.835  0.00  0.00    +0.000 A 
ATOM     22  C   UNL     1      -1.928  11.402  19.047  0.00  0.00    +0.000 A 
ATOM     23  C   UNL     1      -0.790  10.690  19.367  0.00  0.00    +0.000 A 
ATOM     24  C   UNL     1      -0.272   9.751  18.466  0.00  0.00    +0.000 A 
ATOM     25  N   UNL     1      -0.864   9.476  17.280  0.00  0.00    +0.000 NA
ENDBRANCH   1  24
TORSDOF 1
ENDMDL
MODEL 6
REMARK VINA RESULT:      -6.8      7.982     12.217
REMARK  Name = 
REMARK  2 active torsions:
REMARK  status: ('A' for Active; 'I' for Inactive)
REMARK    1  A    between atoms: C_1  and  C_2
REMARK    2  A    between atoms: C_6  and  C_7
REMARK                            x       y       z     vdW  Elec       q    Type
REMARK                         _______ _______ _______ _____ _____    ______ ____
ROOT
ATOM      1  C   UNL     1      -4.868  11.959  18.899  0.00  0.00    +0.000 A 
ATOM      2  N   UNL     1      -4.812  11.950  17.533  0.00  0.00    +0.000 NA
ATOM      3  C   UNL     1      -3.622  11.483  17.265  0.00  0.00    +0.000 A 
ATOM      4  N   UNL     1      -2.901  11.240  18.414  0.00  0.00    +0.000 N 
ATOM      5  C   UNL     1      -3.545  12.021  19.358  0.00  0.00    +0.000 A 
ATOM      6  C   UNL     1      -2.726  13.148  19.906  0.00  0.00    +0.000 C 
ATOM      7  N   UNL     1      -1.861  12.624  20.932  0.00  0.00    +0.000 N 
ATOM      8  N   UNL     1      -1.908  13.120  22.178  0.00  0.00    +0.000 NA
ATOM      9  C   UNL     1      -1.240  12.179  22.843  0.00  0.00    +0.000 A 
ATOM     10  N   UNL     1      -0.661  11.213  22.064  0.00  0.00    +0.000 NA
ATOM     11  C   UNL     1      -1.067  11.507  20.839  0.00  0.00    +0.000 A 
ATOM     12  C   UNL     1      -0.761  10.766  19.599  0.00  0.00    +0.000 A 
ATOM     13  C   UNL     1       0.527  10.195  19.493  0.00  0.00    +0.000 A 
ATOM     14  C   UNL     1       0.915   9.481  18.356  0.00  0.00    +0.000 A 
ATOM     15 CL   UNL     1       2.527   8.905  18.197  0.00  0.00    +0.000 Cl
ATOM     16  C   UNL     1       0.014   9.249  17.328  0.00  0.00    +0.000 A 
ATOM     17  C   UNL     1      -1.262   9.798  17.406  0.00  0.00    +0.000 A 
ATOM     18  C   UNL     1      -1.633  10.607  18.497  0.00  0.00    +0.000 A 
ENDROOT
BRANCH   1  24
ATOM     19  C   UNL     1      -7.896  12.124  22.780  0.00  0.00    +0.000 C 
ATOM     20  C   UNL     1      -7.442  11.513  21.478  0.00  0.00    +0.000 A 
ATOM     21  C   UNL     1      -7.914  10.235  21.168  0.00  0.00    +0.000 A 
ATOM     22  C   UNL     1      -7.491   9.628  19.995  0.00  0.00    +0.000 A 
ATOM     23  C   UNL     1      -6.598  10.299  19.185  0.00  0.00    +0.000 A 
ATOM     24  C   UNL     1      -6.117  11.560  19.562  0.00  0.00    +0.000 A 
ATOM     25  N   UNL     1      -6.519  12.183  20.695  0.00  0.00    +0.000 NA
ENDBRANCH   1  24
TORSDOF 1
ENDMDL
MODEL 7
REMARK VINA RESULT:      -6.7      8.585     10.752
REMARK  Name = 
REMARK  2 active torsions:
REMARK  status: ('A' for Active; 'I' for Inactive)
REMARK    1  A    between atoms: C_1  and  C_2
REMARK    2  A    between atoms: C_6  and  C_7
REMARK                            x       y       z     vdW  Elec       q    Type
REMARK                         _______ _______ _______ _____ _____    ______ ____
ROOT
ATOM      1  C   UNL     1       1.180  13.399  19.220  0.00  0.00    +0.000 A 
ATOM      2  N   UNL     1       0.237  14.222  18.668  0.00  0.00    +0.000 NA
ATOM      3  C   UNL     1      -0.784  14.128  19.479  0.00  0.00    +0.000 A 
ATOM      4  N   UNL     1      -0.538  13.238  20.502  0.00  0.00    +0.000 N 
ATOM      5  C   UNL     1       0.492  12.461  20.001  0.00  0.00    +0.000 A 
ATOM      6  C   UNL     1       0.138  11.026  19.762  0.00  0.00    +0.000 C 
ATOM      7  N   UNL     1       0.220  10.323  21.017  0.00  0.00    +0.000 N 
ATOM      8  N   UNL     1       1.031   9.262  21.149  0.00  0.00    +0.000 NA
ATOM      9  C   UNL     1       1.062   9.138  22.474  0.00  0.00    +0.000 A 
ATOM     10  N   UNL     1       0.206   9.961  23.157  0.00  0.00    +0.000 NA
ATOM     11  C   UNL     1      -0.329  10.718  22.212  0.00  0.00    +0.000 A 
ATOM     12  C   UNL     1      -1.306  11.810  22.395  0.00  0.00    +0.000 A 
ATOM     13  C   UNL     1      -2.281  11.637  23.402  0.00  0.00    +0.000 A 
ATOM     14  C   UNL     1      -3.255  12.610  23.646  0.00  0.00    +0.000 A 
ATOM     15 CL   UNL     1      -4.507  12.322  24.789  0.00  0.00    +0.000 Cl
ATOM     16  C   UNL     1      -3.241  13.810  22.954  0.00  0.00    +0.000 A 
ATOM     17  C   UNL     1      -2.290  14.009  21.957  0.00  0.00    +0.000 A 
ATOM     18  C   UNL     1      -1.369  12.997  21.627  0.00  0.00    +0.000 A 
ENDROOT
BRANCH   1  24
ATOM     19  C   UNL     1       5.137  15.124  21.592  0.00  0.00    +0.000 C 
ATOM     20  C   UNL     1       4.384  14.810  20.323  0.00  0.00    +0.000 A 
ATOM     21  C   UNL     1       4.834  15.409  19.143  0.00  0.00    +0.000 A 
ATOM     22  C   UNL     1       4.146  15.171  17.963  0.00  0.00    +0.000 A 
ATOM     23  C   UNL     1       3.025  14.368  18.000  0.00  0.00    +0.000 A 
ATOM     24  C   UNL     1       2.586  13.827  19.215  0.00  0.00    +0.000 A 
ATOM     25  N   UNL     1       3.241  14.033  20.382  0.00  0.00    +0.000 NA
ENDBRANCH   1  24
TORSDOF 1
ENDMDL
MODEL 8
REMARK VINA RESULT:      -6.7      6.534      9.697
REMARK  Name = 
REMARK  2 active torsions:
REMARK  status: ('A' for Active; 'I' for Inactive)
REMARK    1  A    between atoms: C_1  and  C_2
REMARK    2  A    between atoms: C_6  and  C_7
REMARK                            x       y       z     vdW  Elec       q    Type
REMARK                         _______ _______ _______ _____ _____    ______ ____
ROOT
ATOM      1  C   UNL     1       0.666  10.788  19.275  0.00  0.00    +0.000 A 
ATOM      2  N   UNL     1       1.380  11.555  20.155  0.00  0.00    +0.000 NA
ATOM      3  C   UNL     1       0.465  12.179  20.849  0.00  0.00    +0.000 A 
ATOM      4  N   UNL     1      -0.804  11.871  20.409  0.00  0.00    +0.000 N 
ATOM      5  C   UNL     1      -0.585  11.401  19.126  0.00  0.00    +0.000 A 
ATOM      6  C   UNL     1      -1.161  12.253  18.038  0.00  0.00    +0.000 C 
ATOM      7  N   UNL     1      -2.561  11.943  17.911  0.00  0.00    +0.000 N 
ATOM      8  N   UNL     1      -3.060  11.522  16.739  0.00  0.00    +0.000 NA
ATOM      9  C   UNL     1      -4.242  11.048  17.129  0.00  0.00    +0.000 A 
ATOM     10  N   UNL     1      -4.561  11.284  18.439  0.00  0.00    +0.000 NA
ATOM     11  C   UNL     1      -3.475  11.858  18.933  0.00  0.00    +0.000 A 
ATOM     12  C   UNL     1      -3.258  12.299  20.325  0.00  0.00    +0.000 A 
ATOM     13  C   UNL     1      -4.370  12.837  21.010  0.00  0.00    +0.000 A 
ATOM     14  C   UNL     1      -4.263  13.291  22.328  0.00  0.00    +0.000 A 
ATOM     15 CL   UNL     1      -5.596  14.057  23.096  0.00  0.00    +0.000 Cl
ATOM     16  C   UNL     1      -3.074  13.152  23.027  0.00  0.00    +0.000 A 
ATOM     17  C   UNL     1      -1.962  12.623  22.377  0.00  0.00    +0.000 A 
ATOM     18  C   UNL     1      -2.025  12.260  21.019  0.00  0.00    +0.000 A 
ENDROOT
BRANCH   1  24
ATOM     19  C   UNL     1       1.974   6.292  20.803  0.00  0.00    +0.000 C 
ATOM     20  C   UNL     1       1.913   7.368  19.747  0.00  0.00    +0.000 A 
ATOM     21  C   UNL     1       2.764   7.238  18.647  0.00  0.00    +0.000 A 
ATOM     22  C   UNL     1       2.760   8.225  17.673  0.00  0.00    +0.000 A 
ATOM     23  C   UNL     1       1.932   9.317  17.839  0.00  0.00    +0.000 A 
ATOM     24  C   UNL     1       1.131   9.425  18.983  0.00  0.00    +0.000 A 
ATOM     25  N   UNL     1       1.104   8.473  19.945  0.00  0.00    +0.000 NA
ENDBRANCH   1  24
TORSDOF 1
ENDMDL
MODEL 9
REMARK VINA RESULT:      -6.6      7.013      9.974
REMARK  Name = 
REMARK  2 active torsions:
REMARK  status: ('A' for Active; 'I' for Inactive)
REMARK    1  A    between atoms: C_1  and  C_2
REMARK    2  A    between atoms: C_6  and  C_7
REMARK                            x       y       z     vdW  Elec       q    Type
REMARK                         _______ _______ _______ _____ _____    ______ ____
ROOT
ATOM      1  C   UNL     1       0.831  10.190  21.252  0.00  0.00    +0.000 A 
ATOM      2  N   UNL     1       0.629   9.684  22.507  0.00  0.00    +0.000 NA
ATOM      3  C   UNL     1      -0.315  10.438  23.007  0.00  0.00    +0.000 A 
ATOM      4  N   UNL     1      -0.686  11.434  22.131  0.00  0.00    +0.000 N 
ATOM      5  C   UNL     1       0.401  11.524  21.279  0.00  0.00    +0.000 A 
ATOM      6  C   UNL     1       1.152  12.817  21.352  0.00  0.00    +0.000 C 
ATOM      7  N   UNL     1       0.452  13.794  20.558  0.00  0.00    +0.000 N 
ATOM      8  N   UNL     1       1.075  14.420  19.548  0.00  0.00    +0.000 NA
ATOM      9  C   UNL     1       0.034  14.945  18.904  0.00  0.00    +0.000 A 
ATOM     10  N   UNL     1      -1.173  14.806  19.535  0.00  0.00    +0.000 NA
ATOM     11  C   UNL     1      -0.894  14.064  20.595  0.00  0.00    +0.000 A 
ATOM     12  C   UNL     1      -1.845  13.580  21.616  0.00  0.00    +0.000 A 
ATOM     13  C   UNL     1      -2.902  14.446  21.971  0.00  0.00    +0.000 A 
ATOM     14  C   UNL     1      -3.848  14.083  22.934  0.00  0.00    +0.000 A 
ATOM     15 CL   UNL     1      -5.049  15.203  23.441  0.00  0.00    +0.000 Cl
ATOM     16  C   UNL     1      -3.817  12.824  23.513  0.00  0.00    +0.000 A 
ATOM     17  C   UNL     1      -2.787  11.949  23.180  0.00  0.00    +0.000 A 
ATOM     18  C   UNL     1      -1.768  12.340  22.292  0.00  0.00    +0.000 A 
ENDROOT
BRANCH   1  24
ATOM     19  C   UNL     1       2.950   6.126  19.449  0.00  0.00    +0.000 C 
ATOM     20  C   UNL     1       2.221   7.434  19.266  0.00  0.00    +0.000 A 
ATOM     21  C   UNL     1       2.225   8.000  17.988  0.00  0.00    +0.000 A 
ATOM     22  C   UNL     1       1.594   9.218  17.790  0.00  0.00    +0.000 A 
ATOM     23  C   UNL     1       1.004   9.843  18.869  0.00  0.00    +0.000 A 
ATOM     24  C   UNL     1       1.066   9.258  20.140  0.00  0.00    +0.000 A 
ATOM     25  N   UNL     1       1.665   8.065  20.365  0.00  0.00    +0.000 NA
ENDBRANCH   1  24
TORSDOF 1
ENDMDL
