MODEL 1
REMARK VINA RESULT:      -7.9      0.000      0.000
REMARK  Name = 
REMARK  6 active torsions:
REMARK  status: ('A' for Active; 'I' for Inactive)
REMARK    1  A    between atoms: C_1  and  C_2
REMARK    2  A    between atoms: C_6  and  C_7
REMARK    3  A    between atoms: C_10  and  C_11
REMARK    4  A    between atoms: C_11  and  N_12
REMARK    5  A    between atoms: N_20  and  C_21
REMARK    6  A    between atoms: N_20  and  C_22
REMARK                            x       y       z     vdW  Elec       q    Type
REMARK                         _______ _______ _______ _____ _____    ______ ____
ROOT
ATOM      1  N   UNL     1      -0.790  11.360  20.621  0.00  0.00    +0.000 NA
ATOM      2  C   UNL     1      -0.778  11.736  22.048  0.00  0.00    +0.000 C 
ATOM      3  C   UNL     1      -2.163  11.807  22.697  0.00  0.00    +0.000 C 
ATOM      4  C   UNL     1      -3.118  12.672  21.886  0.00  0.00    +0.000 C 
ATOM      5  C   UNL     1      -3.177  12.168  20.453  0.00  0.00    +0.000 C 
ATOM      6  C   UNL     1      -1.782  12.104  19.827  0.00  0.00    +0.000 C 
ATOM      7  N   UNL     1      -4.482  12.627  22.503  0.00  0.00    +0.000 NA
ATOM      8  C   UNL     1      -4.754  13.834  22.903  0.00  0.00    +0.000 C 
ATOM      9  N   UNL     1      -5.920  14.214  23.522  0.00  0.00    +0.000 N 
ATOM     10  C   UNL     1      -6.230  15.556  23.992  0.00  0.00    +0.000 C 
ATOM     11  C   UNL     1      -6.995  13.248  23.741  0.00  0.00    +0.000 C 
ATOM     12  N   UNL     1      -3.779  14.730  22.654  0.00  0.00    +0.000 N 
ATOM     13  C   UNL     1      -2.768  14.149  21.969  0.00  0.00    +0.000 C 
ATOM     14  O   UNL     1      -1.799  14.732  21.515  0.00  0.00    +0.000 OA
ATOM     15  H   UNL     1      -3.796  15.717  22.826  0.00  0.00    +0.000 HD
ENDROOT
BRANCH   1  16
ATOM     16  C   UNL     1       0.552  11.561  20.019  0.00  0.00    +0.000 C 
BRANCH  16  20
ATOM     17  C   UNL     1       2.237   8.005  18.486  0.00  0.00    +0.000 A 
ATOM     18  N   UNL     1       1.790   8.016  19.757  0.00  0.00    +0.000 NA
ATOM     19  C   UNL     1       1.269   9.166  20.215  0.00  0.00    +0.000 A 
ATOM     20  C   UNL     1       1.161  10.312  19.458  0.00  0.00    +0.000 A 
ATOM     21  C   UNL     1       1.616  10.192  18.160  0.00  0.00    +0.000 A 
ATOM     22  N   UNL     1       2.160   9.063  17.649  0.00  0.00    +0.000 NA
BRANCH  17  28
ATOM     23  C   UNL     1       2.242   3.003  17.755  0.00  0.00    +0.000 C 
ATOM     24  C   UNL     1       2.924   4.335  17.641  0.00  0.00    +0.000 A 
ATOM     25  C   UNL     1       4.167   4.443  17.011  0.00  0.00    +0.000 A 
ATOM     26  C   UNL     1       4.783   5.684  16.893  0.00  0.00    +0.000 A 
ATOM     27  C   UNL     1       4.157   6.823  17.394  0.00  0.00    +0.000 A 
ATOM     28  C   UNL     1       2.896   6.764  18.024  0.00  0.00    +0.000 A 
ATOM     29  C   UNL     1       2.301   5.495  18.146  0.00  0.00    +0.000 A 
ENDBRANCH  17  28
ENDBRANCH  16  20
ENDBRANCH   1  16
TORSDOF 3
ENDMDL
MODEL 2
REMARK VINA RESULT:      -7.7      0.730      1.644
REMARK  Name = 
REMARK  6 active torsions:
REMARK  status: ('A' for Active; 'I' for Inactive)
REMARK    1  A    between atoms: C_1  and  C_2
REMARK    2  A    between atoms: C_6  and  C_7
REMARK    3  A    between atoms: C_10  and  C_11
REMARK    4  A    between atoms: C_11  and  N_12
REMARK    5  A    between atoms: N_20  and  C_21
REMARK    6  A    between atoms: N_20  and  C_22
REMARK                            x       y       z     vdW  Elec       q    Type
REMARK                         _______ _______ _______ _____ _____    ______ ____
ROOT
ATOM      1  N   UNL     1      -0.521  11.175  20.208  0.00  0.00    +0.000 NA
ATOM      2  C   UNL     1      -0.385  11.508  21.639  0.00  0.00    +0.000 C 
ATOM      3  C   UNL     1      -1.714  11.715  22.371  0.00  0.00    +0.000 C 
ATOM      4  C   UNL     1      -2.610  12.703  21.638  0.00  0.00    +0.000 C 
ATOM      5  C   UNL     1      -2.808  12.249  20.201  0.00  0.00    +0.000 C 
ATOM      6  C   UNL     1      -1.467  12.047  19.491  0.00  0.00    +0.000 C 
ATOM      7  N   UNL     1      -3.932  12.793  22.334  0.00  0.00    +0.000 NA
ATOM      8  C   UNL     1      -4.043  14.011  22.776  0.00  0.00    +0.000 C 
ATOM      9  N   UNL     1      -5.122  14.501  23.471  0.00  0.00    +0.000 N 
ATOM     10  C   UNL     1      -5.251  15.855  23.988  0.00  0.00    +0.000 C 
ATOM     11  C   UNL     1      -6.284  13.655  23.734  0.00  0.00    +0.000 C 
ATOM     12  N   UNL     1      -2.989  14.800  22.487  0.00  0.00    +0.000 N 
ATOM     13  C   UNL     1      -2.092  14.129  21.731  0.00  0.00    +0.000 C 
ATOM     14  O   UNL     1      -1.091  14.613  21.232  0.00  0.00    +0.000 OA
ATOM     15  H   UNL     1      -2.886  15.777  22.682  0.00  0.00    +0.000 HD
ENDROOT
BRANCH   1  16
ATOM     16  C   UNL     1       0.799  11.243  19.531  0.00  0.00    +0.000 C 
BRANCH  16  20
ATOM     17  C   UNL     1       2.392   7.503  18.385  0.00  0.00    +0.000 A 
ATOM     18  N   UNL     1       2.378   8.506  17.485  0.00  0.00    +0.000 NA
ATOM     19  C   UNL     1       1.856   9.678  17.880  0.00  0.00    +0.000 A 
ATOM     20  C   UNL     1       1.352   9.906  19.143  0.00  0.00    +0.000 A 
ATOM     21  C   UNL     1       1.440   8.828  20.001  0.00  0.00    +0.000 A 
ATOM     22  N   UNL     1       1.946   7.622  19.655  0.00  0.00    +0.000 NA
BRANCH  17  28
ATOM     23  C   UNL     1       6.050   4.546  16.534  0.00  0.00    +0.000 C 
ATOM     24  C   UNL     1       4.643   4.722  17.024  0.00  0.00    +0.000 A 
ATOM     25  C   UNL     1       3.785   3.623  17.125  0.00  0.00    +0.000 A 
ATOM     26  C   UNL     1       2.488   3.791  17.598  0.00  0.00    +0.000 A 
ATOM     27  C   UNL     1       2.045   5.056  17.981  0.00  0.00    +0.000 A 
ATOM     28  C   UNL     1       2.880   6.190  17.910  0.00  0.00    +0.000 A 
ATOM     29  C   UNL     1       4.182   5.996  17.412  0.00  0.00    +0.000 A 
ENDBRANCH  17  28
ENDBRANCH  16  20
ENDBRANCH   1  16
TORSDOF 3
ENDMDL
MODEL 3
REMARK VINA RESULT:      -7.7      1.931      2.561
REMARK  Name = 
REMARK  6 active torsions:
REMARK  status: ('A' for Active; 'I' for Inactive)
REMARK    1  A    between atoms: C_1  and  C_2
REMARK    2  A    between atoms: C_6  and  C_7
REMARK    3  A    between atoms: C_10  and  C_11
REMARK    4  A    between atoms: C_11  and  N_12
REMARK    5  A    between atoms: N_20  and  C_21
REMARK    6  A    between atoms: N_20  and  C_22
REMARK                            x       y       z     vdW  Elec       q    Type
REMARK                         _______ _______ _______ _____ _____    ______ ____
ROOT
ATOM      1  N   UNL     1       0.364  11.750  20.501  0.00  0.00    +0.000 NA
ATOM      2  C   UNL     1       0.620  13.201  20.436  0.00  0.00    +0.000 C 
ATOM      3  C   UNL     1       0.558  13.918  21.787  0.00  0.00    +0.000 C 
ATOM      4  C   UNL     1      -0.729  13.598  22.533  0.00  0.00    +0.000 C 
ATOM      5  C   UNL     1      -0.883  12.092  22.671  0.00  0.00    +0.000 C 
ATOM      6  C   UNL     1      -0.817  11.398  21.308  0.00  0.00    +0.000 C 
ATOM      7  N   UNL     1      -0.696  14.237  23.887  0.00  0.00    +0.000 NA
ATOM      8  C   UNL     1      -1.657  15.111  23.914  0.00  0.00    +0.000 C 
ATOM      9  N   UNL     1      -1.964  15.911  24.988  0.00  0.00    +0.000 N 
ATOM     10  C   UNL     1      -3.024  16.908  25.027  0.00  0.00    +0.000 C 
ATOM     11  C   UNL     1      -1.220  15.792  26.241  0.00  0.00    +0.000 C 
ATOM     12  N   UNL     1      -2.372  15.181  22.773  0.00  0.00    +0.000 N 
ATOM     13  C   UNL     1      -1.943  14.251  21.891  0.00  0.00    +0.000 C 
ATOM     14  O   UNL     1      -2.464  14.007  20.817  0.00  0.00    +0.000 OA
ATOM     15  H   UNL     1      -3.182  15.742  22.593  0.00  0.00    +0.000 HD
ENDROOT
BRANCH   1  16
ATOM     16  C   UNL     1       0.193  11.189  19.136  0.00  0.00    +0.000 C 
BRANCH  16  20
ATOM     17  C   UNL     1       2.451   7.701  18.384  0.00  0.00    +0.000 A 
ATOM     18  N   UNL     1       2.329   8.618  17.405  0.00  0.00    +0.000 NA
ATOM     19  C   UNL     1       1.596   9.711  17.675  0.00  0.00    +0.000 A 
ATOM     20  C   UNL     1       0.983   9.941  18.888  0.00  0.00    +0.000 A 
ATOM     21  C   UNL     1       1.193   8.960  19.836  0.00  0.00    +0.000 A 
ATOM     22  N   UNL     1       1.913   7.835  19.615  0.00  0.00    +0.000 NA
BRANCH  17  28
ATOM     23  C   UNL     1       2.569   2.705  17.626  0.00  0.00    +0.000 C 
ATOM     24  C   UNL     1       3.267   4.032  17.653  0.00  0.00    +0.000 A 
ATOM     25  C   UNL     1       4.607   4.137  17.270  0.00  0.00    +0.000 A 
ATOM     26  C   UNL     1       5.241   5.375  17.281  0.00  0.00    +0.000 A 
ATOM     27  C   UNL     1       4.537   6.514  17.664  0.00  0.00    +0.000 A 
ATOM     28  C   UNL     1       3.179   6.459  18.044  0.00  0.00    +0.000 A 
ATOM     29  C   UNL     1       2.566   5.192  18.041  0.00  0.00    +0.000 A 
ENDBRANCH  17  28
ENDBRANCH  16  20
ENDBRANCH   1  16
TORSDOF 3
ENDMDL
MODEL 4
REMARK VINA RESULT:      -7.5      1.922      2.726
REMARK  Name = 
REMARK  6 active torsions:
REMARK  status: ('A' for Active; 'I' for Inactive)
REMARK    1  A    between atoms: C_1  and  C_2
REMARK    2  A    between atoms: C_6  and  C_7
REMARK    3  A    between atoms: C_10  and  C_11
REMARK    4  A    between atoms: C_11  and  N_12
REMARK    5  A    between atoms: N_20  and  C_21
REMARK    6  A    between atoms: N_20  and  C_22
REMARK                            x       y       z     vdW  Elec       q    Type
REMARK                         _______ _______ _______ _____ _____    ______ ____
ROOT
ATOM      1  N   UNL     1       0.413  11.578  20.561  0.00  0.00    +0.000 NA
ATOM      2  C   UNL     1       0.545  13.042  20.438  0.00  0.00    +0.000 C 
ATOM      3  C   UNL     1       0.413  13.805  21.758  0.00  0.00    +0.000 C 
ATOM      4  C   UNL     1      -0.848  13.407  22.512  0.00  0.00    +0.000 C 
ATOM      5  C   UNL     1      -0.874  11.900  22.711  0.00  0.00    +0.000 C 
ATOM      6  C   UNL     1      -0.739  11.161  21.378  0.00  0.00    +0.000 C 
ATOM      7  N   UNL     1      -0.879  14.101  23.839  0.00  0.00    +0.000 NA
ATOM      8  C   UNL     1      -1.911  14.890  23.827  0.00  0.00    +0.000 C 
ATOM      9  N   UNL     1      -2.293  15.704  24.867  0.00  0.00    +0.000 N 
ATOM     10  C   UNL     1      -3.434  16.607  24.860  0.00  0.00    +0.000 C 
ATOM     11  C   UNL     1      -1.550  15.700  26.125  0.00  0.00    +0.000 C 
ATOM     12  N   UNL     1      -2.621  14.853  22.682  0.00  0.00    +0.000 N 
ATOM     13  C   UNL     1      -2.108  13.928  21.840  0.00  0.00    +0.000 C 
ATOM     14  O   UNL     1      -2.599  13.597  20.775  0.00  0.00    +0.000 OA
ATOM     15  H   UNL     1      -3.475  15.334  22.476  0.00  0.00    +0.000 HD
ENDROOT
BRANCH   1  16
ATOM     16  C   UNL     1       0.300  10.951  19.220  0.00  0.00    +0.000 C 
BRANCH  16  20
ATOM     17  C   UNL     1       2.543   7.404  18.750  0.00  0.00    +0.000 A 
ATOM     18  N   UNL     1       2.384   8.216  17.687  0.00  0.00    +0.000 NA
ATOM     19  C   UNL     1       1.656   9.330  17.870  0.00  0.00    +0.000 A 
ATOM     20  C   UNL     1       1.086   9.684  19.073  0.00  0.00    +0.000 A 
ATOM     21  C   UNL     1       1.333   8.805  20.109  0.00  0.00    +0.000 A 
ATOM     22  N   UNL     1       2.048   7.664  19.980  0.00  0.00    +0.000 NA
BRANCH  17  28
ATOM     23  C   UNL     1       5.391   4.404  15.845  0.00  0.00    +0.000 C 
ATOM     24  C   UNL     1       4.661   4.656  17.131  0.00  0.00    +0.000 A 
ATOM     25  C   UNL     1       4.720   3.727  18.174  0.00  0.00    +0.000 A 
ATOM     26  C   UNL     1       4.056   3.978  19.370  0.00  0.00    +0.000 A 
ATOM     27  C   UNL     1       3.338   5.161  19.533  0.00  0.00    +0.000 A 
ATOM     28  C   UNL     1       3.264   6.134  18.514  0.00  0.00    +0.000 A 
ATOM     29  C   UNL     1       3.930   5.848  17.308  0.00  0.00    +0.000 A 
ENDBRANCH  17  28
ENDBRANCH  16  20
ENDBRANCH   1  16
TORSDOF 3
ENDMDL
MODEL 5
REMARK VINA RESULT:      -7.5      2.818      3.957
REMARK  Name = 
REMARK  6 active torsions:
REMARK  status: ('A' for Active; 'I' for Inactive)
REMARK    1  A    between atoms: C_1  and  C_2
REMARK    2  A    between atoms: C_6  and  C_7
REMARK    3  A    between atoms: C_10  and  C_11
REMARK    4  A    between atoms: C_11  and  N_12
REMARK    5  A    between atoms: N_20  and  C_21
REMARK    6  A    between atoms: N_20  and  C_22
REMARK                            x       y       z     vdW  Elec       q    Type
REMARK                         _______ _______ _______ _____ _____    ______ ____
ROOT
ATOM      1  N   UNL     1       0.780  11.706  19.708  0.00  0.00    +0.000 NA
ATOM      2  C   UNL     1      -0.336  12.039  18.803  0.00  0.00    +0.000 C 
ATOM      3  C   UNL     1      -0.340  13.486  18.303  0.00  0.00    +0.000 C 
ATOM      4  C   UNL     1      -0.223  14.476  19.454  0.00  0.00    +0.000 C 
ATOM      5  C   UNL     1       1.008  14.155  20.286  0.00  0.00    +0.000 C 
ATOM      6  C   UNL     1       0.989  12.703  20.771  0.00  0.00    +0.000 C 
ATOM      7  N   UNL     1      -0.126  15.867  18.910  0.00  0.00    +0.000 NA
ATOM      8  C   UNL     1      -1.182  16.506  19.318  0.00  0.00    +0.000 C 
ATOM      9  N   UNL     1      -1.468  17.819  19.035  0.00  0.00    +0.000 N 
ATOM     10  C   UNL     1      -2.655  18.541  19.468  0.00  0.00    +0.000 C 
ATOM     11  C   UNL     1      -0.536  18.631  18.254  0.00  0.00    +0.000 C 
ATOM     12  N   UNL     1      -2.014  15.766  20.079  0.00  0.00    +0.000 N 
ATOM     13  C   UNL     1      -1.491  14.537  20.290  0.00  0.00    +0.000 C 
ATOM     14  O   UNL     1      -1.965  13.688  21.024  0.00  0.00    +0.000 OA
ATOM     15  H   UNL     1      -2.851  16.067  20.540  0.00  0.00    +0.000 HD
ENDROOT
BRANCH   1  16
ATOM     16  C   UNL     1       0.563  10.377  20.335  0.00  0.00    +0.000 C 
BRANCH  16  20
ATOM     17  C   UNL     1       2.558   7.174  18.441  0.00  0.00    +0.000 A 
ATOM     18  N   UNL     1       2.204   7.043  19.734  0.00  0.00    +0.000 NA
ATOM     19  C   UNL     1       1.580   8.085  20.308  0.00  0.00    +0.000 A 
ATOM     20  C   UNL     1       1.279   9.256  19.646  0.00  0.00    +0.000 A 
ATOM     21  C   UNL     1       1.653   9.280  18.317  0.00  0.00    +0.000 A 
ATOM     22  N   UNL     1       2.293   8.266  17.692  0.00  0.00    +0.000 NA
BRANCH  17  28
ATOM     23  C   UNL     1       6.752   5.342  16.294  0.00  0.00    +0.000 C 
ATOM     24  C   UNL     1       5.361   5.134  16.815  0.00  0.00    +0.000 A 
ATOM     25  C   UNL     1       4.794   3.856  16.832  0.00  0.00    +0.000 A 
ATOM     26  C   UNL     1       3.510   3.669  17.334  0.00  0.00    +0.000 A 
ATOM     27  C   UNL     1       2.792   4.755  17.831  0.00  0.00    +0.000 A 
ATOM     28  C   UNL     1       3.330   6.059  17.848  0.00  0.00    +0.000 A 
ATOM     29  C   UNL     1       4.623   6.224  17.318  0.00  0.00    +0.000 A 
ENDBRANCH  17  28
ENDBRANCH  16  20
ENDBRANCH   1  16
TORSDOF 3
ENDMDL
MODEL 6
REMARK VINA RESULT:      -7.4      2.849      3.771
REMARK  Name = 
REMARK  6 active torsions:
REMARK  status: ('A' for Active; 'I' for Inactive)
REMARK    1  A    between atoms: C_1  and  C_2
REMARK    2  A    between atoms: C_6  and  C_7
REMARK    3  A    between atoms: C_10  and  C_11
REMARK    4  A    between atoms: C_11  and  N_12
REMARK    5  A    between atoms: N_20  and  C_21
REMARK    6  A    between atoms: N_20  and  C_22
REMARK                            x       y       z     vdW  Elec       q    Type
REMARK                         _______ _______ _______ _____ _____    ______ ____
ROOT
ATOM      1  N   UNL     1       0.857  11.652  19.855  0.00  0.00    +0.000 NA
ATOM      2  C   UNL     1      -0.168  12.024  18.862  0.00  0.00    +0.000 C 
ATOM      3  C   UNL     1      -0.106  13.482  18.401  0.00  0.00    +0.000 C 
ATOM      4  C   UNL     1      -0.080  14.443  19.581  0.00  0.00    +0.000 C 
ATOM      5  C   UNL     1       1.067  14.082  20.512  0.00  0.00    +0.000 C 
ATOM      6  C   UNL     1       0.984  12.620  20.958  0.00  0.00    +0.000 C 
ATOM      7  N   UNL     1       0.085  15.845  19.083  0.00  0.00    +0.000 NA
ATOM      8  C   UNL     1      -0.994  16.491  19.411  0.00  0.00    +0.000 C 
ATOM      9  N   UNL     1      -1.234  17.815  19.135  0.00  0.00    +0.000 N 
ATOM     10  C   UNL     1      -2.445  18.545  19.479  0.00  0.00    +0.000 C 
ATOM     11  C   UNL     1      -0.224  18.629  18.462  0.00  0.00    +0.000 C 
ATOM     12  N   UNL     1      -1.901  15.747  20.075  0.00  0.00    +0.000 N 
ATOM     13  C   UNL     1      -1.417  14.505  20.302  0.00  0.00    +0.000 C 
ATOM     14  O   UNL     1      -1.967  13.646  20.969  0.00  0.00    +0.000 OA
ATOM     15  H   UNL     1      -2.772  16.050  20.466  0.00  0.00    +0.000 HD
ENDROOT
BRANCH   1  16
ATOM     16  C   UNL     1       0.566  10.312  20.427  0.00  0.00    +0.000 C 
BRANCH  16  20
ATOM     17  C   UNL     1       2.577   7.107  18.552  0.00  0.00    +0.000 A 
ATOM     18  N   UNL     1       2.249   6.994  19.854  0.00  0.00    +0.000 NA
ATOM     19  C   UNL     1       1.619   8.036  20.421  0.00  0.00    +0.000 A 
ATOM     20  C   UNL     1       1.287   9.190  19.745  0.00  0.00    +0.000 A 
ATOM     21  C   UNL     1       1.636   9.197  18.409  0.00  0.00    +0.000 A 
ATOM     22  N   UNL     1       2.280   8.181  17.789  0.00  0.00    +0.000 NA
BRANCH  17  28
ATOM     23  C   UNL     1       3.432   2.170  17.886  0.00  0.00    +0.000 C 
ATOM     24  C   UNL     1       3.788   3.600  17.608  0.00  0.00    +0.000 A 
ATOM     25  C   UNL     1       4.814   3.914  16.711  0.00  0.00    +0.000 A 
ATOM     26  C   UNL     1       5.125   5.243  16.445  0.00  0.00    +0.000 A 
ATOM     27  C   UNL     1       4.407   6.264  17.065  0.00  0.00    +0.000 A 
ATOM     28  C   UNL     1       3.354   5.995  17.964  0.00  0.00    +0.000 A 
ATOM     29  C   UNL     1       3.071   4.642  18.230  0.00  0.00    +0.000 A 
ENDBRANCH  17  28
ENDBRANCH  16  20
ENDBRANCH   1  16
TORSDOF 3
ENDMDL
MODEL 7
REMARK VINA RESULT:      -7.4      1.863      3.076
REMARK  Name = 
REMARK  6 active torsions:
REMARK  status: ('A' for Active; 'I' for Inactive)
REMARK    1  A    between atoms: C_1  and  C_2
REMARK    2  A    between atoms: C_6  and  C_7
REMARK    3  A    between atoms: C_10  and  C_11
REMARK    4  A    between atoms: C_11  and  N_12
REMARK    5  A    between atoms: N_20  and  C_21
REMARK    6  A    between atoms: N_20  and  C_22
REMARK                            x       y       z     vdW  Elec       q    Type
REMARK                         _______ _______ _______ _____ _____    ______ ____
ROOT
ATOM      1  N   UNL     1       0.682  11.309  18.591  0.00  0.00    +0.000 NA
ATOM      2  C   UNL     1      -0.321  10.331  19.049  0.00  0.00    +0.000 C 
ATOM      3  C   UNL     1      -1.614  10.951  19.587  0.00  0.00    +0.000 C 
ATOM      4  C   UNL     1      -1.330  12.013  20.639  0.00  0.00    +0.000 C 
ATOM      5  C   UNL     1      -0.381  13.057  20.074  0.00  0.00    +0.000 C 
ATOM      6  C   UNL     1       0.902  12.413  19.542  0.00  0.00    +0.000 C 
ATOM      7  N   UNL     1      -2.614  12.660  21.057  0.00  0.00    +0.000 NA
ATOM      8  C   UNL     1      -2.785  12.380  22.315  0.00  0.00    +0.000 C 
ATOM      9  N   UNL     1      -3.850  12.795  23.077  0.00  0.00    +0.000 N 
ATOM     10  C   UNL     1      -4.064  12.474  24.480  0.00  0.00    +0.000 C 
ATOM     11  C   UNL     1      -4.885  13.653  22.503  0.00  0.00    +0.000 C 
ATOM     12  N   UNL     1      -1.802  11.630  22.851  0.00  0.00    +0.000 N 
ATOM     13  C   UNL     1      -0.826  11.412  21.941  0.00  0.00    +0.000 C 
ATOM     14  O   UNL     1       0.235  10.856  22.167  0.00  0.00    +0.000 OA
ATOM     15  H   UNL     1      -1.702  11.344  23.806  0.00  0.00    +0.000 HD
ENDROOT
BRANCH   1  16
ATOM     16  C   UNL     1       1.982  10.639  18.329  0.00  0.00    +0.000 C 
BRANCH  16  20
ATOM     17  C   UNL     1       2.062   6.522  19.264  0.00  0.00    +0.000 A 
ATOM     18  N   UNL     1       2.370   6.908  18.011  0.00  0.00    +0.000 NA
ATOM     19  C   UNL     1       2.325   8.225  17.746  0.00  0.00    +0.000 A 
ATOM     20  C   UNL     1       1.996   9.183  18.680  0.00  0.00    +0.000 A 
ATOM     21  C   UNL     1       1.728   8.690  19.941  0.00  0.00    +0.000 A 
ATOM     22  N   UNL     1       1.748   7.376  20.262  0.00  0.00    +0.000 NA
BRANCH  17  28
ATOM     23  C   UNL     1       3.408   1.787  18.115  0.00  0.00    +0.000 C 
ATOM     24  C   UNL     1       2.670   2.751  18.995  0.00  0.00    +0.000 A 
ATOM     25  C   UNL     1       1.995   2.299  20.133  0.00  0.00    +0.000 A 
ATOM     26  C   UNL     1       1.328   3.203  20.953  0.00  0.00    +0.000 A 
ATOM     27  C   UNL     1       1.340   4.562  20.647  0.00  0.00    +0.000 A 
ATOM     28  C   UNL     1       2.021   5.065  19.518  0.00  0.00    +0.000 A 
ATOM     29  C   UNL     1       2.673   4.129  18.695  0.00  0.00    +0.000 A 
ENDBRANCH  17  28
ENDBRANCH  16  20
ENDBRANCH   1  16
TORSDOF 3
ENDMDL
MODEL 8
REMARK VINA RESULT:      -7.4      1.352      1.785
REMARK  Name = 
REMARK  6 active torsions:
REMARK  status: ('A' for Active; 'I' for Inactive)
REMARK    1  A    between atoms: C_1  and  C_2
REMARK    2  A    between atoms: C_6  and  C_7
REMARK    3  A    between atoms: C_10  and  C_11
REMARK    4  A    between atoms: C_11  and  N_12
REMARK    5  A    between atoms: N_20  and  C_21
REMARK    6  A    between atoms: N_20  and  C_22
REMARK                            x       y       z     vdW  Elec       q    Type
REMARK                         _______ _______ _______ _____ _____    ______ ____
ROOT
ATOM      1  N   UNL     1      -1.101  11.603  21.196  0.00  0.00    +0.000 NA
ATOM      2  C   UNL     1      -1.132  11.958  22.628  0.00  0.00    +0.000 C 
ATOM      3  C   UNL     1      -2.524  12.293  23.169  0.00  0.00    +0.000 C 
ATOM      4  C   UNL     1      -3.224  13.335  22.307  0.00  0.00    +0.000 C 
ATOM      5  C   UNL     1      -3.264  12.863  20.863  0.00  0.00    +0.000 C 
ATOM      6  C   UNL     1      -1.862  12.533  20.345  0.00  0.00    +0.000 C 
ATOM      7  N   UNL     1      -4.616  13.552  22.816  0.00  0.00    +0.000 NA
ATOM      8  C   UNL     1      -4.680  14.785  23.222  0.00  0.00    +0.000 C 
ATOM      9  N   UNL     1      -5.796  15.381  23.757  0.00  0.00    +0.000 N 
ATOM     10  C   UNL     1      -5.876  16.753  24.235  0.00  0.00    +0.000 C 
ATOM     11  C   UNL     1      -7.052  14.642  23.869  0.00  0.00    +0.000 C 
ATOM     12  N   UNL     1      -3.532  15.476  23.071  0.00  0.00    +0.000 N 
ATOM     13  C   UNL     1      -2.602  14.714  22.453  0.00  0.00    +0.000 C 
ATOM     14  O   UNL     1      -1.505  15.100  22.089  0.00  0.00    +0.000 OA
ATOM     15  H   UNL     1      -3.372  16.445  23.265  0.00  0.00    +0.000 HD
ENDROOT
BRANCH   1  16
ATOM     16  C   UNL     1       0.299  11.543  20.704  0.00  0.00    +0.000 C 
BRANCH  16  20
ATOM     17  C   UNL     1       1.736   7.645  19.946  0.00  0.00    +0.000 A 
ATOM     18  N   UNL     1       1.755   8.549  18.947  0.00  0.00    +0.000 NA
ATOM     19  C   UNL     1       1.281   9.776  19.221  0.00  0.00    +0.000 A 
ATOM     20  C   UNL     1       0.797  10.152  20.455  0.00  0.00    +0.000 A 
ATOM     21  C   UNL     1       0.850   9.167  21.420  0.00  0.00    +0.000 A 
ATOM     22  N   UNL     1       1.306   7.912  21.198  0.00  0.00    +0.000 NA
BRANCH  17  28
ATOM     23  C   UNL     1       2.548   2.820  21.215  0.00  0.00    +0.000 C 
ATOM     24  C   UNL     1       2.561   3.914  20.189  0.00  0.00    +0.000 A 
ATOM     25  C   UNL     1       2.901   3.638  18.861  0.00  0.00    +0.000 A 
ATOM     26  C   UNL     1       2.892   4.655  17.913  0.00  0.00    +0.000 A 
ATOM     27  C   UNL     1       2.534   5.950  18.283  0.00  0.00    +0.000 A 
ATOM     28  C   UNL     1       2.169   6.272  19.608  0.00  0.00    +0.000 A 
ATOM     29  C   UNL     1       2.203   5.229  20.551  0.00  0.00    +0.000 A 
ENDBRANCH  17  28
ENDBRANCH  16  20
ENDBRANCH   1  16
TORSDOF 3
ENDMDL
MODEL 9
REMARK VINA RESULT:      -7.4      1.854      2.948
REMARK  Name = 
REMARK  6 active torsions:
REMARK  status: ('A' for Active; 'I' for Inactive)
REMARK    1  A    between atoms: C_1  and  C_2
REMARK    2  A    between atoms: C_6  and  C_7
REMARK    3  A    between atoms: C_10  and  C_11
REMARK    4  A    between atoms: C_11  and  N_12
REMARK    5  A    between atoms: N_20  and  C_21
REMARK    6  A    between atoms: N_20  and  C_22
REMARK                            x       y       z     vdW  Elec       q    Type
REMARK                         _______ _______ _______ _____ _____    ______ ____
ROOT
ATOM      1  N   UNL     1       0.651  11.484  18.681  0.00  0.00    +0.000 NA
ATOM      2  C   UNL     1      -0.335  10.481  19.124  0.00  0.00    +0.000 C 
ATOM      3  C   UNL     1      -1.640  11.071  19.667  0.00  0.00    +0.000 C 
ATOM      4  C   UNL     1      -1.378  12.124  20.734  0.00  0.00    +0.000 C 
ATOM      5  C   UNL     1      -0.447  13.192  20.184  0.00  0.00    +0.000 C 
ATOM      6  C   UNL     1       0.848  12.579  19.647  0.00  0.00    +0.000 C 
ATOM      7  N   UNL     1      -2.675  12.742  21.157  0.00  0.00    +0.000 NA
ATOM      8  C   UNL     1      -2.843  12.443  22.411  0.00  0.00    +0.000 C 
ATOM      9  N   UNL     1      -3.917  12.829  23.175  0.00  0.00    +0.000 N 
ATOM     10  C   UNL     1      -4.129  12.485  24.573  0.00  0.00    +0.000 C 
ATOM     11  C   UNL     1      -4.967  13.675  22.610  0.00  0.00    +0.000 C 
ATOM     12  N   UNL     1      -1.848  11.704  22.939  0.00  0.00    +0.000 N 
ATOM     13  C   UNL     1      -0.866  11.516  22.029  0.00  0.00    +0.000 C 
ATOM     14  O   UNL     1       0.204  10.977  22.250  0.00  0.00    +0.000 OA
ATOM     15  H   UNL     1      -1.745  11.408  23.891  0.00  0.00    +0.000 HD
ENDROOT
BRANCH   1  16
ATOM     16  C   UNL     1       1.963  10.841  18.414  0.00  0.00    +0.000 C 
BRANCH  16  20
ATOM     17  C   UNL     1       2.019   6.657  18.980  0.00  0.00    +0.000 A 
ATOM     18  N   UNL     1       2.237   7.147  17.744  0.00  0.00    +0.000 NA
ATOM     19  C   UNL     1       2.203   8.482  17.599  0.00  0.00    +0.000 A 
ATOM     20  C   UNL     1       1.971   9.360  18.636  0.00  0.00    +0.000 A 
ATOM     21  C   UNL     1       1.791   8.763  19.867  0.00  0.00    +0.000 A 
ATOM     22  N   UNL     1       1.804   7.425  20.070  0.00  0.00    +0.000 NA
BRANCH  17  28
ATOM     23  C   UNL     1       1.563   2.475  21.782  0.00  0.00    +0.000 C 
ATOM     24  C   UNL     1       1.729   3.131  20.444  0.00  0.00    +0.000 A 
ATOM     25  C   UNL     1       1.747   2.364  19.275  0.00  0.00    +0.000 A 
ATOM     26  C   UNL     1       1.882   2.983  18.037  0.00  0.00    +0.000 A 
ATOM     27  C   UNL     1       1.991   4.370  17.959  0.00  0.00    +0.000 A 
ATOM     28  C   UNL     1       1.963   5.185  19.111  0.00  0.00    +0.000 A 
ATOM     29  C   UNL     1       1.843   4.533  20.352  0.00  0.00    +0.000 A 
ENDBRANCH  17  28
ENDBRANCH  16  20
ENDBRANCH   1  16
TORSDOF 3
ENDMDL
