MODEL 1
REMARK VINA RESULT:      -6.7      0.000      0.000
REMARK  Name = 
REMARK  13 active torsions:
REMARK  status: ('A' for Active; 'I' for Inactive)
REMARK    1  A    between atoms: C_1  and  C_2
REMARK    2  A    between atoms: C_2  and  C_3
REMARK    3  A    between atoms: C_3  and  C_4
REMARK    4  A    between atoms: C_4  and  C_5
REMARK    5  A    between atoms: C_5  and  C_6
REMARK    6  A    between atoms: C_6  and  C_7
REMARK    7  A    between atoms: C_7  and  C_8
REMARK    8  A    between atoms: C_8  and  C_9
REMARK    9  A    between atoms: C_12  and  C_13
REMARK   10  A    between atoms: C_16  and  N_17
REMARK   11  A    between atoms: N_17  and  C_18
REMARK   12  A    between atoms: N_17  and  C_19
REMARK   13  A    between atoms: N_17  and  C_20
REMARK                            x       y       z     vdW  Elec       q    Type
REMARK                         _______ _______ _______ _____ _____    ______ ____
ROOT
ATOM      1  C   UNL     1       2.823   7.027  19.022  0.00  0.00    +0.000 A 
ATOM      2  C   UNL     1       2.950   7.815  17.861  0.00  0.00    +0.000 A 
ATOM      3  C   UNL     1       2.210   8.997  17.717  0.00  0.00    +0.000 A 
ATOM      4  C   UNL     1       1.333   9.405  18.733  0.00  0.00    +0.000 A 
ATOM      5  C   UNL     1       1.240   8.619  19.900  0.00  0.00    +0.000 A 
ATOM      6  C   UNL     1       1.966   7.448  20.039  0.00  0.00    +0.000 A 
ENDROOT
BRANCH   4   7
ATOM      7  C   UNL     1       0.459  10.642  18.601  0.00  0.00    +0.000 C 
ATOM      8  C   UNL     1      -0.959  10.280  19.120  0.00  0.00    +0.000 C 
ATOM      9  C   UNL     1      -1.850  11.508  19.335  0.00  0.00    +0.000 C 
ATOM     10  C   UNL     1      -1.193  12.601  20.233  0.00  0.00    +0.000 C 
ATOM     11  C   UNL     1       0.145  13.003  19.529  0.00  0.00    +0.000 C 
ATOM     12  C   UNL     1       1.118  11.830  19.347  0.00  0.00    +0.000 C 
BRANCH  10  13
ATOM     13  N   UNL     1      -1.161  12.362  21.748  0.00  0.00    +0.000 N 
ATOM     14  C   UNL     1      -0.535  11.117  22.269  0.00  0.00    +0.000 C 
ATOM     15  C   UNL     1      -0.451  13.496  22.401  0.00  0.00    +0.000 C 
ATOM     16  C   UNL     1      -2.555  12.368  22.267  0.00  0.00    +0.000 C 
ENDBRANCH  10  13
ENDBRANCH   4   7
BRANCH   1  17
ATOM     17  C   UNL     1       3.568   5.729  19.177  0.00  0.00    +0.000 C 
BRANCH  17  18
ATOM     18  C   UNL     1       3.530   4.902  17.895  0.00  0.00    +0.000 C 
BRANCH  18  19
ATOM     19  C   UNL     1       3.868   3.440  18.196  0.00  0.00    +0.000 C 
BRANCH  19  20
ATOM     20  C   UNL     1       2.722   2.526  17.762  0.00  0.00    +0.000 C 
BRANCH  20  21
ATOM     21  C   UNL     1       1.960   2.002  18.977  0.00  0.00    +0.000 C 
BRANCH  21  22
ATOM     22  C   UNL     1       0.737   2.877  19.259  0.00  0.00    +0.000 C 
BRANCH  22  24
ATOM     23  C   UNL     1       1.877   3.058  21.495  0.00  0.00    +0.000 C 
ATOM     24  C   UNL     1       0.973   3.760  20.487  0.00  0.00    +0.000 C 
ENDBRANCH  22  24
ENDBRANCH  21  22
ENDBRANCH  20  21
ENDBRANCH  19  20
ENDBRANCH  18  19
ENDBRANCH  17  18
ENDBRANCH   1  17
TORSDOF 9
ENDMDL
MODEL 2
REMARK VINA RESULT:      -6.6      1.435      2.269
REMARK  Name = 
REMARK  13 active torsions:
REMARK  status: ('A' for Active; 'I' for Inactive)
REMARK    1  A    between atoms: C_1  and  C_2
REMARK    2  A    between atoms: C_2  and  C_3
REMARK    3  A    between atoms: C_3  and  C_4
REMARK    4  A    between atoms: C_4  and  C_5
REMARK    5  A    between atoms: C_5  and  C_6
REMARK    6  A    between atoms: C_6  and  C_7
REMARK    7  A    between atoms: C_7  and  C_8
REMARK    8  A    between atoms: C_8  and  C_9
REMARK    9  A    between atoms: C_12  and  C_13
REMARK   10  A    between atoms: C_16  and  N_17
REMARK   11  A    between atoms: N_17  and  C_18
REMARK   12  A    between atoms: N_17  and  C_19
REMARK   13  A    between atoms: N_17  and  C_20
REMARK                            x       y       z     vdW  Elec       q    Type
REMARK                         _______ _______ _______ _____ _____    ______ ____
ROOT
ATOM      1  C   UNL     1       3.757   6.334  18.390  0.00  0.00    +0.000 A 
ATOM      2  C   UNL     1       3.465   7.429  17.553  0.00  0.00    +0.000 A 
ATOM      3  C   UNL     1       2.486   8.365  17.918  0.00  0.00    +0.000 A 
ATOM      4  C   UNL     1       1.788   8.216  19.125  0.00  0.00    +0.000 A 
ATOM      5  C   UNL     1       2.114   7.130  19.964  0.00  0.00    +0.000 A 
ATOM      6  C   UNL     1       3.076   6.202  19.600  0.00  0.00    +0.000 A 
ENDROOT
BRANCH   4   7
ATOM      7  C   UNL     1       0.673   9.163  19.539  0.00  0.00    +0.000 C 
ATOM      8  C   UNL     1       1.164   9.966  20.774  0.00  0.00    +0.000 C 
ATOM      9  C   UNL     1       0.270  11.166  21.102  0.00  0.00    +0.000 C 
ATOM     10  C   UNL     1       0.030  12.112  19.884  0.00  0.00    +0.000 C 
ATOM     11  C   UNL     1      -0.614  11.231  18.764  0.00  0.00    +0.000 C 
ATOM     12  C   UNL     1       0.265  10.048  18.335  0.00  0.00    +0.000 C 
BRANCH  10  13
ATOM     13  N   UNL     1       1.162  13.068  19.483  0.00  0.00    +0.000 N 
ATOM     14  C   UNL     1       2.213  12.587  18.546  0.00  0.00    +0.000 C 
ATOM     15  C   UNL     1       0.569  14.285  18.864  0.00  0.00    +0.000 C 
ATOM     16  C   UNL     1       1.878  13.510  20.709  0.00  0.00    +0.000 C 
ENDBRANCH  10  13
ENDBRANCH   4   7
BRANCH   1  17
ATOM     17  C   UNL     1       4.766   5.290  17.996  0.00  0.00    +0.000 C 
BRANCH  17  18
ATOM     18  C   UNL     1       4.393   3.915  18.541  0.00  0.00    +0.000 C 
BRANCH  18  19
ATOM     19  C   UNL     1       3.700   3.084  17.458  0.00  0.00    +0.000 C 
BRANCH  19  20
ATOM     20  C   UNL     1       2.443   2.418  18.018  0.00  0.00    +0.000 C 
BRANCH  20  21
ATOM     21  C   UNL     1       1.334   3.447  18.225  0.00  0.00    +0.000 C 
BRANCH  21  22
ATOM     22  C   UNL     1       0.734   3.312  19.626  0.00  0.00    +0.000 C 
BRANCH  22  24
ATOM     23  C   UNL     1       2.148   3.319  21.707  0.00  0.00    +0.000 C 
ATOM     24  C   UNL     1       1.651   2.485  20.531  0.00  0.00    +0.000 C 
ENDBRANCH  22  24
ENDBRANCH  21  22
ENDBRANCH  20  21
ENDBRANCH  19  20
ENDBRANCH  18  19
ENDBRANCH  17  18
ENDBRANCH   1  17
TORSDOF 9
ENDMDL
MODEL 3
REMARK VINA RESULT:      -6.6      5.546      9.497
REMARK  Name = 
REMARK  13 active torsions:
REMARK  status: ('A' for Active; 'I' for Inactive)
REMARK    1  A    between atoms: C_1  and  C_2
REMARK    2  A    between atoms: C_2  and  C_3
REMARK    3  A    between atoms: C_3  and  C_4
REMARK    4  A    between atoms: C_4  and  C_5
REMARK    5  A    between atoms: C_5  and  C_6
REMARK    6  A    between atoms: C_6  and  C_7
REMARK    7  A    between atoms: C_7  and  C_8
REMARK    8  A    between atoms: C_8  and  C_9
REMARK    9  A    between atoms: C_12  and  C_13
REMARK   10  A    between atoms: C_16  and  N_17
REMARK   11  A    between atoms: N_17  and  C_18
REMARK   12  A    between atoms: N_17  and  C_19
REMARK   13  A    between atoms: N_17  and  C_20
REMARK                            x       y       z     vdW  Elec       q    Type
REMARK                         _______ _______ _______ _____ _____    ______ ____
ROOT
ATOM      1  C   UNL     1       7.243   7.700  17.676  0.00  0.00    +0.000 A 
ATOM      2  C   UNL     1       5.994   7.614  17.032  0.00  0.00    +0.000 A 
ATOM      3  C   UNL     1       5.239   6.434  17.093  0.00  0.00    +0.000 A 
ATOM      4  C   UNL     1       5.726   5.325  17.800  0.00  0.00    +0.000 A 
ATOM      5  C   UNL     1       6.966   5.437  18.462  0.00  0.00    +0.000 A 
ATOM      6  C   UNL     1       7.715   6.602  18.396  0.00  0.00    +0.000 A 
ENDROOT
BRANCH   4   7
ATOM      7  C   UNL     1       4.981   4.000  17.844  0.00  0.00    +0.000 C 
ATOM      8  C   UNL     1       5.161   3.400  19.264  0.00  0.00    +0.000 C 
ATOM      9  C   UNL     1       4.213   2.229  19.545  0.00  0.00    +0.000 C 
ATOM     10  C   UNL     1       2.714   2.565  19.269  0.00  0.00    +0.000 C 
ATOM     11  C   UNL     1       2.629   3.000  17.770  0.00  0.00    +0.000 C 
ATOM     12  C   UNL     1       3.502   4.218  17.436  0.00  0.00    +0.000 C 
BRANCH  10  13
ATOM     13  N   UNL     1       1.967   3.415  20.306  0.00  0.00    +0.000 N 
ATOM     14  C   UNL     1       2.366   4.836  20.496  0.00  0.00    +0.000 C 
ATOM     15  C   UNL     1       0.518   3.424  19.968  0.00  0.00    +0.000 C 
ATOM     16  C   UNL     1       2.097   2.772  21.641  0.00  0.00    +0.000 C 
ENDBRANCH  10  13
ENDBRANCH   4   7
BRANCH   1  17
ATOM     17  C   UNL     1       8.094   8.938  17.582  0.00  0.00    +0.000 C 
BRANCH  17  18
ATOM     18  C   UNL     1       8.895   9.166  18.860  0.00  0.00    +0.000 C 
BRANCH  18  19
ATOM     19  C   UNL     1       9.334  10.629  18.957  0.00  0.00    +0.000 C 
BRANCH  19  20
ATOM     20  C   UNL     1      10.056  11.057  17.679  0.00  0.00    +0.000 C 
BRANCH  20  21
ATOM     21  C   UNL     1      11.310  11.862  18.011  0.00  0.00    +0.000 C 
BRANCH  21  22
ATOM     22  C   UNL     1      11.585  11.827  19.516  0.00  0.00    +0.000 C 
BRANCH  22  24
ATOM     23  C   UNL     1      10.487  13.670  20.831  0.00  0.00    +0.000 C 
ATOM     24  C   UNL     1      11.740  13.244  20.072  0.00  0.00    +0.000 C 
ENDBRANCH  22  24
ENDBRANCH  21  22
ENDBRANCH  20  21
ENDBRANCH  19  20
ENDBRANCH  18  19
ENDBRANCH  17  18
ENDBRANCH   1  17
TORSDOF 9
ENDMDL
MODEL 4
REMARK VINA RESULT:      -6.6      3.341      8.504
REMARK  Name = 
REMARK  13 active torsions:
REMARK  status: ('A' for Active; 'I' for Inactive)
REMARK    1  A    between atoms: C_1  and  C_2
REMARK    2  A    between atoms: C_2  and  C_3
REMARK    3  A    between atoms: C_3  and  C_4
REMARK    4  A    between atoms: C_4  and  C_5
REMARK    5  A    between atoms: C_5  and  C_6
REMARK    6  A    between atoms: C_6  and  C_7
REMARK    7  A    between atoms: C_7  and  C_8
REMARK    8  A    between atoms: C_8  and  C_9
REMARK    9  A    between atoms: C_12  and  C_13
REMARK   10  A    between atoms: C_16  and  N_17
REMARK   11  A    between atoms: N_17  and  C_18
REMARK   12  A    between atoms: N_17  and  C_19
REMARK   13  A    between atoms: N_17  and  C_20
REMARK                            x       y       z     vdW  Elec       q    Type
REMARK                         _______ _______ _______ _____ _____    ______ ____
ROOT
ATOM      1  C   UNL     1       1.311   9.523  19.423  0.00  0.00    +0.000 A 
ATOM      2  C   UNL     1       1.302   8.682  20.552  0.00  0.00    +0.000 A 
ATOM      3  C   UNL     1       1.817   7.380  20.476  0.00  0.00    +0.000 A 
ATOM      4  C   UNL     1       2.348   6.904  19.268  0.00  0.00    +0.000 A 
ATOM      5  C   UNL     1       2.375   7.770  18.155  0.00  0.00    +0.000 A 
ATOM      6  C   UNL     1       1.861   9.054  18.229  0.00  0.00    +0.000 A 
ENDROOT
BRANCH   4   7
ATOM      7  C   UNL     1       2.859   5.481  19.112  0.00  0.00    +0.000 C 
ATOM      8  C   UNL     1       2.547   5.019  17.662  0.00  0.00    +0.000 C 
ATOM      9  C   UNL     1       3.278   3.731  17.273  0.00  0.00    +0.000 C 
ATOM     10  C   UNL     1       4.818   3.794  17.516  0.00  0.00    +0.000 C 
ATOM     11  C   UNL     1       5.011   4.103  19.037  0.00  0.00    +0.000 C 
ATOM     12  C   UNL     1       4.363   5.422  19.480  0.00  0.00    +0.000 C 
BRANCH  10  13
ATOM     13  N   UNL     1       5.673   4.579  16.512  0.00  0.00    +0.000 N 
ATOM     14  C   UNL     1       5.707   4.134  15.092  0.00  0.00    +0.000 C 
ATOM     15  C   UNL     1       5.222   5.997  16.500  0.00  0.00    +0.000 C 
ATOM     16  C   UNL     1       7.086   4.578  16.975  0.00  0.00    +0.000 C 
ENDBRANCH  10  13
ENDBRANCH   4   7
BRANCH   1  17
ATOM     17  C   UNL     1       0.719  10.906  19.466  0.00  0.00    +0.000 C 
BRANCH  17  18
ATOM     18  C   UNL     1      -0.805  10.862  19.540  0.00  0.00    +0.000 C 
BRANCH  18  19
ATOM     19  C   UNL     1      -1.413  11.193  18.175  0.00  0.00    +0.000 C 
BRANCH  19  20
ATOM     20  C   UNL     1      -1.775   9.910  17.426  0.00  0.00    +0.000 C 
BRANCH  20  21
ATOM     21  C   UNL     1      -3.289   9.776  17.286  0.00  0.00    +0.000 C 
BRANCH  21  22
ATOM     22  C   UNL     1      -3.790  10.592  16.092  0.00  0.00    +0.000 C 
BRANCH  22  24
ATOM     23  C   UNL     1      -3.795   9.956  13.657  0.00  0.00    +0.000 C 
ATOM     24  C   UNL     1      -2.928  10.327  14.856  0.00  0.00    +0.000 C 
ENDBRANCH  22  24
ENDBRANCH  21  22
ENDBRANCH  20  21
ENDBRANCH  19  20
ENDBRANCH  18  19
ENDBRANCH  17  18
ENDBRANCH   1  17
TORSDOF 9
ENDMDL
MODEL 5
REMARK VINA RESULT:      -6.6      3.408      8.623
REMARK  Name = 
REMARK  13 active torsions:
REMARK  status: ('A' for Active; 'I' for Inactive)
REMARK    1  A    between atoms: C_1  and  C_2
REMARK    2  A    between atoms: C_2  and  C_3
REMARK    3  A    between atoms: C_3  and  C_4
REMARK    4  A    between atoms: C_4  and  C_5
REMARK    5  A    between atoms: C_5  and  C_6
REMARK    6  A    between atoms: C_6  and  C_7
REMARK    7  A    between atoms: C_7  and  C_8
REMARK    8  A    between atoms: C_8  and  C_9
REMARK    9  A    between atoms: C_12  and  C_13
REMARK   10  A    between atoms: C_16  and  N_17
REMARK   11  A    between atoms: N_17  and  C_18
REMARK   12  A    between atoms: N_17  and  C_19
REMARK   13  A    between atoms: N_17  and  C_20
REMARK                            x       y       z     vdW  Elec       q    Type
REMARK                         _______ _______ _______ _____ _____    ______ ____
ROOT
ATOM      1  C   UNL     1       1.228   9.477  19.094  0.00  0.00    +0.000 A 
ATOM      2  C   UNL     1       1.787   8.979  17.901  0.00  0.00    +0.000 A 
ATOM      3  C   UNL     1       2.345   7.693  17.857  0.00  0.00    +0.000 A 
ATOM      4  C   UNL     1       2.351   6.891  19.008  0.00  0.00    +0.000 A 
ATOM      5  C   UNL     1       1.763   7.395  20.185  0.00  0.00    +0.000 A 
ATOM      6  C   UNL     1       1.217   8.668  20.230  0.00  0.00    +0.000 A 
ENDROOT
BRANCH   4   7
ATOM      7  C   UNL     1       3.001   5.517  19.035  0.00  0.00    +0.000 C 
ATOM      8  C   UNL     1       2.769   4.853  17.650  0.00  0.00    +0.000 C 
ATOM      9  C   UNL     1       3.630   3.604  17.432  0.00  0.00    +0.000 C 
ATOM     10  C   UNL     1       5.151   3.848  17.683  0.00  0.00    +0.000 C 
ATOM     11  C   UNL     1       5.277   4.359  19.156  0.00  0.00    +0.000 C 
ATOM     12  C   UNL     1       4.494   5.652  19.425  0.00  0.00    +0.000 C 
BRANCH  10  13
ATOM     13  N   UNL     1       5.948   4.585  16.598  0.00  0.00    +0.000 N 
ATOM     14  C   UNL     1       5.521   5.951  16.191  0.00  0.00    +0.000 C 
ATOM     15  C   UNL     1       7.366   4.698  17.035  0.00  0.00    +0.000 C 
ATOM     16  C   UNL     1       5.942   3.767  15.356  0.00  0.00    +0.000 C 
ENDBRANCH  10  13
ENDBRANCH   4   7
BRANCH   1  17
ATOM     17  C   UNL     1       0.670  10.872  19.178  0.00  0.00    +0.000 C 
BRANCH  17  18
ATOM     18  C   UNL     1      -0.851  10.861  19.301  0.00  0.00    +0.000 C 
BRANCH  18  19
ATOM     19  C   UNL     1      -1.492  10.609  17.934  0.00  0.00    +0.000 C 
BRANCH  19  20
ATOM     20  C   UNL     1      -3.017  10.610  18.051  0.00  0.00    +0.000 C 
BRANCH  20  21
ATOM     21  C   UNL     1      -3.650  11.289  16.838  0.00  0.00    +0.000 C 
BRANCH  21  22
ATOM     22  C   UNL     1      -2.870  10.949  15.567  0.00  0.00    +0.000 C 
BRANCH  22  24
ATOM     23  C   UNL     1      -2.911   9.673  13.398  0.00  0.00    +0.000 C 
ATOM     24  C   UNL     1      -3.711  10.076  14.633  0.00  0.00    +0.000 C 
ENDBRANCH  22  24
ENDBRANCH  21  22
ENDBRANCH  20  21
ENDBRANCH  19  20
ENDBRANCH  18  19
ENDBRANCH  17  18
ENDBRANCH   1  17
TORSDOF 9
ENDMDL
MODEL 6
REMARK VINA RESULT:      -6.5      2.765      8.185
REMARK  Name = 
REMARK  13 active torsions:
REMARK  status: ('A' for Active; 'I' for Inactive)
REMARK    1  A    between atoms: C_1  and  C_2
REMARK    2  A    between atoms: C_2  and  C_3
REMARK    3  A    between atoms: C_3  and  C_4
REMARK    4  A    between atoms: C_4  and  C_5
REMARK    5  A    between atoms: C_5  and  C_6
REMARK    6  A    between atoms: C_6  and  C_7
REMARK    7  A    between atoms: C_7  and  C_8
REMARK    8  A    between atoms: C_8  and  C_9
REMARK    9  A    between atoms: C_12  and  C_13
REMARK   10  A    between atoms: C_16  and  N_17
REMARK   11  A    between atoms: N_17  and  C_18
REMARK   12  A    between atoms: N_17  and  C_19
REMARK   13  A    between atoms: N_17  and  C_20
REMARK                            x       y       z     vdW  Elec       q    Type
REMARK                         _______ _______ _______ _____ _____    ______ ____
ROOT
ATOM      1  C   UNL     1       1.220   9.943  19.294  0.00  0.00    +0.000 A 
ATOM      2  C   UNL     1       1.333   8.876  20.206  0.00  0.00    +0.000 A 
ATOM      3  C   UNL     1       1.952   7.676  19.827  0.00  0.00    +0.000 A 
ATOM      4  C   UNL     1       2.465   7.530  18.530  0.00  0.00    +0.000 A 
ATOM      5  C   UNL     1       2.368   8.619  17.639  0.00  0.00    +0.000 A 
ATOM      6  C   UNL     1       1.751   9.802  18.012  0.00  0.00    +0.000 A 
ENDROOT
BRANCH   4   7
ATOM      7  C   UNL     1       3.086   6.230  18.045  0.00  0.00    +0.000 C 
ATOM      8  C   UNL     1       4.163   5.802  19.078  0.00  0.00    +0.000 C 
ATOM      9  C   UNL     1       4.646   4.362  18.879  0.00  0.00    +0.000 C 
ATOM     10  C   UNL     1       3.485   3.321  18.824  0.00  0.00    +0.000 C 
ATOM     11  C   UNL     1       2.555   3.761  17.647  0.00  0.00    +0.000 C 
ATOM     12  C   UNL     1       1.976   5.172  17.819  0.00  0.00    +0.000 C 
BRANCH  10  13
ATOM     13  N   UNL     1       2.823   2.913  20.147  0.00  0.00    +0.000 N 
ATOM     14  C   UNL     1       2.351   3.976  21.075  0.00  0.00    +0.000 C 
ATOM     15  C   UNL     1       1.643   2.055  19.852  0.00  0.00    +0.000 C 
ATOM     16  C   UNL     1       3.777   2.082  20.929  0.00  0.00    +0.000 C 
ENDBRANCH  10  13
ENDBRANCH   4   7
BRANCH   1  17
ATOM     17  C   UNL     1       0.516  11.221  19.662  0.00  0.00    +0.000 C 
BRANCH  17  18
ATOM     18  C   UNL     1      -0.808  10.949  20.372  0.00  0.00    +0.000 C 
BRANCH  18  19
ATOM     19  C   UNL     1      -1.848  12.000  19.977  0.00  0.00    +0.000 C 
BRANCH  19  20
ATOM     20  C   UNL     1      -2.121  11.944  18.474  0.00  0.00    +0.000 C 
BRANCH  20  21
ATOM     21  C   UNL     1      -2.676  10.578  18.077  0.00  0.00    +0.000 C 
BRANCH  21  22
ATOM     22  C   UNL     1      -2.094  10.134  16.734  0.00  0.00    +0.000 C 
BRANCH  22  24
ATOM     23  C   UNL     1      -2.984  10.123  14.380  0.00  0.00    +0.000 C 
ATOM     24  C   UNL     1      -3.200   9.626  15.806  0.00  0.00    +0.000 C 
ENDBRANCH  22  24
ENDBRANCH  21  22
ENDBRANCH  20  21
ENDBRANCH  19  20
ENDBRANCH  18  19
ENDBRANCH  17  18
ENDBRANCH   1  17
TORSDOF 9
ENDMDL
MODEL 7
REMARK VINA RESULT:      -6.5      1.443      2.508
REMARK  Name = 
REMARK  13 active torsions:
REMARK  status: ('A' for Active; 'I' for Inactive)
REMARK    1  A    between atoms: C_1  and  C_2
REMARK    2  A    between atoms: C_2  and  C_3
REMARK    3  A    between atoms: C_3  and  C_4
REMARK    4  A    between atoms: C_4  and  C_5
REMARK    5  A    between atoms: C_5  and  C_6
REMARK    6  A    between atoms: C_6  and  C_7
REMARK    7  A    between atoms: C_7  and  C_8
REMARK    8  A    between atoms: C_8  and  C_9
REMARK    9  A    between atoms: C_12  and  C_13
REMARK   10  A    between atoms: C_16  and  N_17
REMARK   11  A    between atoms: N_17  and  C_18
REMARK   12  A    between atoms: N_17  and  C_19
REMARK   13  A    between atoms: N_17  and  C_20
REMARK                            x       y       z     vdW  Elec       q    Type
REMARK                         _______ _______ _______ _____ _____    ______ ____
ROOT
ATOM      1  C   UNL     1       2.904   6.592  19.102  0.00  0.00    +0.000 A 
ATOM      2  C   UNL     1       2.210   6.680  20.324  0.00  0.00    +0.000 A 
ATOM      3  C   UNL     1       1.349   7.757  20.580  0.00  0.00    +0.000 A 
ATOM      4  C   UNL     1       1.171   8.758  19.615  0.00  0.00    +0.000 A 
ATOM      5  C   UNL     1       1.851   8.639  18.385  0.00  0.00    +0.000 A 
ATOM      6  C   UNL     1       2.707   7.579  18.135  0.00  0.00    +0.000 A 
ENDROOT
BRANCH   4   7
ATOM      7  C   UNL     1       0.301   9.979  19.864  0.00  0.00    +0.000 C 
ATOM      8  C   UNL     1       0.901  10.754  21.068  0.00  0.00    +0.000 C 
ATOM      9  C   UNL     1       0.312  12.159  21.231  0.00  0.00    +0.000 C 
ATOM     10  C   UNL     1       0.384  13.016  19.929  0.00  0.00    +0.000 C 
ATOM     11  C   UNL     1      -0.390  12.215  18.832  0.00  0.00    +0.000 C 
ATOM     12  C   UNL     1       0.195  10.820  18.566  0.00  0.00    +0.000 C 
BRANCH  10  13
ATOM     13  N   UNL     1       1.738  13.630  19.547  0.00  0.00    +0.000 N 
ATOM     14  C   UNL     1       2.806  13.720  20.579  0.00  0.00    +0.000 C 
ATOM     15  C   UNL     1       2.313  12.861  18.410  0.00  0.00    +0.000 C 
ATOM     16  C   UNL     1       1.518  15.019  19.063  0.00  0.00    +0.000 C 
ENDBRANCH  10  13
ENDBRANCH   4   7
BRANCH   1  17
ATOM     17  C   UNL     1       3.872   5.474  18.825  0.00  0.00    +0.000 C 
BRANCH  17  18
ATOM     18  C   UNL     1       3.547   4.760  17.516  0.00  0.00    +0.000 C 
BRANCH  18  19
ATOM     19  C   UNL     1       2.184   4.070  17.612  0.00  0.00    +0.000 C 
BRANCH  19  20
ATOM     20  C   UNL     1       2.358   2.553  17.697  0.00  0.00    +0.000 C 
BRANCH  20  21
ATOM     21  C   UNL     1       1.856   2.027  19.039  0.00  0.00    +0.000 C 
BRANCH  21  22
ATOM     22  C   UNL     1       0.896   3.031  19.682  0.00  0.00    +0.000 C 
BRANCH  22  24
ATOM     23  C   UNL     1       2.639   2.748  21.475  0.00  0.00    +0.000 C 
ATOM     24  C   UNL     1       1.221   3.217  21.166  0.00  0.00    +0.000 C 
ENDBRANCH  22  24
ENDBRANCH  21  22
ENDBRANCH  20  21
ENDBRANCH  19  20
ENDBRANCH  18  19
ENDBRANCH  17  18
ENDBRANCH   1  17
TORSDOF 9
ENDMDL
MODEL 8
REMARK VINA RESULT:      -6.4      2.904      8.330
REMARK  Name = 
REMARK  13 active torsions:
REMARK  status: ('A' for Active; 'I' for Inactive)
REMARK    1  A    between atoms: C_1  and  C_2
REMARK    2  A    between atoms: C_2  and  C_3
REMARK    3  A    between atoms: C_3  and  C_4
REMARK    4  A    between atoms: C_4  and  C_5
REMARK    5  A    between atoms: C_5  and  C_6
REMARK    6  A    between atoms: C_6  and  C_7
REMARK    7  A    between atoms: C_7  and  C_8
REMARK    8  A    between atoms: C_8  and  C_9
REMARK    9  A    between atoms: C_12  and  C_13
REMARK   10  A    between atoms: C_16  and  N_17
REMARK   11  A    between atoms: N_17  and  C_18
REMARK   12  A    between atoms: N_17  and  C_19
REMARK   13  A    between atoms: N_17  and  C_20
REMARK                            x       y       z     vdW  Elec       q    Type
REMARK                         _______ _______ _______ _____ _____    ______ ____
ROOT
ATOM      1  C   UNL     1       0.910   9.346  20.270  0.00  0.00    +0.000 A 
ATOM      2  C   UNL     1       1.257   9.534  18.918  0.00  0.00    +0.000 A 
ATOM      3  C   UNL     1       1.967   8.546  18.220  0.00  0.00    +0.000 A 
ATOM      4  C   UNL     1       2.338   7.359  18.866  0.00  0.00    +0.000 A 
ATOM      5  C   UNL     1       1.958   7.175  20.212  0.00  0.00    +0.000 A 
ATOM      6  C   UNL     1       1.262   8.154  20.903  0.00  0.00    +0.000 A 
ENDROOT
BRANCH   4   7
ATOM      7  C   UNL     1       3.164   6.285  18.178  0.00  0.00    +0.000 C 
ATOM      8  C   UNL     1       4.296   5.856  19.151  0.00  0.00    +0.000 C 
ATOM      9  C   UNL     1       5.009   4.572  18.714  0.00  0.00    +0.000 C 
ATOM     10  C   UNL     1       4.033   3.385  18.440  0.00  0.00    +0.000 C 
ATOM     11  C   UNL     1       3.045   3.875  17.332  0.00  0.00    +0.000 C 
ATOM     12  C   UNL     1       2.243   5.120  17.734  0.00  0.00    +0.000 C 
BRANCH  10  13
ATOM     13  N   UNL     1       3.445   2.645  19.649  0.00  0.00    +0.000 N 
ATOM     14  C   UNL     1       2.757   3.429  20.709  0.00  0.00    +0.000 C 
ATOM     15  C   UNL     1       2.465   1.635  19.166  0.00  0.00    +0.000 C 
ATOM     16  C   UNL     1       4.534   1.898  20.334  0.00  0.00    +0.000 C 
ENDBRANCH  10  13
ENDBRANCH   4   7
BRANCH   1  17
ATOM     17  C   UNL     1       0.193  10.411  21.054  0.00  0.00    +0.000 C 
BRANCH  17  18
ATOM     18  C   UNL     1      -0.054  11.659  20.211  0.00  0.00    +0.000 C 
BRANCH  18  19
ATOM     19  C   UNL     1      -1.550  11.826  19.936  0.00  0.00    +0.000 C 
BRANCH  19  20
ATOM     20  C   UNL     1      -1.794  12.104  18.452  0.00  0.00    +0.000 C 
BRANCH  20  21
ATOM     21  C   UNL     1      -1.814  10.801  17.656  0.00  0.00    +0.000 C 
BRANCH  21  22
ATOM     22  C   UNL     1      -3.079  10.718  16.799  0.00  0.00    +0.000 C 
BRANCH  22  24
ATOM     23  C   UNL     1      -3.215  10.191  14.342  0.00  0.00    +0.000 C 
ATOM     24  C   UNL     1      -2.940   9.629  15.733  0.00  0.00    +0.000 C 
ENDBRANCH  22  24
ENDBRANCH  21  22
ENDBRANCH  20  21
ENDBRANCH  19  20
ENDBRANCH  18  19
ENDBRANCH  17  18
ENDBRANCH   1  17
TORSDOF 9
ENDMDL
MODEL 9
REMARK VINA RESULT:      -6.4      2.850      8.620
REMARK  Name = 
REMARK  13 active torsions:
REMARK  status: ('A' for Active; 'I' for Inactive)
REMARK    1  A    between atoms: C_1  and  C_2
REMARK    2  A    between atoms: C_2  and  C_3
REMARK    3  A    between atoms: C_3  and  C_4
REMARK    4  A    between atoms: C_4  and  C_5
REMARK    5  A    between atoms: C_5  and  C_6
REMARK    6  A    between atoms: C_6  and  C_7
REMARK    7  A    between atoms: C_7  and  C_8
REMARK    8  A    between atoms: C_8  and  C_9
REMARK    9  A    between atoms: C_12  and  C_13
REMARK   10  A    between atoms: C_16  and  N_17
REMARK   11  A    between atoms: N_17  and  C_18
REMARK   12  A    between atoms: N_17  and  C_19
REMARK   13  A    between atoms: N_17  and  C_20
REMARK                            x       y       z     vdW  Elec       q    Type
REMARK                         _______ _______ _______ _____ _____    ______ ____
ROOT
ATOM      1  C   UNL     1       1.277   9.362  19.469  0.00  0.00    +0.000 A 
ATOM      2  C   UNL     1       1.769   8.936  18.220  0.00  0.00    +0.000 A 
ATOM      3  C   UNL     1       2.300   7.648  18.064  0.00  0.00    +0.000 A 
ATOM      4  C   UNL     1       2.346   6.770  19.157  0.00  0.00    +0.000 A 
ATOM      5  C   UNL     1       1.823   7.204  20.393  0.00  0.00    +0.000 A 
ATOM      6  C   UNL     1       1.304   8.479  20.548  0.00  0.00    +0.000 A 
ENDROOT
BRANCH   4   7
ATOM      7  C   UNL     1       2.969   5.387  19.062  0.00  0.00    +0.000 C 
ATOM      8  C   UNL     1       2.715   4.848  17.628  0.00  0.00    +0.000 C 
ATOM      9  C   UNL     1       3.551   3.607  17.297  0.00  0.00    +0.000 C 
ATOM     10  C   UNL     1       5.078   3.802  17.554  0.00  0.00    +0.000 C 
ATOM     11  C   UNL     1       5.225   4.183  19.064  0.00  0.00    +0.000 C 
ATOM     12  C   UNL     1       4.468   5.462  19.448  0.00  0.00    +0.000 C 
BRANCH  10  13
ATOM     13  N   UNL     1       5.881   4.613  16.529  0.00  0.00    +0.000 N 
ATOM     14  C   UNL     1       5.395   5.964  16.138  0.00  0.00    +0.000 C 
ATOM     15  C   UNL     1       7.268   4.793  17.035  0.00  0.00    +0.000 C 
ATOM     16  C   UNL     1       5.979   3.833  15.266  0.00  0.00    +0.000 C 
ENDBRANCH  10  13
ENDBRANCH   4   7
BRANCH   1  17
ATOM     17  C   UNL     1       0.750  10.757  19.673  0.00  0.00    +0.000 C 
BRANCH  17  18
ATOM     18  C   UNL     1      -0.496  11.015  18.830  0.00  0.00    +0.000 C 
BRANCH  18  19
ATOM     19  C   UNL     1      -0.886  12.493  18.897  0.00  0.00    +0.000 C 
BRANCH  19  20
ATOM     20  C   UNL     1      -0.434  13.106  20.223  0.00  0.00    +0.000 C 
BRANCH  20  21
ATOM     21  C   UNL     1      -1.574  13.097  21.238  0.00  0.00    +0.000 C 
BRANCH  21  22
ATOM     22  C   UNL     1      -1.050  12.736  22.629  0.00  0.00    +0.000 C 
BRANCH  22  24
ATOM     23  C   UNL     1      -0.776  10.268  23.035  0.00  0.00    +0.000 C 
ATOM     24  C   UNL     1      -1.720  11.461  23.146  0.00  0.00    +0.000 C 
ENDBRANCH  22  24
ENDBRANCH  21  22
ENDBRANCH  20  21
ENDBRANCH  19  20
ENDBRANCH  18  19
ENDBRANCH  17  18
ENDBRANCH   1  17
TORSDOF 9
ENDMDL
