MODEL 1
REMARK VINA RESULT:      -7.9      0.000      0.000
REMARK  Name = 
REMARK  8 active torsions:
REMARK  status: ('A' for Active; 'I' for Inactive)
REMARK    1  A    between atoms: C_1  and  O_2
REMARK    2  A    between atoms: O_2  and  C_3
REMARK    3  A    between atoms: C_6  and  C_7
REMARK    4  A    between atoms: C_7  and  O_8
REMARK    5  A    between atoms: O_8  and  C_9
REMARK    6  A    between atoms: C_9  and  C_11
REMARK    7  A    between atoms: C_15  and  S_16
REMARK    8  A    between atoms: S_16  and  N_19
REMARK                            x       y       z     vdW  Elec       q    Type
REMARK                         _______ _______ _______ _____ _____    ______ ____
ROOT
ATOM      1  C   UNL     1       1.454   8.829  19.957  0.00  0.00    +0.000 A 
ATOM      2  C   UNL     1       1.604   9.316  18.647  0.00  0.00    +0.000 A 
ATOM      3  C   UNL     1       2.280   8.567  17.677  0.00  0.00    +0.000 A 
ATOM      4  C   UNL     1       2.785   7.310  17.999  0.00  0.00    +0.000 A 
ATOM      5  C   UNL     1       2.632   6.827  19.302  0.00  0.00    +0.000 A 
ATOM      6  C   UNL     1       2.012   7.594  20.296  0.00  0.00    +0.000 A 
ENDROOT
BRANCH   5   7
ATOM      7  S   UNL     1       3.118   5.159  19.670  0.00  0.00    +0.000 S 
ATOM      8  O   UNL     1       4.564   5.126  19.713  0.00  0.00    +0.000 OA
ATOM      9  O   UNL     1       2.322   4.696  20.788  0.00  0.00    +0.000 OA
BRANCH   7  10
ATOM     10  N   UNL     1       2.598   4.305  18.288  0.00  0.00    +0.000 NA
ATOM     11  C   UNL     1       1.249   3.688  18.331  0.00  0.00    +0.000 C 
ATOM     12  C   UNL     1       1.487   2.224  18.625  0.00  0.00    +0.000 C 
ATOM     13  C   UNL     1       2.787   1.919  17.911  0.00  0.00    +0.000 C 
ATOM     14  C   UNL     1       3.548   3.241  17.849  0.00  0.00    +0.000 C 
ENDBRANCH   7  10
ENDBRANCH   5   7
BRANCH   1  15
ATOM     15  C   UNL     1       0.665   9.636  20.927  0.00  0.00    +0.000 C 
ATOM     16  O   UNL     1       1.163  10.148  21.918  0.00  0.00    +0.000 OA
BRANCH  15  17
ATOM     17  O   UNL     1      -0.641   9.692  20.568  0.00  0.00    +0.000 OA
BRANCH  17  18
ATOM     18  C   UNL     1      -1.118  10.979  20.155  0.00  0.00    +0.000 C 
BRANCH  18  22
ATOM     19  C   UNL     1      -3.458  10.866  16.495  0.00  0.00    +0.000 A 
ATOM     20  C   UNL     1      -2.253  10.157  16.577  0.00  0.00    +0.000 A 
ATOM     21  C   UNL     1      -1.465  10.199  17.738  0.00  0.00    +0.000 A 
ATOM     22  C   UNL     1      -1.866  10.963  18.840  0.00  0.00    +0.000 A 
ATOM     23  C   UNL     1      -3.076  11.666  18.755  0.00  0.00    +0.000 A 
ATOM     24  C   UNL     1      -3.858  11.615  17.600  0.00  0.00    +0.000 A 
ATOM     25  F   UNL     1      -5.010  12.301  17.609  0.00  0.00    +0.000 F 
BRANCH  19  27
ATOM     26  C   UNL     1      -3.416  10.053  14.258  0.00  0.00    +0.000 C 
ATOM     27  O   UNL     1      -4.120  10.727  15.305  0.00  0.00    +0.000 OA
ENDBRANCH  19  27
ENDBRANCH  18  22
ENDBRANCH  17  18
ENDBRANCH  15  17
ENDBRANCH   1  15
TORSDOF 7
ENDMDL
MODEL 2
REMARK VINA RESULT:      -7.7      6.546      8.674
REMARK  Name = 
REMARK  8 active torsions:
REMARK  status: ('A' for Active; 'I' for Inactive)
REMARK    1  A    between atoms: C_1  and  O_2
REMARK    2  A    between atoms: O_2  and  C_3
REMARK    3  A    between atoms: C_6  and  C_7
REMARK    4  A    between atoms: C_7  and  O_8
REMARK    5  A    between atoms: O_8  and  C_9
REMARK    6  A    between atoms: C_9  and  C_11
REMARK    7  A    between atoms: C_15  and  S_16
REMARK    8  A    between atoms: S_16  and  N_19
REMARK                            x       y       z     vdW  Elec       q    Type
REMARK                         _______ _______ _______ _____ _____    ______ ____
ROOT
ATOM      1  C   UNL     1       5.596   5.172  17.712  0.00  0.00    +0.000 A 
ATOM      2  C   UNL     1       4.818   6.343  17.668  0.00  0.00    +0.000 A 
ATOM      3  C   UNL     1       3.421   6.277  17.719  0.00  0.00    +0.000 A 
ATOM      4  C   UNL     1       2.789   5.043  17.846  0.00  0.00    +0.000 A 
ATOM      5  C   UNL     1       3.565   3.881  17.893  0.00  0.00    +0.000 A 
ATOM      6  C   UNL     1       4.960   3.930  17.780  0.00  0.00    +0.000 A 
ENDROOT
BRANCH   5   7
ATOM      7  S   UNL     1       2.777   2.326  18.229  0.00  0.00    +0.000 S 
ATOM      8  O   UNL     1       1.538   2.294  17.482  0.00  0.00    +0.000 OA
ATOM      9  O   UNL     1       3.768   1.280  18.087  0.00  0.00    +0.000 OA
BRANCH   7  10
ATOM     10  N   UNL     1       2.404   2.448  19.890  0.00  0.00    +0.000 NA
ATOM     11  C   UNL     1       1.003   2.776  20.255  0.00  0.00    +0.000 C 
ATOM     12  C   UNL     1       1.009   4.253  20.581  0.00  0.00    +0.000 C 
ATOM     13  C   UNL     1       2.366   4.478  21.213  0.00  0.00    +0.000 C 
ATOM     14  C   UNL     1       3.280   3.403  20.631  0.00  0.00    +0.000 C 
ENDBRANCH   7  10
ENDBRANCH   5   7
BRANCH   1  15
ATOM     15  C   UNL     1       7.078   5.306  17.726  0.00  0.00    +0.000 C 
ATOM     16  O   UNL     1       7.681   5.862  18.631  0.00  0.00    +0.000 OA
BRANCH  15  17
ATOM     17  O   UNL     1       7.628   4.759  16.614  0.00  0.00    +0.000 OA
BRANCH  17  18
ATOM     18  C   UNL     1       7.391   5.466  15.390  0.00  0.00    +0.000 C 
BRANCH  18  22
ATOM     19  C   UNL     1       5.513   3.233  12.170  0.00  0.00    +0.000 A 
ATOM     20  C   UNL     1       4.745   3.679  13.253  0.00  0.00    +0.000 A 
ATOM     21  C   UNL     1       5.333   4.378  14.319  0.00  0.00    +0.000 A 
ATOM     22  C   UNL     1       6.708   4.638  14.325  0.00  0.00    +0.000 A 
ATOM     23  C   UNL     1       7.471   4.196  13.234  0.00  0.00    +0.000 A 
ATOM     24  C   UNL     1       6.880   3.506  12.175  0.00  0.00    +0.000 A 
ATOM     25  F   UNL     1       7.679   3.135  11.163  0.00  0.00    +0.000 F 
BRANCH  19  27
ATOM     26  C   UNL     1       3.522   3.109  10.871  0.00  0.00    +0.000 C 
ATOM     27  O   UNL     1       4.805   2.571  11.204  0.00  0.00    +0.000 OA
ENDBRANCH  19  27
ENDBRANCH  18  22
ENDBRANCH  17  18
ENDBRANCH  15  17
ENDBRANCH   1  15
TORSDOF 7
ENDMDL
MODEL 3
REMARK VINA RESULT:      -7.7      6.390      8.835
REMARK  Name = 
REMARK  8 active torsions:
REMARK  status: ('A' for Active; 'I' for Inactive)
REMARK    1  A    between atoms: C_1  and  O_2
REMARK    2  A    between atoms: O_2  and  C_3
REMARK    3  A    between atoms: C_6  and  C_7
REMARK    4  A    between atoms: C_7  and  O_8
REMARK    5  A    between atoms: O_8  and  C_9
REMARK    6  A    between atoms: C_9  and  C_11
REMARK    7  A    between atoms: C_15  and  S_16
REMARK    8  A    between atoms: S_16  and  N_19
REMARK                            x       y       z     vdW  Elec       q    Type
REMARK                         _______ _______ _______ _____ _____    ______ ____
ROOT
ATOM      1  C   UNL     1       6.750   5.248  17.406  0.00  0.00    +0.000 A 
ATOM      2  C   UNL     1       6.965   5.226  16.016  0.00  0.00    +0.000 A 
ATOM      3  C   UNL     1       6.124   4.492  15.173  0.00  0.00    +0.000 A 
ATOM      4  C   UNL     1       5.040   3.800  15.707  0.00  0.00    +0.000 A 
ATOM      5  C   UNL     1       4.827   3.827  17.088  0.00  0.00    +0.000 A 
ATOM      6  C   UNL     1       5.698   4.506  17.947  0.00  0.00    +0.000 A 
ENDROOT
BRANCH   5   7
ATOM      7  S   UNL     1       3.352   3.093  17.752  0.00  0.00    +0.000 S 
ATOM      8  O   UNL     1       2.235   3.568  16.963  0.00  0.00    +0.000 OA
ATOM      9  O   UNL     1       3.597   1.677  17.931  0.00  0.00    +0.000 OA
BRANCH   7  10
ATOM     10  N   UNL     1       3.253   3.792  19.305  0.00  0.00    +0.000 NA
ATOM     11  C   UNL     1       3.209   2.873  20.469  0.00  0.00    +0.000 C 
ATOM     12  C   UNL     1       1.752   2.805  20.871  0.00  0.00    +0.000 C 
ATOM     13  C   UNL     1       1.232   4.197  20.579  0.00  0.00    +0.000 C 
ATOM     14  C   UNL     1       2.115   4.745  19.461  0.00  0.00    +0.000 C 
ENDBRANCH   7  10
ENDBRANCH   5   7
BRANCH   1  15
ATOM     15  C   UNL     1       7.634   6.102  18.246  0.00  0.00    +0.000 C 
ATOM     16  O   UNL     1       7.846   5.870  19.426  0.00  0.00    +0.000 OA
BRANCH  15  17
ATOM     17  O   UNL     1       8.125   7.145  17.534  0.00  0.00    +0.000 OA
BRANCH  17  18
ATOM     18  C   UNL     1       7.363   8.358  17.599  0.00  0.00    +0.000 C 
BRANCH  18  22
ATOM     19  C   UNL     1       9.686  11.809  18.853  0.00  0.00    +0.000 A 
ATOM     20  C   UNL     1       9.848  10.582  19.509  0.00  0.00    +0.000 A 
ATOM     21  C   UNL     1       9.090   9.459  19.140  0.00  0.00    +0.000 A 
ATOM     22  C   UNL     1       8.144   9.547  18.112  0.00  0.00    +0.000 A 
ATOM     23  C   UNL     1       7.992  10.776  17.455  0.00  0.00    +0.000 A 
ATOM     24  C   UNL     1       8.753  11.887  17.821  0.00  0.00    +0.000 A 
ATOM     25  F   UNL     1       8.558  13.019  17.129  0.00  0.00    +0.000 F 
BRANCH  19  27
ATOM     26  C   UNL     1      10.765  12.817  20.721  0.00  0.00    +0.000 C 
ATOM     27  O   UNL     1      10.495  12.812  19.316  0.00  0.00    +0.000 OA
ENDBRANCH  19  27
ENDBRANCH  18  22
ENDBRANCH  17  18
ENDBRANCH  15  17
ENDBRANCH   1  15
TORSDOF 7
ENDMDL
MODEL 4
REMARK VINA RESULT:      -7.7      2.386      3.336
REMARK  Name = 
REMARK  8 active torsions:
REMARK  status: ('A' for Active; 'I' for Inactive)
REMARK    1  A    between atoms: C_1  and  O_2
REMARK    2  A    between atoms: O_2  and  C_3
REMARK    3  A    between atoms: C_6  and  C_7
REMARK    4  A    between atoms: C_7  and  O_8
REMARK    5  A    between atoms: O_8  and  C_9
REMARK    6  A    between atoms: C_9  and  C_11
REMARK    7  A    between atoms: C_15  and  S_16
REMARK    8  A    between atoms: S_16  and  N_19
REMARK                            x       y       z     vdW  Elec       q    Type
REMARK                         _______ _______ _______ _____ _____    ______ ____
ROOT
ATOM      1  C   UNL     1       2.234   7.333  19.000  0.00  0.00    +0.000 A 
ATOM      2  C   UNL     1       1.607   6.922  20.190  0.00  0.00    +0.000 A 
ATOM      3  C   UNL     1       1.923   5.693  20.778  0.00  0.00    +0.000 A 
ATOM      4  C   UNL     1       2.892   4.876  20.201  0.00  0.00    +0.000 A 
ATOM      5  C   UNL     1       3.516   5.289  19.020  0.00  0.00    +0.000 A 
ATOM      6  C   UNL     1       3.163   6.487  18.389  0.00  0.00    +0.000 A 
ENDROOT
BRANCH   5   7
ATOM      7  S   UNL     1       4.870   4.336  18.378  0.00  0.00    +0.000 S 
ATOM      8  O   UNL     1       5.985   4.497  19.287  0.00  0.00    +0.000 OA
ATOM      9  O   UNL     1       4.370   3.023  18.027  0.00  0.00    +0.000 OA
BRANCH   7  10
ATOM     10  N   UNL     1       5.238   5.146  16.922  0.00  0.00    +0.000 NA
ATOM     11  C   UNL     1       4.862   4.476  15.652  0.00  0.00    +0.000 C 
ATOM     12  C   UNL     1       6.139   3.853  15.134  0.00  0.00    +0.000 C 
ATOM     13  C   UNL     1       7.215   4.831  15.557  0.00  0.00    +0.000 C 
ATOM     14  C   UNL     1       6.675   5.534  16.799  0.00  0.00    +0.000 C 
ENDBRANCH   7  10
ENDBRANCH   5   7
BRANCH   1  15
ATOM     15  C   UNL     1       1.911   8.680  18.457  0.00  0.00    +0.000 C 
ATOM     16  O   UNL     1       2.378   9.098  17.408  0.00  0.00    +0.000 OA
BRANCH  15  17
ATOM     17  O   UNL     1       1.072   9.352  19.284  0.00  0.00    +0.000 OA
BRANCH  17  18
ATOM     18  C   UNL     1       0.640  10.638  18.821  0.00  0.00    +0.000 C 
BRANCH  18  22
ATOM     19  C   UNL     1      -3.506  10.855  17.538  0.00  0.00    +0.000 A 
ATOM     20  C   UNL     1      -3.068  11.626  18.622  0.00  0.00    +0.000 A 
ATOM     21  C   UNL     1      -1.740  11.554  19.073  0.00  0.00    +0.000 A 
ATOM     22  C   UNL     1      -0.825  10.697  18.451  0.00  0.00    +0.000 A 
ATOM     23  C   UNL     1      -1.268   9.932  17.362  0.00  0.00    +0.000 A 
ATOM     24  C   UNL     1      -2.586  10.013  16.915  0.00  0.00    +0.000 A 
ATOM     25  F   UNL     1      -2.921   9.261  15.855  0.00  0.00    +0.000 F 
BRANCH  19  27
ATOM     26  C   UNL     1      -5.711  11.356  18.281  0.00  0.00    +0.000 C 
ATOM     27  O   UNL     1      -4.822  11.033  17.208  0.00  0.00    +0.000 OA
ENDBRANCH  19  27
ENDBRANCH  18  22
ENDBRANCH  17  18
ENDBRANCH  15  17
ENDBRANCH   1  15
TORSDOF 7
ENDMDL
MODEL 5
REMARK VINA RESULT:      -7.7      4.218      8.580
REMARK  Name = 
REMARK  8 active torsions:
REMARK  status: ('A' for Active; 'I' for Inactive)
REMARK    1  A    between atoms: C_1  and  O_2
REMARK    2  A    between atoms: O_2  and  C_3
REMARK    3  A    between atoms: C_6  and  C_7
REMARK    4  A    between atoms: C_7  and  O_8
REMARK    5  A    between atoms: O_8  and  C_9
REMARK    6  A    between atoms: C_9  and  C_11
REMARK    7  A    between atoms: C_15  and  S_16
REMARK    8  A    between atoms: S_16  and  N_19
REMARK                            x       y       z     vdW  Elec       q    Type
REMARK                         _______ _______ _______ _____ _____    ______ ____
ROOT
ATOM      1  C   UNL     1       2.161   5.914  20.029  0.00  0.00    +0.000 A 
ATOM      2  C   UNL     1       2.635   6.359  18.782  0.00  0.00    +0.000 A 
ATOM      3  C   UNL     1       2.451   7.686  18.378  0.00  0.00    +0.000 A 
ATOM      4  C   UNL     1       1.821   8.589  19.230  0.00  0.00    +0.000 A 
ATOM      5  C   UNL     1       1.354   8.145  20.470  0.00  0.00    +0.000 A 
ATOM      6  C   UNL     1       1.477   6.806  20.859  0.00  0.00    +0.000 A 
ENDROOT
BRANCH   5   7
ATOM      7  S   UNL     1       0.709   9.328  21.627  0.00  0.00    +0.000 S 
ATOM      8  O   UNL     1      -0.574   8.838  22.082  0.00  0.00    +0.000 OA
ATOM      9  O   UNL     1       1.762   9.660  22.564  0.00  0.00    +0.000 OA
BRANCH   7  10
ATOM     10  N   UNL     1       0.448  10.702  20.649  0.00  0.00    +0.000 NA
ATOM     11  C   UNL     1       0.465  12.029  21.313  0.00  0.00    +0.000 C 
ATOM     12  C   UNL     1      -0.989  12.405  21.494  0.00  0.00    +0.000 C 
ATOM     13  C   UNL     1      -1.668  11.822  20.272  0.00  0.00    +0.000 C 
ATOM     14  C   UNL     1      -0.809  10.634  19.846  0.00  0.00    +0.000 C 
ENDBRANCH   7  10
ENDBRANCH   5   7
BRANCH   1  15
ATOM     15  C   UNL     1       2.446   4.511  20.436  0.00  0.00    +0.000 C 
ATOM     16  O   UNL     1       2.323   4.121  21.587  0.00  0.00    +0.000 OA
BRANCH  15  17
ATOM     17  O   UNL     1       2.866   3.772  19.381  0.00  0.00    +0.000 OA
BRANCH  17  18
ATOM     18  C   UNL     1       4.232   3.339  19.429  0.00  0.00    +0.000 C 
BRANCH  18  22
ATOM     19  C   UNL     1       6.646   5.093  16.270  0.00  0.00    +0.000 A 
ATOM     20  C   UNL     1       5.583   4.240  15.946  0.00  0.00    +0.000 A 
ATOM     21  C   UNL     1       4.806   3.639  16.949  0.00  0.00    +0.000 A 
ATOM     22  C   UNL     1       5.085   3.874  18.300  0.00  0.00    +0.000 A 
ATOM     23  C   UNL     1       6.145   4.734  18.618  0.00  0.00    +0.000 A 
ATOM     24  C   UNL     1       6.911   5.333  17.617  0.00  0.00    +0.000 A 
ATOM     25  F   UNL     1       7.895   6.157  18.008  0.00  0.00    +0.000 F 
BRANCH  19  27
ATOM     26  C   UNL     1       7.204   4.877  13.966  0.00  0.00    +0.000 C 
ATOM     27  O   UNL     1       7.312   5.608  15.190  0.00  0.00    +0.000 OA
ENDBRANCH  19  27
ENDBRANCH  18  22
ENDBRANCH  17  18
ENDBRANCH  15  17
ENDBRANCH   1  15
TORSDOF 7
ENDMDL
MODEL 6
REMARK VINA RESULT:      -7.6      6.771      8.790
REMARK  Name = 
REMARK  8 active torsions:
REMARK  status: ('A' for Active; 'I' for Inactive)
REMARK    1  A    between atoms: C_1  and  O_2
REMARK    2  A    between atoms: O_2  and  C_3
REMARK    3  A    between atoms: C_6  and  C_7
REMARK    4  A    between atoms: C_7  and  O_8
REMARK    5  A    between atoms: O_8  and  C_9
REMARK    6  A    between atoms: C_9  and  C_11
REMARK    7  A    between atoms: C_15  and  S_16
REMARK    8  A    between atoms: S_16  and  N_19
REMARK                            x       y       z     vdW  Elec       q    Type
REMARK                         _______ _______ _______ _____ _____    ______ ____
ROOT
ATOM      1  C   UNL     1       6.612   6.033  17.600  0.00  0.00    +0.000 A 
ATOM      2  C   UNL     1       6.297   6.212  16.241  0.00  0.00    +0.000 A 
ATOM      3  C   UNL     1       5.374   5.375  15.603  0.00  0.00    +0.000 A 
ATOM      4  C   UNL     1       4.733   4.373  16.326  0.00  0.00    +0.000 A 
ATOM      5  C   UNL     1       5.045   4.200  17.677  0.00  0.00    +0.000 A 
ATOM      6  C   UNL     1       6.012   4.990  18.309  0.00  0.00    +0.000 A 
ENDROOT
BRANCH   5   7
ATOM      7  S   UNL     1       4.106   3.041  18.642  0.00  0.00    +0.000 S 
ATOM      8  O   UNL     1       3.682   1.979  17.756  0.00  0.00    +0.000 OA
ATOM      9  O   UNL     1       4.849   2.759  19.853  0.00  0.00    +0.000 OA
BRANCH   7  10
ATOM     10  N   UNL     1       2.735   3.953  19.088  0.00  0.00    +0.000 NA
ATOM     11  C   UNL     1       2.828   4.773  20.321  0.00  0.00    +0.000 C 
ATOM     12  C   UNL     1       2.119   3.972  21.390  0.00  0.00    +0.000 C 
ATOM     13  C   UNL     1       0.999   3.281  20.641  0.00  0.00    +0.000 C 
ATOM     14  C   UNL     1       1.487   3.140  19.201  0.00  0.00    +0.000 C 
ENDBRANCH   7  10
ENDBRANCH   5   7
BRANCH   1  15
ATOM     15  C   UNL     1       7.546   6.996  18.243  0.00  0.00    +0.000 C 
ATOM     16  O   UNL     1       8.405   6.649  19.039  0.00  0.00    +0.000 OA
BRANCH  15  17
ATOM     17  O   UNL     1       7.292   8.266  17.843  0.00  0.00    +0.000 OA
BRANCH  17  18
ATOM     18  C   UNL     1       8.433   9.028  17.427  0.00  0.00    +0.000 C 
BRANCH  18  22
ATOM     19  C   UNL     1       9.530  12.437  19.888  0.00  0.00    +0.000 A 
ATOM     20  C   UNL     1       9.580  11.143  20.423  0.00  0.00    +0.000 A 
ATOM     21  C   UNL     1       9.205  10.028  19.657  0.00  0.00    +0.000 A 
ATOM     22  C   UNL     1       8.761  10.189  18.339  0.00  0.00    +0.000 A 
ATOM     23  C   UNL     1       8.720  11.485  17.807  0.00  0.00    +0.000 A 
ATOM     24  C   UNL     1       9.100  12.589  18.571  0.00  0.00    +0.000 A 
ATOM     25  F   UNL     1       9.048  13.792  17.979  0.00  0.00    +0.000 F 
BRANCH  19  27
ATOM     26  C   UNL     1       9.306  13.440  22.035  0.00  0.00    +0.000 C 
ATOM     27  O   UNL     1       9.929  13.424  20.748  0.00  0.00    +0.000 OA
ENDBRANCH  19  27
ENDBRANCH  18  22
ENDBRANCH  17  18
ENDBRANCH  15  17
ENDBRANCH   1  15
TORSDOF 7
ENDMDL
MODEL 7
REMARK VINA RESULT:      -7.5      4.082      8.517
REMARK  Name = 
REMARK  8 active torsions:
REMARK  status: ('A' for Active; 'I' for Inactive)
REMARK    1  A    between atoms: C_1  and  O_2
REMARK    2  A    between atoms: O_2  and  C_3
REMARK    3  A    between atoms: C_6  and  C_7
REMARK    4  A    between atoms: C_7  and  O_8
REMARK    5  A    between atoms: O_8  and  C_9
REMARK    6  A    between atoms: C_9  and  C_11
REMARK    7  A    between atoms: C_15  and  S_16
REMARK    8  A    between atoms: S_16  and  N_19
REMARK                            x       y       z     vdW  Elec       q    Type
REMARK                         _______ _______ _______ _____ _____    ______ ____
ROOT
ATOM      1  C   UNL     1       2.125   6.914  19.535  0.00  0.00    +0.000 A 
ATOM      2  C   UNL     1       2.523   7.148  18.207  0.00  0.00    +0.000 A 
ATOM      3  C   UNL     1       2.364   8.410  17.624  0.00  0.00    +0.000 A 
ATOM      4  C   UNL     1       1.835   9.459  18.373  0.00  0.00    +0.000 A 
ATOM      5  C   UNL     1       1.444   9.223  19.694  0.00  0.00    +0.000 A 
ATOM      6  C   UNL     1       1.541   7.950  20.267  0.00  0.00    +0.000 A 
ENDROOT
BRANCH   5   7
ATOM      7  S   UNL     1       0.934  10.592  20.704  0.00  0.00    +0.000 S 
ATOM      8  O   UNL     1       1.216  10.248  22.080  0.00  0.00    +0.000 OA
ATOM      9  O   UNL     1       1.455  11.806  20.110  0.00  0.00    +0.000 OA
BRANCH   7  10
ATOM     10  N   UNL     1      -0.758  10.606  20.486  0.00  0.00    +0.000 NA
ATOM     11  C   UNL     1      -1.270  10.640  19.093  0.00  0.00    +0.000 C 
ATOM     12  C   UNL     1      -1.651  12.081  18.840  0.00  0.00    +0.000 C 
ATOM     13  C   UNL     1      -2.157  12.562  20.184  0.00  0.00    +0.000 C 
ATOM     14  C   UNL     1      -1.449  11.703  21.228  0.00  0.00    +0.000 C 
ENDBRANCH   7  10
ENDBRANCH   5   7
BRANCH   1  15
ATOM     15  C   UNL     1       2.383   5.572  20.125  0.00  0.00    +0.000 C 
ATOM     16  O   UNL     1       2.018   5.266  21.250  0.00  0.00    +0.000 OA
BRANCH  15  17
ATOM     17  O   UNL     1       3.075   4.785  19.266  0.00  0.00    +0.000 OA
BRANCH  17  18
ATOM     18  C   UNL     1       4.481   4.667  19.526  0.00  0.00    +0.000 C 
BRANCH  18  22
ATOM     19  C   UNL     1       6.903   5.338  15.982  0.00  0.00    +0.000 A 
ATOM     20  C   UNL     1       5.965   4.298  16.001  0.00  0.00    +0.000 A 
ATOM     21  C   UNL     1       5.190   4.044  17.143  0.00  0.00    +0.000 A 
ATOM     22  C   UNL     1       5.346   4.822  18.296  0.00  0.00    +0.000 A 
ATOM     23  C   UNL     1       6.282   5.866  18.268  0.00  0.00    +0.000 A 
ATOM     24  C   UNL     1       7.046   6.118  17.128  0.00  0.00    +0.000 A 
ATOM     25  F   UNL     1       7.904   7.148  17.180  0.00  0.00    +0.000 F 
BRANCH  19  27
ATOM     26  C   UNL     1       7.050   4.765  13.676  0.00  0.00    +0.000 C 
ATOM     27  O   UNL     1       7.582   5.471  14.800  0.00  0.00    +0.000 OA
ENDBRANCH  19  27
ENDBRANCH  18  22
ENDBRANCH  17  18
ENDBRANCH  15  17
ENDBRANCH   1  15
TORSDOF 7
ENDMDL
MODEL 8
REMARK VINA RESULT:      -7.5      5.723      8.401
REMARK  Name = 
REMARK  8 active torsions:
REMARK  status: ('A' for Active; 'I' for Inactive)
REMARK    1  A    between atoms: C_1  and  O_2
REMARK    2  A    between atoms: O_2  and  C_3
REMARK    3  A    between atoms: C_6  and  C_7
REMARK    4  A    between atoms: C_7  and  O_8
REMARK    5  A    between atoms: O_8  and  C_9
REMARK    6  A    between atoms: C_9  and  C_11
REMARK    7  A    between atoms: C_15  and  S_16
REMARK    8  A    between atoms: S_16  and  N_19
REMARK                            x       y       z     vdW  Elec       q    Type
REMARK                         _______ _______ _______ _____ _____    ______ ____
ROOT
ATOM      1  C   UNL     1       5.157   6.275  17.097  0.00  0.00    +0.000 A 
ATOM      2  C   UNL     1       4.253   7.313  17.384  0.00  0.00    +0.000 A 
ATOM      3  C   UNL     1       2.930   7.032  17.744  0.00  0.00    +0.000 A 
ATOM      4  C   UNL     1       2.507   5.710  17.854  0.00  0.00    +0.000 A 
ATOM      5  C   UNL     1       3.410   4.680  17.572  0.00  0.00    +0.000 A 
ATOM      6  C   UNL     1       4.716   4.950  17.150  0.00  0.00    +0.000 A 
ENDROOT
BRANCH   5   7
ATOM      7  S   UNL     1       2.927   2.998  17.879  0.00  0.00    +0.000 S 
ATOM      8  O   UNL     1       1.574   2.837  17.392  0.00  0.00    +0.000 OA
ATOM      9  O   UNL     1       3.998   2.134  17.426  0.00  0.00    +0.000 OA
BRANCH   7  10
ATOM     10  N   UNL     1       2.901   2.923  19.583  0.00  0.00    +0.000 NA
ATOM     11  C   UNL     1       1.619   2.557  20.234  0.00  0.00    +0.000 C 
ATOM     12  C   UNL     1       1.021   3.863  20.705  0.00  0.00    +0.000 C 
ATOM     13  C   UNL     1       2.226   4.692  21.095  0.00  0.00    +0.000 C 
ATOM     14  C   UNL     1       3.382   4.172  20.245  0.00  0.00    +0.000 C 
ENDBRANCH   7  10
ENDBRANCH   5   7
BRANCH   1  15
ATOM     15  C   UNL     1       6.569   6.630  16.788  0.00  0.00    +0.000 C 
ATOM     16  O   UNL     1       7.335   5.858  16.232  0.00  0.00    +0.000 OA
BRANCH  15  17
ATOM     17  O   UNL     1       6.864   7.879  17.222  0.00  0.00    +0.000 OA
BRANCH  17  18
ATOM     18  C   UNL     1       8.089   8.009  17.956  0.00  0.00    +0.000 C 
BRANCH  18  22
ATOM     19  C   UNL     1       9.224  12.147  18.643  0.00  0.00    +0.000 A 
ATOM     20  C   UNL     1       9.790  11.129  19.420  0.00  0.00    +0.000 A 
ATOM     21  C   UNL     1       9.420   9.787  19.236  0.00  0.00    +0.000 A 
ATOM     22  C   UNL     1       8.465   9.439  18.274  0.00  0.00    +0.000 A 
ATOM     23  C   UNL     1       7.907  10.463  17.494  0.00  0.00    +0.000 A 
ATOM     24  C   UNL     1       8.283  11.793  17.677  0.00  0.00    +0.000 A 
ATOM     25  F   UNL     1       7.714  12.707  16.877  0.00  0.00    +0.000 F 
BRANCH  19  27
ATOM     26  C   UNL     1      10.490  14.034  17.931  0.00  0.00    +0.000 C 
ATOM     27  O   UNL     1       9.683  13.404  18.930  0.00  0.00    +0.000 OA
ENDBRANCH  19  27
ENDBRANCH  18  22
ENDBRANCH  17  18
ENDBRANCH  15  17
ENDBRANCH   1  15
TORSDOF 7
ENDMDL
MODEL 9
REMARK VINA RESULT:      -7.5      3.694      5.604
REMARK  Name = 
REMARK  8 active torsions:
REMARK  status: ('A' for Active; 'I' for Inactive)
REMARK    1  A    between atoms: C_1  and  O_2
REMARK    2  A    between atoms: O_2  and  C_3
REMARK    3  A    between atoms: C_6  and  C_7
REMARK    4  A    between atoms: C_7  and  O_8
REMARK    5  A    between atoms: O_8  and  C_9
REMARK    6  A    between atoms: C_9  and  C_11
REMARK    7  A    between atoms: C_15  and  S_16
REMARK    8  A    between atoms: S_16  and  N_19
REMARK                            x       y       z     vdW  Elec       q    Type
REMARK                         _______ _______ _______ _____ _____    ______ ____
ROOT
ATOM      1  C   UNL     1       3.164   5.097  18.665  0.00  0.00    +0.000 A 
ATOM      2  C   UNL     1       3.147   3.699  18.805  0.00  0.00    +0.000 A 
ATOM      3  C   UNL     1       3.828   2.880  17.897  0.00  0.00    +0.000 A 
ATOM      4  C   UNL     1       4.560   3.452  16.861  0.00  0.00    +0.000 A 
ATOM      5  C   UNL     1       4.578   4.843  16.726  0.00  0.00    +0.000 A 
ATOM      6  C   UNL     1       3.850   5.669  17.591  0.00  0.00    +0.000 A 
ENDROOT
BRANCH   5   7
ATOM      7  S   UNL     1       5.647   5.583  15.516  0.00  0.00    +0.000 S 
ATOM      8  O   UNL     1       5.776   4.647  14.419  0.00  0.00    +0.000 OA
ATOM      9  O   UNL     1       5.203   6.943  15.296  0.00  0.00    +0.000 OA
BRANCH   7  10
ATOM     10  N   UNL     1       7.141   5.663  16.337  0.00  0.00    +0.000 NA
ATOM     11  C   UNL     1       7.455   4.574  17.295  0.00  0.00    +0.000 C 
ATOM     12  C   UNL     1       7.155   5.144  18.663  0.00  0.00    +0.000 C 
ATOM     13  C   UNL     1       7.529   6.606  18.535  0.00  0.00    +0.000 C 
ATOM     14  C   UNL     1       7.358   6.952  17.059  0.00  0.00    +0.000 C 
ENDBRANCH   7  10
ENDBRANCH   5   7
BRANCH   1  15
ATOM     15  C   UNL     1       2.481   5.922  19.699  0.00  0.00    +0.000 C 
ATOM     16  O   UNL     1       1.723   5.443  20.529  0.00  0.00    +0.000 OA
BRANCH  15  17
ATOM     17  O   UNL     1       2.800   7.232  19.568  0.00  0.00    +0.000 OA
BRANCH  17  18
ATOM     18  C   UNL     1       1.779   8.068  19.007  0.00  0.00    +0.000 C 
BRANCH  18  22
ATOM     19  C   UNL     1       0.106  10.887  21.860  0.00  0.00    +0.000 A 
ATOM     20  C   UNL     1       0.238   9.536  22.207  0.00  0.00    +0.000 A 
ATOM     21  C   UNL     1       0.750   8.601  21.294  0.00  0.00    +0.000 A 
ATOM     22  C   UNL     1       1.132   9.000  20.007  0.00  0.00    +0.000 A 
ATOM     23  C   UNL     1       1.004  10.355  19.669  0.00  0.00    +0.000 A 
ATOM     24  C   UNL     1       0.500  11.280  20.582  0.00  0.00    +0.000 A 
ATOM     25  F   UNL     1       0.428  12.559  20.183  0.00  0.00    +0.000 F 
BRANCH  19  27
ATOM     26  C   UNL     1      -1.757  11.431  23.239  0.00  0.00    +0.000 C 
ATOM     27  O   UNL     1      -0.403  11.682  22.852  0.00  0.00    +0.000 OA
ENDBRANCH  19  27
ENDBRANCH  18  22
ENDBRANCH  17  18
ENDBRANCH  15  17
ENDBRANCH   1  15
TORSDOF 7
ENDMDL
