MODEL 1
REMARK VINA RESULT:      -7.7      0.000      0.000
REMARK  Name = 
REMARK  15 active torsions:
REMARK  status: ('A' for Active; 'I' for Inactive)
REMARK    1  A    between atoms: C_1  and  C_2
REMARK    2  A    between atoms: C_2  and  C_3
REMARK    3  A    between atoms: C_3  and  C_4
REMARK    4  A    between atoms: C_4  and  C_5
REMARK    5  A    between atoms: C_4  and  C_6
REMARK    6  A    between atoms: C_4  and  C_7
REMARK    7  A    between atoms: N_9  and  C_10
REMARK    8  A    between atoms: C_10  and  C_11
REMARK    9  A    between atoms: C_11  and  C_12
REMARK   10  A    between atoms: C_12  and  O_13
REMARK   11  A    between atoms: O_13  and  C_14
REMARK   12  A    between atoms: C_17  and  S_18
REMARK   13  A    between atoms: S_18  and  C_21
REMARK   14  A    between atoms: C_21  and  C_22
REMARK   15  A    between atoms: N_24  and  O_25
REMARK                            x       y       z     vdW  Elec       q    Type
REMARK                         _______ _______ _______ _____ _____    ______ ____
ROOT
ATOM      1  C   UNL     1       1.588   9.282  18.827  0.00  0.00    +0.000 A 
ATOM      2  C   UNL     1       2.009   8.465  17.776  0.00  0.00    +0.000 A 
ATOM      3  C   UNL     1       2.285   7.110  17.992  0.00  0.00    +0.000 A 
ATOM      4  C   UNL     1       2.192   6.574  19.282  0.00  0.00    +0.000 A 
ATOM      5  C   UNL     1       1.745   7.374  20.335  0.00  0.00    +0.000 A 
ATOM      6  C   UNL     1       1.458   8.722  20.102  0.00  0.00    +0.000 A 
ENDROOT
BRANCH   4   7
ATOM      7  S   UNL     1       2.520   4.834  19.534  0.00  0.00    +0.000 S 
ATOM      8  O   UNL     1       2.645   4.621  20.968  0.00  0.00    +0.000 OA
ATOM      9  O   UNL     1       1.485   4.117  18.809  0.00  0.00    +0.000 OA
BRANCH   7  10
ATOM     10  C   UNL     1       4.124   4.455  18.767  0.00  0.00    +0.000 C 
ATOM     11  C   UNL     1       5.208   5.359  19.396  0.00  0.00    +0.000 C 
ATOM     12  C   UNL     1       6.431   5.555  18.515  0.00  0.00    +0.000 C 
ATOM     13  O   UNL     1       6.046   5.929  17.201  0.00  0.00    +0.000 OA
ATOM     14  C   UNL     1       5.317   4.911  16.534  0.00  0.00    +0.000 C 
ATOM     15  C   UNL     1       3.991   4.655  17.235  0.00  0.00    +0.000 C 
BRANCH  10  16
ATOM     16  C   UNL     1       4.431   2.985  19.055  0.00  0.00    +0.000 C 
ATOM     17  O   UNL     1       5.136   2.621  19.999  0.00  0.00    +0.000 OA
ATOM     18  N   UNL     1       3.939   2.058  18.168  0.00  0.00    +0.000 N 
ATOM     19  H   UNL     1       3.235   2.244  17.454  0.00  0.00    +0.000 HD
BRANCH  18  20
ATOM     20  O   UNL     1       4.199   0.702  18.463  0.00  0.00    +0.000 OA
ATOM     21  H   UNL     1       4.765   0.754  19.263  0.00  0.00    +0.000 HD
ENDBRANCH  18  20
ENDBRANCH  10  16
ENDBRANCH   7  10
ENDBRANCH   4   7
BRANCH   1  22
ATOM     22  O   UNL     1       1.359  10.597  18.509  0.00  0.00    +0.000 OA
BRANCH  22  23
ATOM     23  C   UNL     1       1.547  11.533  19.575  0.00  0.00    +0.000 C 
BRANCH  23  24
ATOM     24  C   UNL     1       0.308  12.417  19.705  0.00  0.00    +0.000 C 
BRANCH  24  25
ATOM     25  C   UNL     1      -0.883  11.594  20.193  0.00  0.00    +0.000 C 
BRANCH  25  28
ATOM     26  C   UNL     1      -2.875  11.537  18.738  0.00  0.00    +0.000 C 
ATOM     27  O   UNL     1      -3.382  12.486  19.345  0.00  0.00    +0.000 OA
ATOM     28  N   UNL     1      -1.645  11.028  19.094  0.00  0.00    +0.000 N 
ATOM     29  H   UNL     1      -1.243  10.272  18.566  0.00  0.00    +0.000 HD
BRANCH  26  30
ATOM     30  C   UNL     1      -3.564  10.858  17.540  0.00  0.00    +0.000 C 
ATOM     31  C   UNL     1      -5.001  11.402  17.402  0.00  0.00    +0.000 C 
ATOM     32  C   UNL     1      -3.647   9.341  17.809  0.00  0.00    +0.000 C 
BRANCH  30  33
ATOM     33  C   UNL     1      -2.759  11.110  16.237  0.00  0.00    +0.000 C 
BRANCH  33  35
ATOM     34  C   UNL     1      -3.554  10.030  14.092  0.00  0.00    +0.000 C 
ATOM     35  C   UNL     1      -2.649   9.892  15.307  0.00  0.00    +0.000 C 
ENDBRANCH  33  35
ENDBRANCH  30  33
ENDBRANCH  26  30
ENDBRANCH  25  28
ENDBRANCH  24  25
ENDBRANCH  23  24
ENDBRANCH  22  23
ENDBRANCH   1  22
TORSDOF 12
ENDMDL
MODEL 2
REMARK VINA RESULT:      -7.6      1.631      2.997
REMARK  Name = 
REMARK  15 active torsions:
REMARK  status: ('A' for Active; 'I' for Inactive)
REMARK    1  A    between atoms: C_1  and  C_2
REMARK    2  A    between atoms: C_2  and  C_3
REMARK    3  A    between atoms: C_3  and  C_4
REMARK    4  A    between atoms: C_4  and  C_5
REMARK    5  A    between atoms: C_4  and  C_6
REMARK    6  A    between atoms: C_4  and  C_7
REMARK    7  A    between atoms: N_9  and  C_10
REMARK    8  A    between atoms: C_10  and  C_11
REMARK    9  A    between atoms: C_11  and  C_12
REMARK   10  A    between atoms: C_12  and  O_13
REMARK   11  A    between atoms: O_13  and  C_14
REMARK   12  A    between atoms: C_17  and  S_18
REMARK   13  A    between atoms: S_18  and  C_21
REMARK   14  A    between atoms: C_21  and  C_22
REMARK   15  A    between atoms: N_24  and  O_25
REMARK                            x       y       z     vdW  Elec       q    Type
REMARK                         _______ _______ _______ _____ _____    ______ ____
ROOT
ATOM      1  C   UNL     1       1.363   8.952  18.976  0.00  0.00    +0.000 A 
ATOM      2  C   UNL     1       2.017   8.611  17.790  0.00  0.00    +0.000 A 
ATOM      3  C   UNL     1       2.831   7.474  17.726  0.00  0.00    +0.000 A 
ATOM      4  C   UNL     1       3.039   6.697  18.871  0.00  0.00    +0.000 A 
ATOM      5  C   UNL     1       2.369   7.011  20.055  0.00  0.00    +0.000 A 
ATOM      6  C   UNL     1       1.546   8.140  20.101  0.00  0.00    +0.000 A 
ENDROOT
BRANCH   4   7
ATOM      7  S   UNL     1       4.058   5.231  18.763  0.00  0.00    +0.000 S 
ATOM      8  O   UNL     1       4.348   5.010  17.353  0.00  0.00    +0.000 OA
ATOM      9  O   UNL     1       5.166   5.438  19.680  0.00  0.00    +0.000 OA
BRANCH   7  10
ATOM     10  C   UNL     1       3.074   3.825  19.362  0.00  0.00    +0.000 C 
ATOM     11  C   UNL     1       1.844   3.645  18.442  0.00  0.00    +0.000 C 
ATOM     12  C   UNL     1       0.687   2.914  19.103  0.00  0.00    +0.000 C 
ATOM     13  O   UNL     1       0.393   3.482  20.370  0.00  0.00    +0.000 OA
ATOM     14  C   UNL     1       1.454   3.328  21.298  0.00  0.00    +0.000 C 
ATOM     15  C   UNL     1       2.684   4.097  20.838  0.00  0.00    +0.000 C 
BRANCH  10  16
ATOM     16  C   UNL     1       3.965   2.585  19.300  0.00  0.00    +0.000 C 
ATOM     17  O   UNL     1       4.963   2.441  20.010  0.00  0.00    +0.000 OA
ATOM     18  N   UNL     1       3.651   1.635  18.358  0.00  0.00    +0.000 N 
ATOM     19  H   UNL     1       2.775   1.594  17.835  0.00  0.00    +0.000 HD
BRANCH  18  20
ATOM     20  O   UNL     1       4.459   0.478  18.333  0.00  0.00    +0.000 OA
ATOM     21  H   UNL     1       5.177   0.723  17.711  0.00  0.00    +0.000 HD
ENDBRANCH  18  20
ENDBRANCH  10  16
ENDBRANCH   7  10
ENDBRANCH   4   7
BRANCH   1  22
ATOM     22  O   UNL     1       0.602  10.093  18.934  0.00  0.00    +0.000 OA
BRANCH  22  23
ATOM     23  C   UNL     1       1.326  11.311  18.732  0.00  0.00    +0.000 C 
BRANCH  23  24
ATOM     24  C   UNL     1       0.557  12.473  19.357  0.00  0.00    +0.000 C 
BRANCH  24  25
ATOM     25  C   UNL     1      -0.308  13.164  18.305  0.00  0.00    +0.000 C 
BRANCH  25  28
ATOM     26  C   UNL     1      -2.333  11.767  18.121  0.00  0.00    +0.000 C 
ATOM     27  O   UNL     1      -2.720  12.126  19.238  0.00  0.00    +0.000 OA
ATOM     28  N   UNL     1      -1.150  12.226  17.585  0.00  0.00    +0.000 N 
ATOM     29  H   UNL     1      -0.873  11.938  16.661  0.00  0.00    +0.000 HD
BRANCH  26  30
ATOM     30  C   UNL     1      -3.139  10.793  17.241  0.00  0.00    +0.000 C 
ATOM     31  C   UNL     1      -2.230   9.624  16.811  0.00  0.00    +0.000 C 
ATOM     32  C   UNL     1      -3.599  11.538  15.970  0.00  0.00    +0.000 C 
BRANCH  30  33
ATOM     33  C   UNL     1      -4.379  10.265  18.011  0.00  0.00    +0.000 C 
BRANCH  33  35
ATOM     34  C   UNL     1      -6.774  10.676  18.716  0.00  0.00    +0.000 C 
ATOM     35  C   UNL     1      -5.687  11.013  17.708  0.00  0.00    +0.000 C 
ENDBRANCH  33  35
ENDBRANCH  30  33
ENDBRANCH  26  30
ENDBRANCH  25  28
ENDBRANCH  24  25
ENDBRANCH  23  24
ENDBRANCH  22  23
ENDBRANCH   1  22
TORSDOF 12
ENDMDL
MODEL 3
REMARK VINA RESULT:      -7.4      2.210      9.509
REMARK  Name = 
REMARK  15 active torsions:
REMARK  status: ('A' for Active; 'I' for Inactive)
REMARK    1  A    between atoms: C_1  and  C_2
REMARK    2  A    between atoms: C_2  and  C_3
REMARK    3  A    between atoms: C_3  and  C_4
REMARK    4  A    between atoms: C_4  and  C_5
REMARK    5  A    between atoms: C_4  and  C_6
REMARK    6  A    between atoms: C_4  and  C_7
REMARK    7  A    between atoms: N_9  and  C_10
REMARK    8  A    between atoms: C_10  and  C_11
REMARK    9  A    between atoms: C_11  and  C_12
REMARK   10  A    between atoms: C_12  and  O_13
REMARK   11  A    between atoms: O_13  and  C_14
REMARK   12  A    between atoms: C_17  and  S_18
REMARK   13  A    between atoms: S_18  and  C_21
REMARK   14  A    between atoms: C_21  and  C_22
REMARK   15  A    between atoms: N_24  and  O_25
REMARK                            x       y       z     vdW  Elec       q    Type
REMARK                         _______ _______ _______ _____ _____    ______ ____
ROOT
ATOM      1  C   UNL     1       2.215   7.637  18.947  0.00  0.00    +0.000 A 
ATOM      2  C   UNL     1       1.662   7.985  20.181  0.00  0.00    +0.000 A 
ATOM      3  C   UNL     1       0.979   9.197  20.340  0.00  0.00    +0.000 A 
ATOM      4  C   UNL     1       0.893  10.097  19.272  0.00  0.00    +0.000 A 
ATOM      5  C   UNL     1       1.417   9.748  18.026  0.00  0.00    +0.000 A 
ATOM      6  C   UNL     1       2.083   8.528  17.876  0.00  0.00    +0.000 A 
ENDROOT
BRANCH   4   7
ATOM      7  S   UNL     1      -0.009  11.627  19.485  0.00  0.00    +0.000 S 
ATOM      8  O   UNL     1      -0.247  11.793  20.912  0.00  0.00    +0.000 OA
ATOM      9  O   UNL     1       0.747  12.646  18.779  0.00  0.00    +0.000 OA
BRANCH   7  10
ATOM     10  C   UNL     1      -1.622  11.439  18.665  0.00  0.00    +0.000 C 
ATOM     11  C   UNL     1      -2.092   9.974  18.811  0.00  0.00    +0.000 C 
ATOM     12  C   UNL     1      -3.093   9.543  17.752  0.00  0.00    +0.000 C 
ATOM     13  O   UNL     1      -2.628   9.883  16.455  0.00  0.00    +0.000 OA
ATOM     14  C   UNL     1      -2.523  11.284  16.261  0.00  0.00    +0.000 C 
ATOM     15  C   UNL     1      -1.469  11.875  17.185  0.00  0.00    +0.000 C 
BRANCH  10  16
ATOM     16  C   UNL     1      -2.602  12.380  19.366  0.00  0.00    +0.000 C 
ATOM     17  O   UNL     1      -3.784  12.090  19.562  0.00  0.00    +0.000 OA
ATOM     18  N   UNL     1      -2.132  13.620  19.724  0.00  0.00    +0.000 N 
ATOM     19  H   UNL     1      -1.148  13.894  19.739  0.00  0.00    +0.000 HD
BRANCH  18  20
ATOM     20  O   UNL     1      -3.035  14.467  20.402  0.00  0.00    +0.000 OA
ATOM     21  H   UNL     1      -3.911  14.131  20.115  0.00  0.00    +0.000 HD
ENDBRANCH  18  20
ENDBRANCH  10  16
ENDBRANCH   7  10
ENDBRANCH   4   7
BRANCH   1  22
ATOM     22  O   UNL     1       2.875   6.435  18.904  0.00  0.00    +0.000 OA
BRANCH  22  23
ATOM     23  C   UNL     1       2.272   5.372  19.647  0.00  0.00    +0.000 C 
BRANCH  23  24
ATOM     24  C   UNL     1       1.623   4.378  18.685  0.00  0.00    +0.000 C 
BRANCH  24  25
ATOM     25  C   UNL     1       2.657   3.372  18.184  0.00  0.00    +0.000 C 
BRANCH  25  28
ATOM     26  C   UNL     1       4.944   4.096  17.609  0.00  0.00    +0.000 C 
ATOM     27  O   UNL     1       5.374   3.707  18.699  0.00  0.00    +0.000 OA
ATOM     28  N   UNL     1       3.613   3.976  17.274  0.00  0.00    +0.000 N 
ATOM     29  H   UNL     1       3.294   4.277  16.368  0.00  0.00    +0.000 HD
BRANCH  26  30
ATOM     30  C   UNL     1       5.852   4.734  16.541  0.00  0.00    +0.000 C 
ATOM     31  C   UNL     1       5.260   6.094  16.115  0.00  0.00    +0.000 C 
ATOM     32  C   UNL     1       5.885   3.815  15.303  0.00  0.00    +0.000 C 
BRANCH  30  33
ATOM     33  C   UNL     1       7.292   4.916  17.091  0.00  0.00    +0.000 C 
BRANCH  33  35
ATOM     34  C   UNL     1       7.927   5.971  19.301  0.00  0.00    +0.000 C 
ATOM     35  C   UNL     1       7.523   6.227  17.857  0.00  0.00    +0.000 C 
ENDBRANCH  33  35
ENDBRANCH  30  33
ENDBRANCH  26  30
ENDBRANCH  25  28
ENDBRANCH  24  25
ENDBRANCH  23  24
ENDBRANCH  22  23
ENDBRANCH   1  22
TORSDOF 12
ENDMDL
MODEL 4
REMARK VINA RESULT:      -7.3      1.246      2.184
REMARK  Name = 
REMARK  15 active torsions:
REMARK  status: ('A' for Active; 'I' for Inactive)
REMARK    1  A    between atoms: C_1  and  C_2
REMARK    2  A    between atoms: C_2  and  C_3
REMARK    3  A    between atoms: C_3  and  C_4
REMARK    4  A    between atoms: C_4  and  C_5
REMARK    5  A    between atoms: C_4  and  C_6
REMARK    6  A    between atoms: C_4  and  C_7
REMARK    7  A    between atoms: N_9  and  C_10
REMARK    8  A    between atoms: C_10  and  C_11
REMARK    9  A    between atoms: C_11  and  C_12
REMARK   10  A    between atoms: C_12  and  O_13
REMARK   11  A    between atoms: O_13  and  C_14
REMARK   12  A    between atoms: C_17  and  S_18
REMARK   13  A    between atoms: S_18  and  C_21
REMARK   14  A    between atoms: C_21  and  C_22
REMARK   15  A    between atoms: N_24  and  O_25
REMARK                            x       y       z     vdW  Elec       q    Type
REMARK                         _______ _______ _______ _____ _____    ______ ____
ROOT
ATOM      1  C   UNL     1       1.725   8.830  19.479  0.00  0.00    +0.000 A 
ATOM      2  C   UNL     1       1.522   7.948  20.542  0.00  0.00    +0.000 A 
ATOM      3  C   UNL     1       1.674   6.568  20.363  0.00  0.00    +0.000 A 
ATOM      4  C   UNL     1       1.979   6.056  19.097  0.00  0.00    +0.000 A 
ATOM      5  C   UNL     1       2.213   6.930  18.033  0.00  0.00    +0.000 A 
ATOM      6  C   UNL     1       2.073   8.306  18.229  0.00  0.00    +0.000 A 
ENDROOT
BRANCH   4   7
ATOM      7  S   UNL     1       2.199   4.293  18.894  0.00  0.00    +0.000 S 
ATOM      8  O   UNL     1       1.956   3.675  20.189  0.00  0.00    +0.000 OA
ATOM      9  O   UNL     1       1.366   3.907  17.768  0.00  0.00    +0.000 OA
BRANCH   7  10
ATOM     10  C   UNL     1       3.937   3.998  18.448  0.00  0.00    +0.000 C 
ATOM     11  C   UNL     1       4.830   4.995  19.220  0.00  0.00    +0.000 C 
ATOM     12  C   UNL     1       6.179   5.244  18.566  0.00  0.00    +0.000 C 
ATOM     13  O   UNL     1       6.020   5.545  17.189  0.00  0.00    +0.000 OA
ATOM     14  C   UNL     1       5.489   4.458  16.448  0.00  0.00    +0.000 C 
ATOM     15  C   UNL     1       4.075   4.136  16.909  0.00  0.00    +0.000 C 
BRANCH  10  16
ATOM     16  C   UNL     1       4.275   2.563  18.853  0.00  0.00    +0.000 C 
ATOM     17  O   UNL     1       3.859   1.578  18.240  0.00  0.00    +0.000 OA
ATOM     18  N   UNL     1       5.025   2.396  19.992  0.00  0.00    +0.000 N 
ATOM     19  H   UNL     1       5.532   3.137  20.476  0.00  0.00    +0.000 HD
BRANCH  18  20
ATOM     20  O   UNL     1       5.361   1.069  20.338  0.00  0.00    +0.000 OA
ATOM     21  H   UNL     1       4.523   0.718  20.710  0.00  0.00    +0.000 HD
ENDBRANCH  18  20
ENDBRANCH  10  16
ENDBRANCH   7  10
ENDBRANCH   4   7
BRANCH   1  22
ATOM     22  O   UNL     1       1.536  10.160  19.759  0.00  0.00    +0.000 OA
BRANCH  22  23
ATOM     23  C   UNL     1       0.438  10.458  20.627  0.00  0.00    +0.000 C 
BRANCH  23  24
ATOM     24  C   UNL     1      -0.080  11.865  20.333  0.00  0.00    +0.000 C 
BRANCH  24  25
ATOM     25  C   UNL     1      -0.145  12.102  18.825  0.00  0.00    +0.000 C 
BRANCH  25  28
ATOM     26  C   UNL     1      -1.766  10.671  17.638  0.00  0.00    +0.000 C 
ATOM     27  O   UNL     1      -0.917   9.790  17.477  0.00  0.00    +0.000 OA
ATOM     28  N   UNL     1      -1.470  11.849  18.288  0.00  0.00    +0.000 N 
ATOM     29  H   UNL     1      -2.189  12.539  18.430  0.00  0.00    +0.000 HD
BRANCH  26  30
ATOM     30  C   UNL     1      -3.216  10.524  17.139  0.00  0.00    +0.000 C 
ATOM     31  C   UNL     1      -3.846   9.263  17.767  0.00  0.00    +0.000 C 
ATOM     32  C   UNL     1      -3.198  10.341  15.607  0.00  0.00    +0.000 C 
BRANCH  30  33
ATOM     33  C   UNL     1      -4.045  11.785  17.501  0.00  0.00    +0.000 C 
BRANCH  33  35
ATOM     34  C   UNL     1      -4.869  12.489  19.787  0.00  0.00    +0.000 C 
ATOM     35  C   UNL     1      -5.096  11.566  18.600  0.00  0.00    +0.000 C 
ENDBRANCH  33  35
ENDBRANCH  30  33
ENDBRANCH  26  30
ENDBRANCH  25  28
ENDBRANCH  24  25
ENDBRANCH  23  24
ENDBRANCH  22  23
ENDBRANCH   1  22
TORSDOF 12
ENDMDL
MODEL 5
REMARK VINA RESULT:      -7.2      2.509      3.626
REMARK  Name = 
REMARK  15 active torsions:
REMARK  status: ('A' for Active; 'I' for Inactive)
REMARK    1  A    between atoms: C_1  and  C_2
REMARK    2  A    between atoms: C_2  and  C_3
REMARK    3  A    between atoms: C_3  and  C_4
REMARK    4  A    between atoms: C_4  and  C_5
REMARK    5  A    between atoms: C_4  and  C_6
REMARK    6  A    between atoms: C_4  and  C_7
REMARK    7  A    between atoms: N_9  and  C_10
REMARK    8  A    between atoms: C_10  and  C_11
REMARK    9  A    between atoms: C_11  and  C_12
REMARK   10  A    between atoms: C_12  and  O_13
REMARK   11  A    between atoms: O_13  and  C_14
REMARK   12  A    between atoms: C_17  and  S_18
REMARK   13  A    between atoms: S_18  and  C_21
REMARK   14  A    between atoms: C_21  and  C_22
REMARK   15  A    between atoms: N_24  and  O_25
REMARK                            x       y       z     vdW  Elec       q    Type
REMARK                         _______ _______ _______ _____ _____    ______ ____
ROOT
ATOM      1  C   UNL     1       1.510   8.844  19.867  0.00  0.00    +0.000 A 
ATOM      2  C   UNL     1       1.857   8.497  18.559  0.00  0.00    +0.000 A 
ATOM      3  C   UNL     1       2.086   7.160  18.213  0.00  0.00    +0.000 A 
ATOM      4  C   UNL     1       2.022   6.162  19.193  0.00  0.00    +0.000 A 
ATOM      5  C   UNL     1       1.649   6.494  20.497  0.00  0.00    +0.000 A 
ATOM      6  C   UNL     1       1.408   7.830  20.826  0.00  0.00    +0.000 A 
ENDROOT
BRANCH   4   7
ATOM      7  S   UNL     1       2.289   4.457  18.727  0.00  0.00    +0.000 S 
ATOM      8  O   UNL     1       1.863   3.631  19.847  0.00  0.00    +0.000 OA
ATOM      9  O   UNL     1       1.637   4.281  17.440  0.00  0.00    +0.000 OA
BRANCH   7  10
ATOM     10  C   UNL     1       4.077   4.216  18.499  0.00  0.00    +0.000 C 
ATOM     11  C   UNL     1       4.836   5.253  19.359  0.00  0.00    +0.000 C 
ATOM     12  C   UNL     1       6.246   5.540  18.870  0.00  0.00    +0.000 C 
ATOM     13  O   UNL     1       6.246   5.820  17.478  0.00  0.00    +0.000 OA
ATOM     14  C   UNL     1       5.845   4.707  16.696  0.00  0.00    +0.000 C 
ATOM     15  C   UNL     1       4.397   4.342  16.987  0.00  0.00    +0.000 C 
BRANCH  10  16
ATOM     16  C   UNL     1       4.410   2.799  18.966  0.00  0.00    +0.000 C 
ATOM     17  O   UNL     1       5.012   2.564  20.016  0.00  0.00    +0.000 OA
ATOM     18  N   UNL     1       4.067   1.768  18.126  0.00  0.00    +0.000 N 
ATOM     19  H   UNL     1       3.445   1.847  17.321  0.00  0.00    +0.000 HD
BRANCH  18  20
ATOM     20  O   UNL     1       4.347   0.461  18.582  0.00  0.00    +0.000 OA
ATOM     21  H   UNL     1       3.955  -0.106  17.884  0.00  0.00    +0.000 HD
ENDBRANCH  18  20
ENDBRANCH  10  16
ENDBRANCH   7  10
ENDBRANCH   4   7
BRANCH   1  22
ATOM     22  O   UNL     1       1.322  10.183  20.101  0.00  0.00    +0.000 OA
BRANCH  22  23
ATOM     23  C   UNL     1       0.417  10.845  19.213  0.00  0.00    +0.000 C 
BRANCH  23  24
ATOM     24  C   UNL     1       1.069  12.117  18.672  0.00  0.00    +0.000 C 
BRANCH  24  25
ATOM     25  C   UNL     1       0.654  13.323  19.512  0.00  0.00    +0.000 C 
BRANCH  25  28
ATOM     26  C   UNL     1      -1.187  13.333  21.154  0.00  0.00    +0.000 C 
ATOM     27  O   UNL     1      -1.878  14.047  20.422  0.00  0.00    +0.000 OA
ATOM     28  N   UNL     1       0.079  12.932  20.787  0.00  0.00    +0.000 N 
ATOM     29  H   UNL     1       0.609  12.327  21.391  0.00  0.00    +0.000 HD
BRANCH  26  30
ATOM     30  C   UNL     1      -1.683  12.827  22.522  0.00  0.00    +0.000 C 
ATOM     31  C   UNL     1      -1.293  13.845  23.613  0.00  0.00    +0.000 C 
ATOM     32  C   UNL     1      -0.983  11.489  22.840  0.00  0.00    +0.000 C 
BRANCH  30  33
ATOM     33  C   UNL     1      -3.220  12.615  22.498  0.00  0.00    +0.000 C 
BRANCH  33  35
ATOM     34  C   UNL     1      -4.514  12.342  24.655  0.00  0.00    +0.000 C 
ATOM     35  C   UNL     1      -3.982  13.328  23.626  0.00  0.00    +0.000 C 
ENDBRANCH  33  35
ENDBRANCH  30  33
ENDBRANCH  26  30
ENDBRANCH  25  28
ENDBRANCH  24  25
ENDBRANCH  23  24
ENDBRANCH  22  23
ENDBRANCH   1  22
TORSDOF 12
ENDMDL
MODEL 6
REMARK VINA RESULT:      -7.2      1.533      2.584
REMARK  Name = 
REMARK  15 active torsions:
REMARK  status: ('A' for Active; 'I' for Inactive)
REMARK    1  A    between atoms: C_1  and  C_2
REMARK    2  A    between atoms: C_2  and  C_3
REMARK    3  A    between atoms: C_3  and  C_4
REMARK    4  A    between atoms: C_4  and  C_5
REMARK    5  A    between atoms: C_4  and  C_6
REMARK    6  A    between atoms: C_4  and  C_7
REMARK    7  A    between atoms: N_9  and  C_10
REMARK    8  A    between atoms: C_10  and  C_11
REMARK    9  A    between atoms: C_11  and  C_12
REMARK   10  A    between atoms: C_12  and  O_13
REMARK   11  A    between atoms: O_13  and  C_14
REMARK   12  A    between atoms: C_17  and  S_18
REMARK   13  A    between atoms: S_18  and  C_21
REMARK   14  A    between atoms: C_21  and  C_22
REMARK   15  A    between atoms: N_24  and  O_25
REMARK                            x       y       z     vdW  Elec       q    Type
REMARK                         _______ _______ _______ _____ _____    ______ ____
ROOT
ATOM      1  C   UNL     1       1.900   8.720  18.367  0.00  0.00    +0.000 A 
ATOM      2  C   UNL     1       2.794   8.330  17.367  0.00  0.00    +0.000 A 
ATOM      3  C   UNL     1       3.551   7.160  17.503  0.00  0.00    +0.000 A 
ATOM      4  C   UNL     1       3.455   6.397  18.673  0.00  0.00    +0.000 A 
ATOM      5  C   UNL     1       2.544   6.761  19.667  0.00  0.00    +0.000 A 
ATOM      6  C   UNL     1       1.784   7.923  19.511  0.00  0.00    +0.000 A 
ENDROOT
BRANCH   4   7
ATOM      7  S   UNL     1       4.407   4.890  18.816  0.00  0.00    +0.000 S 
ATOM      8  O   UNL     1       4.792   4.493  17.470  0.00  0.00    +0.000 OA
ATOM      9  O   UNL     1       5.450   5.159  19.791  0.00  0.00    +0.000 OA
BRANCH   7  10
ATOM     10  C   UNL     1       3.312   3.604  19.490  0.00  0.00    +0.000 C 
ATOM     11  C   UNL     1       2.079   3.461  18.569  0.00  0.00    +0.000 C 
ATOM     12  C   UNL     1       0.863   2.864  19.259  0.00  0.00    +0.000 C 
ATOM     13  O   UNL     1       0.605   3.533  20.484  0.00  0.00    +0.000 OA
ATOM     14  C   UNL     1       1.645   3.357  21.434  0.00  0.00    +0.000 C 
ATOM     15  C   UNL     1       2.933   3.998  20.941  0.00  0.00    +0.000 C 
BRANCH  10  16
ATOM     16  C   UNL     1       4.105   2.298  19.517  0.00  0.00    +0.000 C 
ATOM     17  O   UNL     1       4.899   2.015  20.417  0.00  0.00    +0.000 OA
ATOM     18  N   UNL     1       3.952   1.451  18.446  0.00  0.00    +0.000 N 
ATOM     19  H   UNL     1       3.221   1.526  17.738  0.00  0.00    +0.000 HD
BRANCH  18  20
ATOM     20  O   UNL     1       4.662   0.232  18.498  0.00  0.00    +0.000 OA
ATOM     21  H   UNL     1       5.594   0.513  18.369  0.00  0.00    +0.000 HD
ENDBRANCH  18  20
ENDBRANCH  10  16
ENDBRANCH   7  10
ENDBRANCH   4   7
BRANCH   1  22
ATOM     22  O   UNL     1       1.220   9.890  18.140  0.00  0.00    +0.000 OA
BRANCH  22  23
ATOM     23  C   UNL     1       1.978  11.090  18.320  0.00  0.00    +0.000 C 
BRANCH  23  24
ATOM     24  C   UNL     1       1.091  12.166  18.945  0.00  0.00    +0.000 C 
BRANCH  24  25
ATOM     25  C   UNL     1      -0.092  11.525  19.667  0.00  0.00    +0.000 C 
BRANCH  25  28
ATOM     26  C   UNL     1      -2.348  11.386  18.679  0.00  0.00    +0.000 C 
ATOM     27  O   UNL     1      -2.758  12.293  19.410  0.00  0.00    +0.000 OA
ATOM     28  N   UNL     1      -1.047  10.940  18.743  0.00  0.00    +0.000 N 
ATOM     29  H   UNL     1      -0.732  10.218  18.116  0.00  0.00    +0.000 HD
BRANCH  26  30
ATOM     30  C   UNL     1      -3.247  10.693  17.638  0.00  0.00    +0.000 C 
ATOM     31  C   UNL     1      -4.496  11.561  17.384  0.00  0.00    +0.000 C 
ATOM     32  C   UNL     1      -3.711   9.336  18.207  0.00  0.00    +0.000 C 
BRANCH  30  33
ATOM     33  C   UNL     1      -2.467  10.461  16.315  0.00  0.00    +0.000 C 
BRANCH  33  35
ATOM     34  C   UNL     1      -3.057   9.919  13.916  0.00  0.00    +0.000 C 
ATOM     35  C   UNL     1      -3.204  10.923  15.049  0.00  0.00    +0.000 C 
ENDBRANCH  33  35
ENDBRANCH  30  33
ENDBRANCH  26  30
ENDBRANCH  25  28
ENDBRANCH  24  25
ENDBRANCH  23  24
ENDBRANCH  22  23
ENDBRANCH   1  22
TORSDOF 12
ENDMDL
MODEL 7
REMARK VINA RESULT:      -7.2      2.197      3.764
REMARK  Name = 
REMARK  15 active torsions:
REMARK  status: ('A' for Active; 'I' for Inactive)
REMARK    1  A    between atoms: C_1  and  C_2
REMARK    2  A    between atoms: C_2  and  C_3
REMARK    3  A    between atoms: C_3  and  C_4
REMARK    4  A    between atoms: C_4  and  C_5
REMARK    5  A    between atoms: C_4  and  C_6
REMARK    6  A    between atoms: C_4  and  C_7
REMARK    7  A    between atoms: N_9  and  C_10
REMARK    8  A    between atoms: C_10  and  C_11
REMARK    9  A    between atoms: C_11  and  C_12
REMARK   10  A    between atoms: C_12  and  O_13
REMARK   11  A    between atoms: O_13  and  C_14
REMARK   12  A    between atoms: C_17  and  S_18
REMARK   13  A    between atoms: S_18  and  C_21
REMARK   14  A    between atoms: C_21  and  C_22
REMARK   15  A    between atoms: N_24  and  O_25
REMARK                            x       y       z     vdW  Elec       q    Type
REMARK                         _______ _______ _______ _____ _____    ______ ____
ROOT
ATOM      1  C   UNL     1       1.445   8.980  19.110  0.00  0.00    +0.000 A 
ATOM      2  C   UNL     1       1.550   8.092  20.182  0.00  0.00    +0.000 A 
ATOM      3  C   UNL     1       2.347   6.945  20.084  0.00  0.00    +0.000 A 
ATOM      4  C   UNL     1       3.005   6.652  18.883  0.00  0.00    +0.000 A 
ATOM      5  C   UNL     1       2.930   7.547  17.814  0.00  0.00    +0.000 A 
ATOM      6  C   UNL     1       2.143   8.696  17.931  0.00  0.00    +0.000 A 
ENDROOT
BRANCH   4   7
ATOM      7  S   UNL     1       4.043   5.199  18.785  0.00  0.00    +0.000 S 
ATOM      8  O   UNL     1       4.359   4.988  17.380  0.00  0.00    +0.000 OA
ATOM      9  O   UNL     1       5.132   5.414  19.722  0.00  0.00    +0.000 OA
BRANCH   7  10
ATOM     10  C   UNL     1       3.065   3.779  19.361  0.00  0.00    +0.000 C 
ATOM     11  C   UNL     1       1.824   3.622  18.453  0.00  0.00    +0.000 C 
ATOM     12  C   UNL     1       0.674   2.875  19.110  0.00  0.00    +0.000 C 
ATOM     13  O   UNL     1       0.397   3.412  20.394  0.00  0.00    +0.000 OA
ATOM     14  C   UNL     1       1.470   3.234  21.305  0.00  0.00    +0.000 C 
ATOM     15  C   UNL     1       2.694   4.013  20.848  0.00  0.00    +0.000 C 
BRANCH  10  16
ATOM     16  C   UNL     1       3.954   2.540  19.257  0.00  0.00    +0.000 C 
ATOM     17  O   UNL     1       4.837   2.278  20.077  0.00  0.00    +0.000 OA
ATOM     18  N   UNL     1       3.781   1.737  18.156  0.00  0.00    +0.000 N 
ATOM     19  H   UNL     1       2.992   1.786  17.511  0.00  0.00    +0.000 HD
BRANCH  18  20
ATOM     20  O   UNL     1       4.583   0.576  18.087  0.00  0.00    +0.000 OA
ATOM     21  H   UNL     1       3.931  -0.149  18.196  0.00  0.00    +0.000 HD
ENDBRANCH  18  20
ENDBRANCH  10  16
ENDBRANCH   7  10
ENDBRANCH   4   7
BRANCH   1  22
ATOM     22  O   UNL     1       0.626  10.063  19.307  0.00  0.00    +0.000 OA
BRANCH  22  23
ATOM     23  C   UNL     1      -0.562  10.093  18.511  0.00  0.00    +0.000 C 
BRANCH  23  24
ATOM     24  C   UNL     1      -1.070  11.530  18.402  0.00  0.00    +0.000 C 
BRANCH  24  25
ATOM     25  C   UNL     1      -2.258  11.602  17.445  0.00  0.00    +0.000 C 
BRANCH  25  28
ATOM     26  C   UNL     1      -4.721  11.748  17.481  0.00  0.00    +0.000 C 
ATOM     27  O   UNL     1      -4.781  11.541  16.266  0.00  0.00    +0.000 OA
ATOM     28  N   UNL     1      -3.515  11.800  18.145  0.00  0.00    +0.000 N 
ATOM     29  H   UNL     1      -3.495  11.943  19.141  0.00  0.00    +0.000 HD
BRANCH  26  30
ATOM     30  C   UNL     1      -5.976  11.952  18.350  0.00  0.00    +0.000 C 
ATOM     31  C   UNL     1      -6.576  10.576  18.710  0.00  0.00    +0.000 C 
ATOM     32  C   UNL     1      -7.024  12.735  17.532  0.00  0.00    +0.000 C 
BRANCH  30  33
ATOM     33  C   UNL     1      -5.623  12.745  19.637  0.00  0.00    +0.000 C 
BRANCH  33  35
ATOM     34  C   UNL     1      -6.735  14.572  20.988  0.00  0.00    +0.000 C 
ATOM     35  C   UNL     1      -6.120  14.199  19.648  0.00  0.00    +0.000 C 
ENDBRANCH  33  35
ENDBRANCH  30  33
ENDBRANCH  26  30
ENDBRANCH  25  28
ENDBRANCH  24  25
ENDBRANCH  23  24
ENDBRANCH  22  23
ENDBRANCH   1  22
TORSDOF 12
ENDMDL
MODEL 8
REMARK VINA RESULT:      -7.1      3.211      9.598
REMARK  Name = 
REMARK  15 active torsions:
REMARK  status: ('A' for Active; 'I' for Inactive)
REMARK    1  A    between atoms: C_1  and  C_2
REMARK    2  A    between atoms: C_2  and  C_3
REMARK    3  A    between atoms: C_3  and  C_4
REMARK    4  A    between atoms: C_4  and  C_5
REMARK    5  A    between atoms: C_4  and  C_6
REMARK    6  A    between atoms: C_4  and  C_7
REMARK    7  A    between atoms: N_9  and  C_10
REMARK    8  A    between atoms: C_10  and  C_11
REMARK    9  A    between atoms: C_11  and  C_12
REMARK   10  A    between atoms: C_12  and  O_13
REMARK   11  A    between atoms: O_13  and  C_14
REMARK   12  A    between atoms: C_17  and  S_18
REMARK   13  A    between atoms: S_18  and  C_21
REMARK   14  A    between atoms: C_21  and  C_22
REMARK   15  A    between atoms: N_24  and  O_25
REMARK                            x       y       z     vdW  Elec       q    Type
REMARK                         _______ _______ _______ _____ _____    ______ ____
ROOT
ATOM      1  C   UNL     1       1.985   8.026  19.328  0.00  0.00    +0.000 A 
ATOM      2  C   UNL     1       1.720   8.874  18.251  0.00  0.00    +0.000 A 
ATOM      3  C   UNL     1       0.895   9.994  18.412  0.00  0.00    +0.000 A 
ATOM      4  C   UNL     1       0.283  10.241  19.646  0.00  0.00    +0.000 A 
ATOM      5  C   UNL     1       0.563   9.415  20.737  0.00  0.00    +0.000 A 
ATOM      6  C   UNL     1       1.401   8.311  20.567  0.00  0.00    +0.000 A 
ENDROOT
BRANCH   4   7
ATOM      7  S   UNL     1      -0.744  11.692  19.840  0.00  0.00    +0.000 S 
ATOM      8  O   UNL     1      -1.593  11.782  18.661  0.00  0.00    +0.000 OA
ATOM      9  O   UNL     1      -1.370  11.575  21.146  0.00  0.00    +0.000 OA
BRANCH   7  10
ATOM     10  C   UNL     1       0.348  13.146  19.859  0.00  0.00    +0.000 C 
ATOM     11  C   UNL     1       0.846  13.418  18.420  0.00  0.00    +0.000 C 
ATOM     12  C   UNL     1       2.143  14.208  18.360  0.00  0.00    +0.000 C 
ATOM     13  O   UNL     1       3.117  13.637  19.219  0.00  0.00    +0.000 OA
ATOM     14  C   UNL     1       2.750  13.709  20.588  0.00  0.00    +0.000 C 
ATOM     15  C   UNL     1       1.506  12.873  20.852  0.00  0.00    +0.000 C 
BRANCH  10  16
ATOM     16  C   UNL     1      -0.477  14.330  20.364  0.00  0.00    +0.000 C 
ATOM     17  O   UNL     1      -0.379  14.773  21.510  0.00  0.00    +0.000 OA
ATOM     18  N   UNL     1      -1.405  14.860  19.500  0.00  0.00    +0.000 N 
ATOM     19  H   UNL     1      -1.456  14.663  18.500  0.00  0.00    +0.000 HD
BRANCH  18  20
ATOM     20  O   UNL     1      -2.136  15.975  19.964  0.00  0.00    +0.000 OA
ATOM     21  H   UNL     1      -2.990  15.579  20.242  0.00  0.00    +0.000 HD
ENDBRANCH  18  20
ENDBRANCH  10  16
ENDBRANCH   7  10
ENDBRANCH   4   7
BRANCH   1  22
ATOM     22  O   UNL     1       2.794   6.951  19.058  0.00  0.00    +0.000 OA
BRANCH  22  23
ATOM     23  C   UNL     1       2.276   6.009  18.113  0.00  0.00    +0.000 C 
BRANCH  23  24
ATOM     24  C   UNL     1       2.153   4.637  18.772  0.00  0.00    +0.000 C 
BRANCH  24  25
ATOM     25  C   UNL     1       3.287   3.723  18.312  0.00  0.00    +0.000 C 
BRANCH  25  28
ATOM     26  C   UNL     1       5.591   4.594  18.449  0.00  0.00    +0.000 C 
ATOM     27  O   UNL     1       5.750   4.085  19.563  0.00  0.00    +0.000 OA
ATOM     28  N   UNL     1       4.404   4.470  17.762  0.00  0.00    +0.000 N 
ATOM     29  H   UNL     1       4.311   4.872  16.844  0.00  0.00    +0.000 HD
BRANCH  26  30
ATOM     30  C   UNL     1       6.700   5.393  17.739  0.00  0.00    +0.000 C 
ATOM     31  C   UNL     1       7.784   5.782  18.765  0.00  0.00    +0.000 C 
ATOM     32  C   UNL     1       6.090   6.690  17.169  0.00  0.00    +0.000 C 
BRANCH  30  33
ATOM     33  C   UNL     1       7.317   4.558  16.585  0.00  0.00    +0.000 C 
BRANCH  33  35
ATOM     34  C   UNL     1       6.130   3.938  14.438  0.00  0.00    +0.000 C 
ATOM     35  C   UNL     1       6.909   5.016  15.176  0.00  0.00    +0.000 C 
ENDBRANCH  33  35
ENDBRANCH  30  33
ENDBRANCH  26  30
ENDBRANCH  25  28
ENDBRANCH  24  25
ENDBRANCH  23  24
ENDBRANCH  22  23
ENDBRANCH   1  22
TORSDOF 12
ENDMDL
MODEL 9
REMARK VINA RESULT:      -7.1      1.874      3.268
REMARK  Name = 
REMARK  15 active torsions:
REMARK  status: ('A' for Active; 'I' for Inactive)
REMARK    1  A    between atoms: C_1  and  C_2
REMARK    2  A    between atoms: C_2  and  C_3
REMARK    3  A    between atoms: C_3  and  C_4
REMARK    4  A    between atoms: C_4  and  C_5
REMARK    5  A    between atoms: C_4  and  C_6
REMARK    6  A    between atoms: C_4  and  C_7
REMARK    7  A    between atoms: N_9  and  C_10
REMARK    8  A    between atoms: C_10  and  C_11
REMARK    9  A    between atoms: C_11  and  C_12
REMARK   10  A    between atoms: C_12  and  O_13
REMARK   11  A    between atoms: O_13  and  C_14
REMARK   12  A    between atoms: C_17  and  S_18
REMARK   13  A    between atoms: S_18  and  C_21
REMARK   14  A    between atoms: C_21  and  C_22
REMARK   15  A    between atoms: N_24  and  O_25
REMARK                            x       y       z     vdW  Elec       q    Type
REMARK                         _______ _______ _______ _____ _____    ______ ____
ROOT
ATOM      1  C   UNL     1       1.537   8.796  19.730  0.00  0.00    +0.000 A 
ATOM      2  C   UNL     1       1.941   8.418  18.449  0.00  0.00    +0.000 A 
ATOM      3  C   UNL     1       2.179   7.072  18.144  0.00  0.00    +0.000 A 
ATOM      4  C   UNL     1       2.063   6.098  19.143  0.00  0.00    +0.000 A 
ATOM      5  C   UNL     1       1.632   6.461  20.420  0.00  0.00    +0.000 A 
ATOM      6  C   UNL     1       1.383   7.805  20.706  0.00  0.00    +0.000 A 
ENDROOT
BRANCH   4   7
ATOM      7  S   UNL     1       2.341   4.381  18.728  0.00  0.00    +0.000 S 
ATOM      8  O   UNL     1       1.928   3.586  19.875  0.00  0.00    +0.000 OA
ATOM      9  O   UNL     1       1.683   4.159  17.451  0.00  0.00    +0.000 OA
BRANCH   7  10
ATOM     10  C   UNL     1       4.130   4.147  18.497  0.00  0.00    +0.000 C 
ATOM     11  C   UNL     1       4.886   5.212  19.325  0.00  0.00    +0.000 C 
ATOM     12  C   UNL     1       6.291   5.497  18.821  0.00  0.00    +0.000 C 
ATOM     13  O   UNL     1       6.282   5.740  17.423  0.00  0.00    +0.000 OA
ATOM     14  C   UNL     1       5.885   4.604  16.672  0.00  0.00    +0.000 C 
ATOM     15  C   UNL     1       4.441   4.236  16.981  0.00  0.00    +0.000 C 
BRANCH  10  16
ATOM     16  C   UNL     1       4.476   2.745  18.998  0.00  0.00    +0.000 C 
ATOM     17  O   UNL     1       5.128   2.544  20.024  0.00  0.00    +0.000 OA
ATOM     18  N   UNL     1       4.083   1.687  18.215  0.00  0.00    +0.000 N 
ATOM     19  H   UNL     1       3.422   1.743  17.440  0.00  0.00    +0.000 HD
BRANCH  18  20
ATOM     20  O   UNL     1       4.377   0.395  18.705  0.00  0.00    +0.000 OA
ATOM     21  H   UNL     1       3.670   0.246  19.370  0.00  0.00    +0.000 HD
ENDBRANCH  18  20
ENDBRANCH  10  16
ENDBRANCH   7  10
ENDBRANCH   4   7
BRANCH   1  22
ATOM     22  O   UNL     1       1.346  10.141  19.926  0.00  0.00    +0.000 OA
BRANCH  22  23
ATOM     23  C   UNL     1       0.952  10.884  18.768  0.00  0.00    +0.000 C 
BRANCH  23  24
ATOM     24  C   UNL     1      -0.465  10.484  18.361  0.00  0.00    +0.000 C 
BRANCH  24  25
ATOM     25  C   UNL     1      -1.474  11.509  18.876  0.00  0.00    +0.000 C 
BRANCH  25  28
ATOM     26  C   UNL     1      -1.580  12.619  21.077  0.00  0.00    +0.000 C 
ATOM     27  O   UNL     1      -1.429  13.729  20.559  0.00  0.00    +0.000 OA
ATOM     28  N   UNL     1      -1.608  11.467  20.322  0.00  0.00    +0.000 N 
ATOM     29  H   UNL     1      -1.761  10.577  20.767  0.00  0.00    +0.000 HD
BRANCH  26  30
ATOM     30  C   UNL     1      -1.757  12.431  22.596  0.00  0.00    +0.000 C 
ATOM     31  C   UNL     1      -1.166  13.652  23.332  0.00  0.00    +0.000 C 
ATOM     32  C   UNL     1      -0.974  11.178  23.036  0.00  0.00    +0.000 C 
BRANCH  30  33
ATOM     33  C   UNL     1      -3.259  12.257  22.950  0.00  0.00    +0.000 C 
BRANCH  33  35
ATOM     34  C   UNL     1      -5.321  12.763  21.575  0.00  0.00    +0.000 C 
ATOM     35  C   UNL     1      -4.179  13.352  22.389  0.00  0.00    +0.000 C 
ENDBRANCH  33  35
ENDBRANCH  30  33
ENDBRANCH  26  30
ENDBRANCH  25  28
ENDBRANCH  24  25
ENDBRANCH  23  24
ENDBRANCH  22  23
ENDBRANCH   1  22
TORSDOF 12
ENDMDL
