MODEL 1
REMARK VINA RESULT:      -7.6      0.000      0.000
REMARK  Name = 
REMARK  8 active torsions:
REMARK  status: ('A' for Active; 'I' for Inactive)
REMARK    1  A    between atoms: C_1  and  C_2
REMARK    2  A    between atoms: C_3  and  C_4
REMARK    3  A    between atoms: C_14  and  C_15
REMARK    4  A    between atoms: C_15  and  C_16
REMARK    5  A    between atoms: N_18  and  C_19
REMARK    6  A    between atoms: C_19  and  C_20
REMARK    7  A    between atoms: N_27  and  C_28
REMARK    8  A    between atoms: C_28  and  C_29
REMARK                            x       y       z     vdW  Elec       q    Type
REMARK                         _______ _______ _______ _____ _____    ______ ____
ROOT
ATOM      1  C   UNL     1       1.288   8.799  22.090  0.00  0.00    +0.000 C 
ATOM      2  C   UNL     1       0.921   9.564  20.814  0.00  0.00    +0.000 C 
ATOM      3  C   UNL     1       0.154  10.684  20.768  0.00  0.00    +0.000 C 
ATOM      4  C   UNL     1       0.131  11.342  19.382  0.00  0.00    +0.000 C 
ATOM      5  C   UNL     1      -0.158  10.347  18.286  0.00  0.00    +0.000 C 
ATOM      6  C   UNL     1       1.037   9.439  18.332  0.00  0.00    +0.000 C 
ATOM      7  O   UNL     1       1.582   9.118  17.264  0.00  0.00    +0.000 OA
ATOM      8  N   UNL     1       1.457   9.029  19.611  0.00  0.00    +0.000 N 
ENDROOT
BRANCH   3   9
ATOM      9  C   UNL     1      -0.561  11.262  21.985  0.00  0.00    +0.000 C 
ATOM     10  O   UNL     1      -1.214  10.527  22.729  0.00  0.00    +0.000 OA
ATOM     11  N   UNL     1      -0.516  12.638  22.234  0.00  0.00    +0.000 N 
ATOM     12  C   UNL     1      -1.367  13.254  23.236  0.00  0.00    +0.000 C 
ATOM     13  C   UNL     1      -2.313  14.287  22.613  0.00  0.00    +0.000 C 
ATOM     14  C   UNL     1      -1.688  15.655  22.310  0.00  0.00    +0.000 C 
ATOM     15  C   UNL     1      -0.572  15.666  21.281  0.00  0.00    +0.000 C 
ATOM     16  C   UNL     1       0.638  14.929  21.809  0.00  0.00    +0.000 C 
ATOM     17  C   UNL     1       0.479  13.454  21.620  0.00  0.00    +0.000 C 
ENDBRANCH   3   9
BRANCH   5  18
ATOM     18  C   UNL     1      -1.519   9.631  18.367  0.00  0.00    +0.000 C 
BRANCH  18  19
ATOM     19  C   UNL     1      -2.444  10.111  17.269  0.00  0.00    +0.000 C 
ATOM     20  O   UNL     1      -2.139  10.014  16.085  0.00  0.00    +0.000 OA
ATOM     21  N   UNL     1      -3.624  10.674  17.694  0.00  0.00    +0.000 N 
ATOM     22  H   UNL     1      -3.976  10.491  18.626  0.00  0.00    +0.000 HD
BRANCH  21  23
ATOM     23  C   UNL     1      -4.551  11.204  16.720  0.00  0.00    +0.000 C 
BRANCH  23  24
ATOM     24  C   UNL     1      -5.678  11.865  17.441  0.00  0.00    +0.000 A 
ATOM     25  C   UNL     1      -6.281  13.071  17.141  0.00  0.00    +0.000 A 
ATOM     26  C   UNL     1      -7.359  13.373  18.022  0.00  0.00    +0.000 A 
ATOM     27  C   UNL     1      -7.538  12.391  18.970  0.00  0.00    +0.000 A 
ATOM     28  S   UNL     1      -6.403  11.121  18.804  0.00  0.00    +0.000 S 
ENDBRANCH  23  24
ENDBRANCH  21  23
ENDBRANCH  18  19
ENDBRANCH   5  18
BRANCH   8  29
ATOM     29  C   UNL     1       2.485   7.984  19.605  0.00  0.00    +0.000 C 
BRANCH  29  30
ATOM     30  C   UNL     1       1.981   6.559  19.442  0.00  0.00    +0.000 A 
ATOM     31  C   UNL     1       2.089   5.908  18.203  0.00  0.00    +0.000 A 
ATOM     32  C   UNL     1       1.801   4.547  18.082  0.00  0.00    +0.000 A 
ATOM     33  C   UNL     1       1.418   3.814  19.200  0.00  0.00    +0.000 A 
ATOM     34  C   UNL     1       1.278   4.451  20.430  0.00  0.00    +0.000 A 
ATOM     35  C   UNL     1       1.540   5.817  20.546  0.00  0.00    +0.000 A 
ENDBRANCH  29  30
ENDBRANCH   8  29
TORSDOF 7
ENDMDL
MODEL 2
REMARK VINA RESULT:      -7.5      3.181      7.770
REMARK  Name = 
REMARK  8 active torsions:
REMARK  status: ('A' for Active; 'I' for Inactive)
REMARK    1  A    between atoms: C_1  and  C_2
REMARK    2  A    between atoms: C_3  and  C_4
REMARK    3  A    between atoms: C_14  and  C_15
REMARK    4  A    between atoms: C_15  and  C_16
REMARK    5  A    between atoms: N_18  and  C_19
REMARK    6  A    between atoms: C_19  and  C_20
REMARK    7  A    between atoms: N_27  and  C_28
REMARK    8  A    between atoms: C_28  and  C_29
REMARK                            x       y       z     vdW  Elec       q    Type
REMARK                         _______ _______ _______ _____ _____    ______ ____
ROOT
ATOM      1  C   UNL     1      -0.657  14.420  22.810  0.00  0.00    +0.000 C 
ATOM      2  C   UNL     1      -1.283  13.735  21.591  0.00  0.00    +0.000 C 
ATOM      3  C   UNL     1      -2.383  12.940  21.621  0.00  0.00    +0.000 C 
ATOM      4  C   UNL     1      -2.896  12.567  20.224  0.00  0.00    +0.000 C 
ATOM      5  C   UNL     1      -1.791  12.065  19.329  0.00  0.00    +0.000 C 
ATOM      6  C   UNL     1      -0.907  13.269  19.177  0.00  0.00    +0.000 C 
ATOM      7  O   UNL     1      -0.485  13.560  18.045  0.00  0.00    +0.000 OA
ATOM      8  N   UNL     1      -0.635  13.993  20.352  0.00  0.00    +0.000 N 
ENDROOT
BRANCH   3   9
ATOM      9  C   UNL     1      -3.074  12.510  22.911  0.00  0.00    +0.000 C 
ATOM     10  O   UNL     1      -2.707  11.492  23.503  0.00  0.00    +0.000 OA
ATOM     11  N   UNL     1      -4.157  13.246  23.403  0.00  0.00    +0.000 N 
ATOM     12  C   UNL     1      -4.983  12.745  24.488  0.00  0.00    +0.000 C 
ATOM     13  C   UNL     1      -6.439  12.559  24.045  0.00  0.00    +0.000 C 
ATOM     14  C   UNL     1      -7.283  13.839  24.002  0.00  0.00    +0.000 C 
ATOM     15  C   UNL     1      -6.839  14.897  23.007  0.00  0.00    +0.000 C 
ATOM     16  C   UNL     1      -5.501  15.472  23.412  0.00  0.00    +0.000 C 
ATOM     17  C   UNL     1      -4.388  14.581  22.960  0.00  0.00    +0.000 C 
ENDBRANCH   3   9
BRANCH   5  18
ATOM     18  C   UNL     1      -1.070  10.788  19.799  0.00  0.00    +0.000 C 
BRANCH  18  19
ATOM     19  C   UNL     1      -0.237  10.200  18.681  0.00  0.00    +0.000 C 
ATOM     20  O   UNL     1      -0.747   9.825  17.630  0.00  0.00    +0.000 OA
ATOM     21  N   UNL     1       1.110  10.099  18.937  0.00  0.00    +0.000 N 
ATOM     22  H   UNL     1       1.539  10.657  19.665  0.00  0.00    +0.000 HD
BRANCH  21  23
ATOM     23  C   UNL     1       1.981   9.507  17.946  0.00  0.00    +0.000 C 
BRANCH  23  24
ATOM     24  C   UNL     1       2.351   8.133  18.394  0.00  0.00    +0.000 A 
ATOM     25  C   UNL     1       3.053   7.175  17.688  0.00  0.00    +0.000 A 
ATOM     26  C   UNL     1       3.262   5.987  18.446  0.00  0.00    +0.000 A 
ATOM     27  C   UNL     1       2.707   6.075  19.703  0.00  0.00    +0.000 A 
ATOM     28  S   UNL     1       1.927   7.577  19.958  0.00  0.00    +0.000 S 
ENDBRANCH  23  24
ENDBRANCH  21  23
ENDBRANCH  18  19
ENDBRANCH   5  18
BRANCH   8  29
ATOM     29  C   UNL     1       0.393  15.028  20.203  0.00  0.00    +0.000 C 
BRANCH  29  30
ATOM     30  C   UNL     1      -0.032  16.281  19.456  0.00  0.00    +0.000 A 
ATOM     31  C   UNL     1       0.807  16.840  18.478  0.00  0.00    +0.000 A 
ATOM     32  C   UNL     1       0.358  17.878  17.659  0.00  0.00    +0.000 A 
ATOM     33  C   UNL     1      -0.941  18.359  17.791  0.00  0.00    +0.000 A 
ATOM     34  C   UNL     1      -1.775  17.835  18.775  0.00  0.00    +0.000 A 
ATOM     35  C   UNL     1      -1.318  16.817  19.612  0.00  0.00    +0.000 A 
ENDBRANCH  29  30
ENDBRANCH   8  29
TORSDOF 7
ENDMDL
MODEL 3
REMARK VINA RESULT:      -7.4      1.848      6.942
REMARK  Name = 
REMARK  8 active torsions:
REMARK  status: ('A' for Active; 'I' for Inactive)
REMARK    1  A    between atoms: C_1  and  C_2
REMARK    2  A    between atoms: C_3  and  C_4
REMARK    3  A    between atoms: C_14  and  C_15
REMARK    4  A    between atoms: C_15  and  C_16
REMARK    5  A    between atoms: N_18  and  C_19
REMARK    6  A    between atoms: C_19  and  C_20
REMARK    7  A    between atoms: N_27  and  C_28
REMARK    8  A    between atoms: C_28  and  C_29
REMARK                            x       y       z     vdW  Elec       q    Type
REMARK                         _______ _______ _______ _____ _____    ______ ____
ROOT
ATOM      1  C   UNL     1       1.936  12.445  19.559  0.00  0.00    +0.000 C 
ATOM      2  C   UNL     1       0.593  11.714  19.456  0.00  0.00    +0.000 C 
ATOM      3  C   UNL     1       0.424  10.456  18.974  0.00  0.00    +0.000 C 
ATOM      4  C   UNL     1      -0.996   9.914  19.188  0.00  0.00    +0.000 C 
ATOM      5  C   UNL     1      -2.051  10.896  18.743  0.00  0.00    +0.000 C 
ATOM      6  C   UNL     1      -1.861  12.046  19.690  0.00  0.00    +0.000 C 
ATOM      7  O   UNL     1      -2.864  12.561  20.211  0.00  0.00    +0.000 OA
ATOM      8  N   UNL     1      -0.532  12.444  19.927  0.00  0.00    +0.000 N 
ENDROOT
BRANCH   3   9
ATOM      9  C   UNL     1       1.547   9.641  18.340  0.00  0.00    +0.000 C 
ATOM     10  O   UNL     1       2.067  10.016  17.286  0.00  0.00    +0.000 OA
ATOM     11  N   UNL     1       1.959   8.442  18.929  0.00  0.00    +0.000 N 
ATOM     12  C   UNL     1       2.852   7.527  18.240  0.00  0.00    +0.000 C 
ATOM     13  C   UNL     1       2.190   6.165  18.004  0.00  0.00    +0.000 C 
ATOM     14  C   UNL     1       2.170   5.223  19.214  0.00  0.00    +0.000 C 
ATOM     15  C   UNL     1       1.372   5.699  20.417  0.00  0.00    +0.000 C 
ATOM     16  C   UNL     1       2.025   6.915  21.033  0.00  0.00    +0.000 C 
ATOM     17  C   UNL     1       1.639   8.153  20.288  0.00  0.00    +0.000 C 
ENDBRANCH   3   9
BRANCH   5  18
ATOM     18  C   UNL     1      -2.032  11.277  17.251  0.00  0.00    +0.000 C 
BRANCH  18  19
ATOM     19  C   UNL     1      -3.439  11.358  16.701  0.00  0.00    +0.000 C 
ATOM     20  O   UNL     1      -3.708  10.976  15.567  0.00  0.00    +0.000 OA
ATOM     21  N   UNL     1      -4.375  11.903  17.549  0.00  0.00    +0.000 N 
ATOM     22  H   UNL     1      -4.205  11.945  18.546  0.00  0.00    +0.000 HD
BRANCH  21  23
ATOM     23  C   UNL     1      -5.738  12.065  17.095  0.00  0.00    +0.000 C 
BRANCH  23  24
ATOM     24  C   UNL     1      -6.296  13.315  17.689  0.00  0.00    +0.000 A 
ATOM     25  C   UNL     1      -6.257  13.714  19.010  0.00  0.00    +0.000 A 
ATOM     26  C   UNL     1      -6.856  14.991  19.210  0.00  0.00    +0.000 A 
ATOM     27  C   UNL     1      -7.340  15.521  18.035  0.00  0.00    +0.000 A 
ATOM     28  S   UNL     1      -7.083  14.476  16.704  0.00  0.00    +0.000 S 
ENDBRANCH  23  24
ENDBRANCH  21  23
ENDBRANCH  18  19
ENDBRANCH   5  18
BRANCH   8  29
ATOM     29  C   UNL     1      -0.399  13.693  20.683  0.00  0.00    +0.000 C 
BRANCH  29  30
ATOM     30  C   UNL     1      -0.806  14.960  19.948  0.00  0.00    +0.000 A 
ATOM     31  C   UNL     1      -1.757  15.828  20.508  0.00  0.00    +0.000 A 
ATOM     32  C   UNL     1      -2.007  17.079  19.939  0.00  0.00    +0.000 A 
ATOM     33  C   UNL     1      -1.298  17.487  18.814  0.00  0.00    +0.000 A 
ATOM     34  C   UNL     1      -0.373  16.626  18.229  0.00  0.00    +0.000 A 
ATOM     35  C   UNL     1      -0.142  15.365  18.782  0.00  0.00    +0.000 A 
ENDBRANCH  29  30
ENDBRANCH   8  29
TORSDOF 7
ENDMDL
MODEL 4
REMARK VINA RESULT:      -7.3      3.389      5.879
REMARK  Name = 
REMARK  8 active torsions:
REMARK  status: ('A' for Active; 'I' for Inactive)
REMARK    1  A    between atoms: C_1  and  C_2
REMARK    2  A    between atoms: C_3  and  C_4
REMARK    3  A    between atoms: C_14  and  C_15
REMARK    4  A    between atoms: C_15  and  C_16
REMARK    5  A    between atoms: N_18  and  C_19
REMARK    6  A    between atoms: C_19  and  C_20
REMARK    7  A    between atoms: N_27  and  C_28
REMARK    8  A    between atoms: C_28  and  C_29
REMARK                            x       y       z     vdW  Elec       q    Type
REMARK                         _______ _______ _______ _____ _____    ______ ____
ROOT
ATOM      1  C   UNL     1      -0.093  14.749  22.109  0.00  0.00    +0.000 C 
ATOM      2  C   UNL     1       0.262  13.703  21.048  0.00  0.00    +0.000 C 
ATOM      3  C   UNL     1       1.067  13.919  19.976  0.00  0.00    +0.000 C 
ATOM      4  C   UNL     1       1.407  12.635  19.208  0.00  0.00    +0.000 C 
ATOM      5  C   UNL     1       0.179  11.813  18.905  0.00  0.00    +0.000 C 
ATOM      6  C   UNL     1      -0.300  11.408  20.270  0.00  0.00    +0.000 C 
ATOM      7  O   UNL     1      -0.641  10.228  20.455  0.00  0.00    +0.000 OA
ATOM      8  N   UNL     1      -0.307  12.416  21.251  0.00  0.00    +0.000 N 
ENDROOT
BRANCH   3   9
ATOM      9  C   UNL     1       1.627  15.290  19.609  0.00  0.00    +0.000 C 
ATOM     10  O   UNL     1       0.961  16.069  18.924  0.00  0.00    +0.000 OA
ATOM     11  N   UNL     1       2.917  15.649  20.012  0.00  0.00    +0.000 N 
ATOM     12  C   UNL     1       3.570  16.838  19.491  0.00  0.00    +0.000 C 
ATOM     13  C   UNL     1       4.853  16.486  18.729  0.00  0.00    +0.000 C 
ATOM     14  C   UNL     1       6.081  16.202  19.603  0.00  0.00    +0.000 C 
ATOM     15  C   UNL     1       5.982  14.996  20.521  0.00  0.00    +0.000 C 
ATOM     16  C   UNL     1       4.941  15.234  21.591  0.00  0.00    +0.000 C 
ATOM     17  C   UNL     1       3.571  14.945  21.065  0.00  0.00    +0.000 C 
ENDBRANCH   3   9
BRANCH   5  18
ATOM     18  C   UNL     1      -0.886  12.491  18.022  0.00  0.00    +0.000 C 
BRANCH  18  19
ATOM     19  C   UNL     1      -1.943  11.495  17.598  0.00  0.00    +0.000 C 
ATOM     20  O   UNL     1      -1.658  10.335  17.318  0.00  0.00    +0.000 OA
ATOM     21  N   UNL     1      -3.225  11.987  17.530  0.00  0.00    +0.000 N 
ATOM     22  H   UNL     1      -3.479  12.834  18.023  0.00  0.00    +0.000 HD
BRANCH  21  23
ATOM     23  C   UNL     1      -4.297  11.123  17.090  0.00  0.00    +0.000 C 
BRANCH  23  24
ATOM     24  C   UNL     1      -5.550  11.512  17.802  0.00  0.00    +0.000 A 
ATOM     25  C   UNL     1      -6.142  10.881  18.878  0.00  0.00    +0.000 A 
ATOM     26  C   UNL     1      -7.313  11.556  19.328  0.00  0.00    +0.000 A 
ATOM     27  C   UNL     1      -7.580  12.678  18.575  0.00  0.00    +0.000 A 
ATOM     28  S   UNL     1      -6.431  12.903  17.326  0.00  0.00    +0.000 S 
ENDBRANCH  23  24
ENDBRANCH  21  23
ENDBRANCH  18  19
ENDBRANCH   5  18
BRANCH   8  29
ATOM     29  C   UNL     1      -0.974  12.040  22.501  0.00  0.00    +0.000 C 
BRANCH  29  30
ATOM     30  C   UNL     1      -2.474  12.280  22.551  0.00  0.00    +0.000 A 
ATOM     31  C   UNL     1      -3.143  12.318  23.785  0.00  0.00    +0.000 A 
ATOM     32  C   UNL     1      -4.479  12.716  23.862  0.00  0.00    +0.000 A 
ATOM     33  C   UNL     1      -5.160  13.100  22.711  0.00  0.00    +0.000 A 
ATOM     34  C   UNL     1      -4.519  13.041  21.477  0.00  0.00    +0.000 A 
ATOM     35  C   UNL     1      -3.192  12.617  21.396  0.00  0.00    +0.000 A 
ENDBRANCH  29  30
ENDBRANCH   8  29
TORSDOF 7
ENDMDL
MODEL 5
REMARK VINA RESULT:      -7.3      3.327      7.744
REMARK  Name = 
REMARK  8 active torsions:
REMARK  status: ('A' for Active; 'I' for Inactive)
REMARK    1  A    between atoms: C_1  and  C_2
REMARK    2  A    between atoms: C_3  and  C_4
REMARK    3  A    between atoms: C_14  and  C_15
REMARK    4  A    between atoms: C_15  and  C_16
REMARK    5  A    between atoms: N_18  and  C_19
REMARK    6  A    between atoms: C_19  and  C_20
REMARK    7  A    between atoms: N_27  and  C_28
REMARK    8  A    between atoms: C_28  and  C_29
REMARK                            x       y       z     vdW  Elec       q    Type
REMARK                         _______ _______ _______ _____ _____    ______ ____
ROOT
ATOM      1  C   UNL     1       0.491  14.288  21.910  0.00  0.00    +0.000 C 
ATOM      2  C   UNL     1       0.227  13.367  20.714  0.00  0.00    +0.000 C 
ATOM      3  C   UNL     1      -0.847  12.546  20.582  0.00  0.00    +0.000 C 
ATOM      4  C   UNL     1      -0.948  11.905  19.192  0.00  0.00    +0.000 C 
ATOM      5  C   UNL     1       0.359  11.292  18.753  0.00  0.00    +0.000 C 
ATOM      6  C   UNL     1       1.266  12.483  18.634  0.00  0.00    +0.000 C 
ATOM      7  O   UNL     1       1.994  12.579  17.633  0.00  0.00    +0.000 OA
ATOM      8  N   UNL     1       1.203  13.420  19.682  0.00  0.00    +0.000 N 
ENDROOT
BRANCH   3   9
ATOM      9  C   UNL     1      -1.881  12.332  21.683  0.00  0.00    +0.000 C 
ATOM     10  O   UNL     1      -1.718  11.445  22.525  0.00  0.00    +0.000 OA
ATOM     11  N   UNL     1      -3.041  13.113  21.714  0.00  0.00    +0.000 N 
ATOM     12  C   UNL     1      -4.148  12.788  22.596  0.00  0.00    +0.000 C 
ATOM     13  C   UNL     1      -5.426  12.486  21.805  0.00  0.00    +0.000 C 
ATOM     14  C   UNL     1      -6.195  13.714  21.302  0.00  0.00    +0.000 C 
ATOM     15  C   UNL     1      -5.467  14.592  20.299  0.00  0.00    +0.000 C 
ATOM     16  C   UNL     1      -4.283  15.267  20.952  0.00  0.00    +0.000 C 
ATOM     17  C   UNL     1      -3.109  14.341  20.995  0.00  0.00    +0.000 C 
ENDBRANCH   3   9
BRANCH   5  18
ATOM     18  C   UNL     1       0.900  10.153  19.637  0.00  0.00    +0.000 C 
BRANCH  18  19
ATOM     19  C   UNL     1       1.594   9.105  18.794  0.00  0.00    +0.000 C 
ATOM     20  O   UNL     1       1.737   9.245  17.584  0.00  0.00    +0.000 OA
ATOM     21  N   UNL     1       2.027   7.991  19.475  0.00  0.00    +0.000 N 
ATOM     22  H   UNL     1       2.155   8.018  20.478  0.00  0.00    +0.000 HD
BRANCH  21  23
ATOM     23  C   UNL     1       2.660   6.914  18.748  0.00  0.00    +0.000 C 
BRANCH  23  24
ATOM     24  C   UNL     1       2.556   5.663  19.555  0.00  0.00    +0.000 A 
ATOM     25  C   UNL     1       1.678   5.393  20.586  0.00  0.00    +0.000 A 
ATOM     26  C   UNL     1       1.836   4.075  21.103  0.00  0.00    +0.000 A 
ATOM     27  C   UNL     1       2.834   3.385  20.453  0.00  0.00    +0.000 A 
ATOM     28  S   UNL     1       3.584   4.329  19.238  0.00  0.00    +0.000 S 
ENDBRANCH  23  24
ENDBRANCH  21  23
ENDBRANCH  18  19
ENDBRANCH   5  18
BRANCH   8  29
ATOM     29  C   UNL     1       2.244  14.450  19.637  0.00  0.00    +0.000 C 
BRANCH  29  30
ATOM     30  C   UNL     1       2.011  15.587  18.656  0.00  0.00    +0.000 A 
ATOM     31  C   UNL     1       0.834  16.351  18.725  0.00  0.00    +0.000 A 
ATOM     32  C   UNL     1       0.685  17.507  17.956  0.00  0.00    +0.000 A 
ATOM     33  C   UNL     1       1.715  17.926  17.120  0.00  0.00    +0.000 A 
ATOM     34  C   UNL     1       2.876  17.165  17.019  0.00  0.00    +0.000 A 
ATOM     35  C   UNL     1       3.015  15.994  17.767  0.00  0.00    +0.000 A 
ENDBRANCH  29  30
ENDBRANCH   8  29
TORSDOF 7
ENDMDL
MODEL 6
REMARK VINA RESULT:      -7.3      3.118      7.401
REMARK  Name = 
REMARK  8 active torsions:
REMARK  status: ('A' for Active; 'I' for Inactive)
REMARK    1  A    between atoms: C_1  and  C_2
REMARK    2  A    between atoms: C_3  and  C_4
REMARK    3  A    between atoms: C_14  and  C_15
REMARK    4  A    between atoms: C_15  and  C_16
REMARK    5  A    between atoms: N_18  and  C_19
REMARK    6  A    between atoms: C_19  and  C_20
REMARK    7  A    between atoms: N_27  and  C_28
REMARK    8  A    between atoms: C_28  and  C_29
REMARK                            x       y       z     vdW  Elec       q    Type
REMARK                         _______ _______ _______ _____ _____    ______ ____
ROOT
ATOM      1  C   UNL     1       0.987  13.913  21.946  0.00  0.00    +0.000 C 
ATOM      2  C   UNL     1       0.639  13.013  20.756  0.00  0.00    +0.000 C 
ATOM      3  C   UNL     1      -0.513  12.307  20.622  0.00  0.00    +0.000 C 
ATOM      4  C   UNL     1      -0.669  11.666  19.236  0.00  0.00    +0.000 C 
ATOM      5  C   UNL     1       0.570  10.916  18.815  0.00  0.00    +0.000 C 
ATOM      6  C   UNL     1       1.597  12.005  18.693  0.00  0.00    +0.000 C 
ATOM      7  O   UNL     1       2.340  12.015  17.698  0.00  0.00    +0.000 OA
ATOM      8  N   UNL     1       1.623  12.954  19.732  0.00  0.00    +0.000 N 
ENDROOT
BRANCH   3   9
ATOM      9  C   UNL     1      -1.573  12.212  21.715  0.00  0.00    +0.000 C 
ATOM     10  O   UNL     1      -1.509  11.322  22.566  0.00  0.00    +0.000 OA
ATOM     11  N   UNL     1      -2.647  13.108  21.728  0.00  0.00    +0.000 N 
ATOM     12  C   UNL     1      -3.789  12.908  22.602  0.00  0.00    +0.000 C 
ATOM     13  C   UNL     1      -5.085  12.731  21.802  0.00  0.00    +0.000 C 
ATOM     14  C   UNL     1      -5.719  14.026  21.280  0.00  0.00    +0.000 C 
ATOM     15  C   UNL     1      -4.896  14.814  20.275  0.00  0.00    +0.000 C 
ATOM     16  C   UNL     1      -3.654  15.370  20.933  0.00  0.00    +0.000 C 
ATOM     17  C   UNL     1      -2.582  14.329  20.996  0.00  0.00    +0.000 C 
ENDBRANCH   3   9
BRANCH   5  18
ATOM     18  C   UNL     1       0.983   9.736  19.713  0.00  0.00    +0.000 C 
BRANCH  18  19
ATOM     19  C   UNL     1       1.654   8.651  18.899  0.00  0.00    +0.000 C 
ATOM     20  O   UNL     1       1.661   8.681  17.673  0.00  0.00    +0.000 OA
ATOM     21  N   UNL     1       2.227   7.635  19.626  0.00  0.00    +0.000 N 
ATOM     22  H   UNL     1       2.456   7.766  20.603  0.00  0.00    +0.000 HD
BRANCH  21  23
ATOM     23  C   UNL     1       2.851   6.529  18.935  0.00  0.00    +0.000 C 
BRANCH  23  24
ATOM     24  C   UNL     1       2.179   5.263  19.349  0.00  0.00    +0.000 A 
ATOM     25  C   UNL     1       1.853   4.858  20.628  0.00  0.00    +0.000 A 
ATOM     26  C   UNL     1       1.178   3.604  20.646  0.00  0.00    +0.000 A 
ATOM     27  C   UNL     1       1.015   3.090  19.379  0.00  0.00    +0.000 A 
ATOM     28  S   UNL     1       1.688   4.109  18.180  0.00  0.00    +0.000 S 
ENDBRANCH  23  24
ENDBRANCH  21  23
ENDBRANCH  18  19
ENDBRANCH   5  18
BRANCH   8  29
ATOM     29  C   UNL     1       2.767  13.870  19.687  0.00  0.00    +0.000 C 
BRANCH  29  30
ATOM     30  C   UNL     1       2.536  15.183  18.957  0.00  0.00    +0.000 A 
ATOM     31  C   UNL     1       3.417  15.592  17.942  0.00  0.00    +0.000 A 
ATOM     32  C   UNL     1       3.121  16.697  17.141  0.00  0.00    +0.000 A 
ATOM     33  C   UNL     1       1.934  17.397  17.329  0.00  0.00    +0.000 A 
ATOM     34  C   UNL     1       1.065  17.022  18.350  0.00  0.00    +0.000 A 
ATOM     35  C   UNL     1       1.372  15.934  19.169  0.00  0.00    +0.000 A 
ENDBRANCH  29  30
ENDBRANCH   8  29
TORSDOF 7
ENDMDL
MODEL 7
REMARK VINA RESULT:      -7.3      2.431      5.093
REMARK  Name = 
REMARK  8 active torsions:
REMARK  status: ('A' for Active; 'I' for Inactive)
REMARK    1  A    between atoms: C_1  and  C_2
REMARK    2  A    between atoms: C_3  and  C_4
REMARK    3  A    between atoms: C_14  and  C_15
REMARK    4  A    between atoms: C_15  and  C_16
REMARK    5  A    between atoms: N_18  and  C_19
REMARK    6  A    between atoms: C_19  and  C_20
REMARK    7  A    between atoms: N_27  and  C_28
REMARK    8  A    between atoms: C_28  and  C_29
REMARK                            x       y       z     vdW  Elec       q    Type
REMARK                         _______ _______ _______ _____ _____    ______ ____
ROOT
ATOM      1  C   UNL     1       2.252   9.759  17.682  0.00  0.00    +0.000 C 
ATOM      2  C   UNL     1       1.526   9.064  18.839  0.00  0.00    +0.000 C 
ATOM      3  C   UNL     1       0.376   9.500  19.413  0.00  0.00    +0.000 C 
ATOM      4  C   UNL     1      -0.224   8.492  20.403  0.00  0.00    +0.000 C 
ATOM      5  C   UNL     1       0.802   7.979  21.382  0.00  0.00    +0.000 C 
ATOM      6  C   UNL     1       1.762   7.229  20.502  0.00  0.00    +0.000 C 
ATOM      7  O   UNL     1       2.152   6.108  20.866  0.00  0.00    +0.000 OA
ATOM      8  N   UNL     1       2.135   7.867  19.305  0.00  0.00    +0.000 N 
ENDROOT
BRANCH   3   9
ATOM      9  C   UNL     1      -0.286  10.829  19.065  0.00  0.00    +0.000 C 
ATOM     10  O   UNL     1       0.044  11.861  19.655  0.00  0.00    +0.000 OA
ATOM     11  N   UNL     1      -1.303  10.874  18.105  0.00  0.00    +0.000 N 
ATOM     12  C   UNL     1      -2.112  12.065  17.914  0.00  0.00    +0.000 C 
ATOM     13  C   UNL     1      -3.593  11.789  18.197  0.00  0.00    +0.000 C 
ATOM     14  C   UNL     1      -4.362  11.094  17.067  0.00  0.00    +0.000 C 
ATOM     15  C   UNL     1      -3.897   9.692  16.709  0.00  0.00    +0.000 C 
ATOM     16  C   UNL     1      -2.512   9.735  16.105  0.00  0.00    +0.000 C 
ATOM     17  C   UNL     1      -1.473   9.805  17.178  0.00  0.00    +0.000 C 
ENDBRANCH   3   9
BRANCH   5  18
ATOM     18  C   UNL     1       1.452   9.035  22.294  0.00  0.00    +0.000 C 
BRANCH  18  19
ATOM     19  C   UNL     1       0.413   9.692  23.178  0.00  0.00    +0.000 C 
ATOM     20  O   UNL     1       0.351   9.454  24.379  0.00  0.00    +0.000 OA
ATOM     21  N   UNL     1      -0.453  10.546  22.537  0.00  0.00    +0.000 N 
ATOM     22  H   UNL     1      -0.216  10.939  21.635  0.00  0.00    +0.000 HD
BRANCH  21  23
ATOM     23  C   UNL     1      -1.509  11.185  23.290  0.00  0.00    +0.000 C 
BRANCH  23  24
ATOM     24  C   UNL     1      -1.895  12.449  22.597  0.00  0.00    +0.000 A 
ATOM     25  C   UNL     1      -2.799  12.605  21.564  0.00  0.00    +0.000 A 
ATOM     26  C   UNL     1      -2.950  13.966  21.176  0.00  0.00    +0.000 A 
ATOM     27  C   UNL     1      -2.151  14.805  21.921  0.00  0.00    +0.000 A 
ATOM     28  S   UNL     1      -1.216  13.949  23.070  0.00  0.00    +0.000 S 
ENDBRANCH  23  24
ENDBRANCH  21  23
ENDBRANCH  18  19
ENDBRANCH   5  18
BRANCH   8  29
ATOM     29  C   UNL     1       3.226   7.207  18.581  0.00  0.00    +0.000 C 
BRANCH  29  30
ATOM     30  C   UNL     1       2.934   5.801  18.081  0.00  0.00    +0.000 A 
ATOM     31  C   UNL     1       3.964   4.850  18.004  0.00  0.00    +0.000 A 
ATOM     32  C   UNL     1       3.682   3.511  17.723  0.00  0.00    +0.000 A 
ATOM     33  C   UNL     1       2.366   3.101  17.532  0.00  0.00    +0.000 A 
ATOM     34  C   UNL     1       1.337   4.037  17.576  0.00  0.00    +0.000 A 
ATOM     35  C   UNL     1       1.621   5.380  17.831  0.00  0.00    +0.000 A 
ENDBRANCH  29  30
ENDBRANCH   8  29
TORSDOF 7
ENDMDL
MODEL 8
REMARK VINA RESULT:      -7.2      1.777      6.933
REMARK  Name = 
REMARK  8 active torsions:
REMARK  status: ('A' for Active; 'I' for Inactive)
REMARK    1  A    between atoms: C_1  and  C_2
REMARK    2  A    between atoms: C_3  and  C_4
REMARK    3  A    between atoms: C_14  and  C_15
REMARK    4  A    between atoms: C_15  and  C_16
REMARK    5  A    between atoms: N_18  and  C_19
REMARK    6  A    between atoms: C_19  and  C_20
REMARK    7  A    between atoms: N_27  and  C_28
REMARK    8  A    between atoms: C_28  and  C_29
REMARK                            x       y       z     vdW  Elec       q    Type
REMARK                         _______ _______ _______ _____ _____    ______ ____
ROOT
ATOM      1  C   UNL     1       2.290  12.309  19.347  0.00  0.00    +0.000 C 
ATOM      2  C   UNL     1       0.927  11.609  19.348  0.00  0.00    +0.000 C 
ATOM      3  C   UNL     1       0.703  10.336  18.932  0.00  0.00    +0.000 C 
ATOM      4  C   UNL     1      -0.715   9.841  19.245  0.00  0.00    +0.000 C 
ATOM      5  C   UNL     1      -1.769  10.829  18.813  0.00  0.00    +0.000 C 
ATOM      6  C   UNL     1      -1.502  12.014  19.696  0.00  0.00    +0.000 C 
ATOM      7  O   UNL     1      -2.463  12.577  20.245  0.00  0.00    +0.000 OA
ATOM      8  N   UNL     1      -0.154  12.388  19.844  0.00  0.00    +0.000 N 
ENDROOT
BRANCH   3   9
ATOM      9  C   UNL     1       1.771   9.466  18.277  0.00  0.00    +0.000 C 
ATOM     10  O   UNL     1       2.294   9.817  17.217  0.00  0.00    +0.000 OA
ATOM     11  N   UNL     1       2.128   8.243  18.855  0.00  0.00    +0.000 N 
ATOM     12  C   UNL     1       2.960   7.286  18.147  0.00  0.00    +0.000 C 
ATOM     13  C   UNL     1       2.222   5.962  17.916  0.00  0.00    +0.000 C 
ATOM     14  C   UNL     1       2.172   5.017  19.123  0.00  0.00    +0.000 C 
ATOM     15  C   UNL     1       1.419   5.528  20.339  0.00  0.00    +0.000 C 
ATOM     16  C   UNL     1       2.145   6.704  20.951  0.00  0.00    +0.000 C 
ATOM     17  C   UNL     1       1.815   7.965  20.217  0.00  0.00    +0.000 C 
ENDBRANCH   3   9
BRANCH   5  18
ATOM     18  C   UNL     1      -1.822  11.144  17.306  0.00  0.00    +0.000 C 
BRANCH  18  19
ATOM     19  C   UNL     1      -3.251  11.145  16.809  0.00  0.00    +0.000 C 
ATOM     20  O   UNL     1      -3.558  10.634  15.737  0.00  0.00    +0.000 OA
ATOM     21  N   UNL     1      -4.161  11.771  17.627  0.00  0.00    +0.000 N 
ATOM     22  H   UNL     1      -3.953  11.927  18.605  0.00  0.00    +0.000 HD
BRANCH  21  23
ATOM     23  C   UNL     1      -5.544  11.864  17.214  0.00  0.00    +0.000 C 
BRANCH  23  24
ATOM     24  C   UNL     1      -6.413  11.434  18.349  0.00  0.00    +0.000 A 
ATOM     25  C   UNL     1      -6.646  10.148  18.795  0.00  0.00    +0.000 A 
ATOM     26  C   UNL     1      -7.502  10.115  19.933  0.00  0.00    +0.000 A 
ATOM     27  C   UNL     1      -7.900  11.377  20.313  0.00  0.00    +0.000 A 
ATOM     28  S   UNL     1      -7.255  12.590  19.293  0.00  0.00    +0.000 S 
ENDBRANCH  23  24
ENDBRANCH  21  23
ENDBRANCH  18  19
ENDBRANCH   5  18
BRANCH   8  29
ATOM     29  C   UNL     1       0.049  13.664  20.535  0.00  0.00    +0.000 C 
BRANCH  29  30
ATOM     30  C   UNL     1      -0.486  14.896  19.823  0.00  0.00    +0.000 A 
ATOM     31  C   UNL     1      -1.518  15.653  20.400  0.00  0.00    +0.000 A 
ATOM     32  C   UNL     1      -1.895  16.882  19.854  0.00  0.00    +0.000 A 
ATOM     33  C   UNL     1      -1.235  17.380  18.735  0.00  0.00    +0.000 A 
ATOM     34  C   UNL     1      -0.229  16.628  18.135  0.00  0.00    +0.000 A 
ATOM     35  C   UNL     1       0.130  15.387  18.664  0.00  0.00    +0.000 A 
ENDBRANCH  29  30
ENDBRANCH   8  29
TORSDOF 7
ENDMDL
MODEL 9
REMARK VINA RESULT:      -7.2      3.034      7.129
REMARK  Name = 
REMARK  8 active torsions:
REMARK  status: ('A' for Active; 'I' for Inactive)
REMARK    1  A    between atoms: C_1  and  C_2
REMARK    2  A    between atoms: C_3  and  C_4
REMARK    3  A    between atoms: C_14  and  C_15
REMARK    4  A    between atoms: C_15  and  C_16
REMARK    5  A    between atoms: N_18  and  C_19
REMARK    6  A    between atoms: C_19  and  C_20
REMARK    7  A    between atoms: N_27  and  C_28
REMARK    8  A    between atoms: C_28  and  C_29
REMARK                            x       y       z     vdW  Elec       q    Type
REMARK                         _______ _______ _______ _____ _____    ______ ____
ROOT
ATOM      1  C   UNL     1      -0.777  14.150  18.795  0.00  0.00    +0.000 C 
ATOM      2  C   UNL     1      -0.475  12.787  19.426  0.00  0.00    +0.000 C 
ATOM      3  C   UNL     1       0.342  12.584  20.491  0.00  0.00    +0.000 C 
ATOM      4  C   UNL     1       0.287  11.148  21.028  0.00  0.00    +0.000 C 
ATOM      5  C   UNL     1       0.434  10.125  19.930  0.00  0.00    +0.000 C 
ATOM      6  C   UNL     1      -0.799  10.343  19.100  0.00  0.00    +0.000 C 
ATOM      7  O   UNL     1      -1.445   9.352  18.723  0.00  0.00    +0.000 OA
ATOM      8  N   UNL     1      -1.135  11.681  18.825  0.00  0.00    +0.000 N 
ENDROOT
BRANCH   3   9
ATOM      9  C   UNL     1       1.183  13.686  21.127  0.00  0.00    +0.000 C 
ATOM     10  O   UNL     1       0.930  14.082  22.267  0.00  0.00    +0.000 OA
ATOM     11  N   UNL     1       2.218  14.284  20.400  0.00  0.00    +0.000 N 
ATOM     12  C   UNL     1       2.884  15.483  20.877  0.00  0.00    +0.000 C 
ATOM     13  C   UNL     1       2.705  16.651  19.900  0.00  0.00    +0.000 C 
ATOM     14  C   UNL     1       3.627  16.634  18.675  0.00  0.00    +0.000 C 
ATOM     15  C   UNL     1       3.448  15.464  17.722  0.00  0.00    +0.000 C 
ATOM     16  C   UNL     1       3.863  14.173  18.389  0.00  0.00    +0.000 C 
ATOM     17  C   UNL     1       2.757  13.645  19.245  0.00  0.00    +0.000 C 
ENDBRANCH   3   9
BRANCH   5  18
ATOM     18  C   UNL     1       1.758  10.165  19.144  0.00  0.00    +0.000 C 
BRANCH  18  19
ATOM     19  C   UNL     1       1.902   8.934  18.274  0.00  0.00    +0.000 C 
ATOM     20  O   UNL     1       1.559   8.937  17.097  0.00  0.00    +0.000 OA
ATOM     21  N   UNL     1       2.419   7.825  18.901  0.00  0.00    +0.000 N 
ATOM     22  H   UNL     1       2.946   7.917  19.760  0.00  0.00    +0.000 HD
BRANCH  21  23
ATOM     23  C   UNL     1       2.552   6.589  18.164  0.00  0.00    +0.000 C 
BRANCH  23  24
ATOM     24  C   UNL     1       2.072   5.465  19.021  0.00  0.00    +0.000 A 
ATOM     25  C   UNL     1       1.951   5.444  20.397  0.00  0.00    +0.000 A 
ATOM     26  C   UNL     1       1.417   4.213  20.876  0.00  0.00    +0.000 A 
ATOM     27  C   UNL     1       1.156   3.332  19.850  0.00  0.00    +0.000 A 
ATOM     28  S   UNL     1       1.566   3.985  18.322  0.00  0.00    +0.000 S 
ENDBRANCH  23  24
ENDBRANCH  21  23
ENDBRANCH  18  19
ENDBRANCH   5  18
BRANCH   8  29
ATOM     29  C   UNL     1      -2.212  11.846  17.845  0.00  0.00    +0.000 C 
BRANCH  29  30
ATOM     30  C   UNL     1      -3.625  11.844  18.407  0.00  0.00    +0.000 A 
ATOM     31  C   UNL     1      -4.633  11.092  17.782  0.00  0.00    +0.000 A 
ATOM     32  C   UNL     1      -5.884  10.934  18.384  0.00  0.00    +0.000 A 
ATOM     33  C   UNL     1      -6.139  11.509  19.625  0.00  0.00    +0.000 A 
ATOM     34  C   UNL     1      -5.159  12.281  20.243  0.00  0.00    +0.000 A 
ATOM     35  C   UNL     1      -3.918  12.462  19.630  0.00  0.00    +0.000 A 
ENDBRANCH  29  30
ENDBRANCH   8  29
TORSDOF 7
ENDMDL
