MODEL 1
REMARK VINA RESULT:      -7.8      0.000      0.000
REMARK  Name = 
REMARK  13 active torsions:
REMARK  status: ('A' for Active; 'I' for Inactive)
REMARK    1  A    between atoms: C_1  and  C_2
REMARK    2  A    between atoms: C_2  and  C_3
REMARK    3  A    between atoms: C_3  and  C_4
REMARK    4  A    between atoms: C_4  and  C_5
REMARK    5  A    between atoms: C_5  and  C_6
REMARK    6  A    between atoms: C_6  and  C_7
REMARK    7  A    between atoms: C_7  and  C_8
REMARK    8  A    between atoms: C_8  and  O_9
REMARK    9  A    between atoms: O_9  and  C_10
REMARK   10  A    between atoms: C_12  and  O_13
REMARK   11  A    between atoms: C_21  and  C_22
REMARK   12  A    between atoms: C_22  and  O_24
REMARK   13  A    between atoms: C_26  and  O_27
REMARK                            x       y       z     vdW  Elec       q    Type
REMARK                         _______ _______ _______ _____ _____    ______ ____
ROOT
ATOM      1  C   UNL     1       5.632   5.430  15.397  0.00  0.00    +0.000 A 
ATOM      2  C   UNL     1       5.475   4.115  15.826  0.00  0.00    +0.000 A 
ATOM      3  C   UNL     1       4.684   3.821  16.930  0.00  0.00    +0.000 A 
ATOM      4  C   UNL     1       4.028   4.839  17.643  0.00  0.00    +0.000 A 
ATOM      5  C   UNL     1       4.187   6.157  17.210  0.00  0.00    +0.000 A 
ATOM      6  C   UNL     1       4.989   6.456  16.093  0.00  0.00    +0.000 A 
ATOM      7  C   UNL     1       3.507   7.258  17.922  0.00  0.00    +0.000 C 
ATOM      8  O   UNL     1       3.630   8.415  17.541  0.00  0.00    +0.000 OA
ATOM      9  C   UNL     1       2.663   6.962  19.097  0.00  0.00    +0.000 A 
ATOM     10  C   UNL     1       2.005   8.033  19.739  0.00  0.00    +0.000 A 
ATOM     11  C   UNL     1       1.196   7.798  20.853  0.00  0.00    +0.000 A 
ATOM     12  C   UNL     1       1.071   6.487  21.334  0.00  0.00    +0.000 A 
ATOM     13  C   UNL     1       1.722   5.429  20.695  0.00  0.00    +0.000 A 
ATOM     14  C   UNL     1       2.518   5.651  19.557  0.00  0.00    +0.000 A 
ATOM     15  C   UNL     1       3.189   4.544  18.833  0.00  0.00    +0.000 C 
ATOM     16  O   UNL     1       3.037   3.386  19.212  0.00  0.00    +0.000 OA
ENDROOT
BRANCH   3  17
ATOM     17  O   UNL     1       4.573   2.513  17.310  0.00  0.00    +0.000 OA
ATOM     18  H   UNL     1       4.644   2.414  18.272  0.00  0.00    +0.000 HD
ENDBRANCH   3  17
BRANCH  11  19
ATOM     19  C   UNL     1       0.483   8.870  21.609  0.00  0.00    +0.000 C 
ATOM     20  O   UNL     1      -0.688   8.761  21.916  0.00  0.00    +0.000 OA
BRANCH  19  21
ATOM     21  O   UNL     1       1.194   9.987  21.872  0.00  0.00    +0.000 OA
ATOM     22  H   UNL     1       1.226  10.320  22.785  0.00  0.00    +0.000 HD
ENDBRANCH  19  21
ENDBRANCH  11  19
BRANCH  13  23
ATOM     23  O   UNL     1       1.567   4.174  21.207  0.00  0.00    +0.000 OA
ATOM     24  H   UNL     1       2.416   3.771  21.449  0.00  0.00    +0.000 HD
ENDBRANCH  13  23
BRANCH   1  25
ATOM     25  O   UNL     1       6.410   5.803  14.332  0.00  0.00    +0.000 OA
BRANCH  25  26
ATOM     26  C   UNL     1       7.444   4.873  13.985  0.00  0.00    +0.000 C 
BRANCH  26  27
ATOM     27  C   UNL     1       7.874   5.126  12.551  0.00  0.00    +0.000 C 
BRANCH  27  28
ATOM     28  C   UNL     1       7.026   4.312  11.582  0.00  0.00    +0.000 C 
BRANCH  28  29
ATOM     29  C   UNL     1       6.573   3.007  12.224  0.00  0.00    +0.000 C 
BRANCH  29  30
ATOM     30  C   UNL     1       5.374   2.431  11.480  0.00  0.00    +0.000 C 
BRANCH  30  31
ATOM     31  C   UNL     1       4.203   3.405  11.516  0.00  0.00    +0.000 C 
BRANCH  31  33
ATOM     32  C   UNL     1       2.932   4.326   9.569  0.00  0.00    +0.000 C 
ATOM     33  C   UNL     1       3.203   3.092  10.409  0.00  0.00    +0.000 C 
ENDBRANCH  31  33
ENDBRANCH  30  31
ENDBRANCH  29  30
ENDBRANCH  28  29
ENDBRANCH  27  28
ENDBRANCH  26  27
ENDBRANCH  25  26
ENDBRANCH   1  25
TORSDOF 12
ENDMDL
MODEL 2
REMARK VINA RESULT:      -7.6      4.060      7.276
REMARK  Name = 
REMARK  13 active torsions:
REMARK  status: ('A' for Active; 'I' for Inactive)
REMARK    1  A    between atoms: C_1  and  C_2
REMARK    2  A    between atoms: C_2  and  C_3
REMARK    3  A    between atoms: C_3  and  C_4
REMARK    4  A    between atoms: C_4  and  C_5
REMARK    5  A    between atoms: C_5  and  C_6
REMARK    6  A    between atoms: C_6  and  C_7
REMARK    7  A    between atoms: C_7  and  C_8
REMARK    8  A    between atoms: C_8  and  O_9
REMARK    9  A    between atoms: O_9  and  C_10
REMARK   10  A    between atoms: C_12  and  O_13
REMARK   11  A    between atoms: C_21  and  C_22
REMARK   12  A    between atoms: C_22  and  O_24
REMARK   13  A    between atoms: C_26  and  O_27
REMARK                            x       y       z     vdW  Elec       q    Type
REMARK                         _______ _______ _______ _____ _____    ______ ____
ROOT
ATOM      1  C   UNL     1       2.116   7.514  19.808  0.00  0.00    +0.000 A 
ATOM      2  C   UNL     1       2.189   8.283  18.650  0.00  0.00    +0.000 A 
ATOM      3  C   UNL     1       1.490   9.481  18.552  0.00  0.00    +0.000 A 
ATOM      4  C   UNL     1       0.692   9.943  19.612  0.00  0.00    +0.000 A 
ATOM      5  C   UNL     1       0.621   9.169  20.772  0.00  0.00    +0.000 A 
ATOM      6  C   UNL     1       1.328   7.956  20.872  0.00  0.00    +0.000 A 
ATOM      7  C   UNL     1      -0.196   9.621  21.916  0.00  0.00    +0.000 C 
ATOM      8  O   UNL     1      -0.253   8.955  22.943  0.00  0.00    +0.000 OA
ATOM      9  C   UNL     1      -0.944  10.891  21.827  0.00  0.00    +0.000 A 
ATOM     10  C   UNL     1      -1.695  11.308  22.947  0.00  0.00    +0.000 A 
ATOM     11  C   UNL     1      -2.417  12.504  22.908  0.00  0.00    +0.000 A 
ATOM     12  C   UNL     1      -2.402  13.264  21.730  0.00  0.00    +0.000 A 
ATOM     13  C   UNL     1      -1.656  12.848  20.624  0.00  0.00    +0.000 A 
ATOM     14  C   UNL     1      -0.905  11.660  20.663  0.00  0.00    +0.000 A 
ATOM     15  C   UNL     1      -0.072  11.214  19.520  0.00  0.00    +0.000 C 
ATOM     16  O   UNL     1      -0.006  11.904  18.506  0.00  0.00    +0.000 OA
ENDROOT
BRANCH   3  17
ATOM     17  O   UNL     1       1.593  10.190  17.389  0.00  0.00    +0.000 OA
ATOM     18  H   UNL     1       0.766  10.650  17.178  0.00  0.00    +0.000 HD
ENDBRANCH   3  17
BRANCH  11  19
ATOM     19  C   UNL     1      -3.256  13.010  24.033  0.00  0.00    +0.000 C 
ATOM     20  O   UNL     1      -3.049  14.093  24.544  0.00  0.00    +0.000 OA
BRANCH  19  21
ATOM     21  O   UNL     1      -4.213  12.172  24.488  0.00  0.00    +0.000 OA
ATOM     22  H   UNL     1      -4.774  11.707  23.846  0.00  0.00    +0.000 HD
ENDBRANCH  19  21
ENDBRANCH  11  19
BRANCH  13  23
ATOM     23  O   UNL     1      -1.679  13.626  19.503  0.00  0.00    +0.000 OA
ATOM     24  H   UNL     1      -1.266  13.184  18.744  0.00  0.00    +0.000 HD
ENDBRANCH  13  23
BRANCH   1  25
ATOM     25  O   UNL     1       2.758   6.315  19.974  0.00  0.00    +0.000 OA
BRANCH  25  26
ATOM     26  C   UNL     1       3.526   5.878  18.845  0.00  0.00    +0.000 C 
BRANCH  26  27
ATOM     27  C   UNL     1       4.624   4.946  19.324  0.00  0.00    +0.000 C 
BRANCH  27  28
ATOM     28  C   UNL     1       4.468   3.564  18.705  0.00  0.00    +0.000 C 
BRANCH  28  29
ATOM     29  C   UNL     1       3.610   3.628  17.448  0.00  0.00    +0.000 C 
BRANCH  29  30
ATOM     30  C   UNL     1       2.455   2.637  17.535  0.00  0.00    +0.000 C 
BRANCH  30  31
ATOM     31  C   UNL     1       2.224   2.211  18.980  0.00  0.00    +0.000 C 
BRANCH  31  33
ATOM     32  C   UNL     1       1.285   3.289  21.031  0.00  0.00    +0.000 C 
ATOM     33  C   UNL     1       1.028   2.942  19.577  0.00  0.00    +0.000 C 
ENDBRANCH  31  33
ENDBRANCH  30  31
ENDBRANCH  29  30
ENDBRANCH  28  29
ENDBRANCH  27  28
ENDBRANCH  26  27
ENDBRANCH  25  26
ENDBRANCH   1  25
TORSDOF 12
ENDMDL
MODEL 3
REMARK VINA RESULT:      -7.5      2.169      3.616
REMARK  Name = 
REMARK  13 active torsions:
REMARK  status: ('A' for Active; 'I' for Inactive)
REMARK    1  A    between atoms: C_1  and  C_2
REMARK    2  A    between atoms: C_2  and  C_3
REMARK    3  A    between atoms: C_3  and  C_4
REMARK    4  A    between atoms: C_4  and  C_5
REMARK    5  A    between atoms: C_5  and  C_6
REMARK    6  A    between atoms: C_6  and  C_7
REMARK    7  A    between atoms: C_7  and  C_8
REMARK    8  A    between atoms: C_8  and  O_9
REMARK    9  A    between atoms: O_9  and  C_10
REMARK   10  A    between atoms: C_12  and  O_13
REMARK   11  A    between atoms: C_21  and  C_22
REMARK   12  A    between atoms: C_22  and  O_24
REMARK   13  A    between atoms: C_26  and  O_27
REMARK                            x       y       z     vdW  Elec       q    Type
REMARK                         _______ _______ _______ _____ _____    ______ ____
ROOT
ATOM      1  C   UNL     1       4.188   5.185  18.289  0.00  0.00    +0.000 A 
ATOM      2  C   UNL     1       3.722   4.719  19.515  0.00  0.00    +0.000 A 
ATOM      3  C   UNL     1       2.820   5.471  20.260  0.00  0.00    +0.000 A 
ATOM      4  C   UNL     1       2.361   6.716  19.799  0.00  0.00    +0.000 A 
ATOM      5  C   UNL     1       2.830   7.180  18.569  0.00  0.00    +0.000 A 
ATOM      6  C   UNL     1       3.743   6.421  17.815  0.00  0.00    +0.000 A 
ATOM      7  C   UNL     1       2.365   8.478  18.040  0.00  0.00    +0.000 C 
ATOM      8  O   UNL     1       2.761   8.886  16.955  0.00  0.00    +0.000 OA
ATOM      9  C   UNL     1       1.407   9.288  18.819  0.00  0.00    +0.000 A 
ATOM     10  C   UNL     1       0.962  10.511  18.274  0.00  0.00    +0.000 A 
ATOM     11  C   UNL     1       0.055  11.308  18.976  0.00  0.00    +0.000 A 
ATOM     12  C   UNL     1      -0.383  10.884  20.239  0.00  0.00    +0.000 A 
ATOM     13  C   UNL     1       0.059   9.671  20.774  0.00  0.00    +0.000 A 
ATOM     14  C   UNL     1       0.952   8.849  20.064  0.00  0.00    +0.000 A 
ATOM     15  C   UNL     1       1.407   7.538  20.588  0.00  0.00    +0.000 C 
ATOM     16  O   UNL     1       0.982   7.131  21.666  0.00  0.00    +0.000 OA
ENDROOT
BRANCH   3  17
ATOM     17  O   UNL     1       2.404   4.967  21.460  0.00  0.00    +0.000 OA
ATOM     18  H   UNL     1       1.444   5.056  21.570  0.00  0.00    +0.000 HD
ENDBRANCH   3  17
BRANCH  11  19
ATOM     19  C   UNL     1      -0.451  12.626  18.490  0.00  0.00    +0.000 C 
ATOM     20  O   UNL     1      -0.277  13.647  19.125  0.00  0.00    +0.000 OA
BRANCH  19  21
ATOM     21  O   UNL     1      -1.161  12.605  17.342  0.00  0.00    +0.000 OA
ATOM     22  H   UNL     1      -1.405  11.747  16.955  0.00  0.00    +0.000 HD
ENDBRANCH  19  21
ENDBRANCH  11  19
BRANCH  13  23
ATOM     23  O   UNL     1      -0.397   9.307  22.008  0.00  0.00    +0.000 OA
ATOM     24  H   UNL     1      -1.279   9.668  22.192  0.00  0.00    +0.000 HD
ENDBRANCH  13  23
BRANCH   1  25
ATOM     25  O   UNL     1       5.091   4.514  17.507  0.00  0.00    +0.000 OA
BRANCH  25  26
ATOM     26  C   UNL     1       5.203   4.998  16.162  0.00  0.00    +0.000 C 
BRANCH  26  27
ATOM     27  C   UNL     1       6.192   4.130  15.406  0.00  0.00    +0.000 C 
BRANCH  27  28
ATOM     28  C   UNL     1       6.410   4.662  13.995  0.00  0.00    +0.000 C 
BRANCH  28  29
ATOM     29  C   UNL     1       6.246   3.551  12.966  0.00  0.00    +0.000 C 
BRANCH  29  30
ATOM     30  C   UNL     1       4.788   3.423  12.542  0.00  0.00    +0.000 C 
BRANCH  30  31
ATOM     31  C   UNL     1       4.675   3.391  11.023  0.00  0.00    +0.000 C 
BRANCH  31  33
ATOM     32  C   UNL     1       2.869   4.263   9.529  0.00  0.00    +0.000 C 
ATOM     33  C   UNL     1       3.220   3.239  10.590  0.00  0.00    +0.000 C 
ENDBRANCH  31  33
ENDBRANCH  30  31
ENDBRANCH  29  30
ENDBRANCH  28  29
ENDBRANCH  27  28
ENDBRANCH  26  27
ENDBRANCH  25  26
ENDBRANCH   1  25
TORSDOF 12
ENDMDL
MODEL 4
REMARK VINA RESULT:      -7.4      3.356      5.852
REMARK  Name = 
REMARK  13 active torsions:
REMARK  status: ('A' for Active; 'I' for Inactive)
REMARK    1  A    between atoms: C_1  and  C_2
REMARK    2  A    between atoms: C_2  and  C_3
REMARK    3  A    between atoms: C_3  and  C_4
REMARK    4  A    between atoms: C_4  and  C_5
REMARK    5  A    between atoms: C_5  and  C_6
REMARK    6  A    between atoms: C_6  and  C_7
REMARK    7  A    between atoms: C_7  and  C_8
REMARK    8  A    between atoms: C_8  and  O_9
REMARK    9  A    between atoms: O_9  and  C_10
REMARK   10  A    between atoms: C_12  and  O_13
REMARK   11  A    between atoms: C_21  and  C_22
REMARK   12  A    between atoms: C_22  and  O_24
REMARK   13  A    between atoms: C_26  and  O_27
REMARK                            x       y       z     vdW  Elec       q    Type
REMARK                         _______ _______ _______ _____ _____    ______ ____
ROOT
ATOM      1  C   UNL     1       3.907   5.964  17.759  0.00  0.00    +0.000 A 
ATOM      2  C   UNL     1       3.596   5.311  18.949  0.00  0.00    +0.000 A 
ATOM      3  C   UNL     1       2.757   5.906  19.884  0.00  0.00    +0.000 A 
ATOM      4  C   UNL     1       2.207   7.178  19.657  0.00  0.00    +0.000 A 
ATOM      5  C   UNL     1       2.520   7.831  18.463  0.00  0.00    +0.000 A 
ATOM      6  C   UNL     1       3.369   7.230  17.516  0.00  0.00    +0.000 A 
ATOM      7  C   UNL     1       1.954   9.165  18.176  0.00  0.00    +0.000 C 
ATOM      8  O   UNL     1       2.212   9.738  17.126  0.00  0.00    +0.000 OA
ATOM      9  C   UNL     1       1.062   9.810  19.160  0.00  0.00    +0.000 A 
ATOM     10  C   UNL     1       0.516  11.073  18.845  0.00  0.00    +0.000 A 
ATOM     11  C   UNL     1      -0.334  11.719  19.745  0.00  0.00    +0.000 A 
ATOM     12  C   UNL     1      -0.614  11.103  20.974  0.00  0.00    +0.000 A 
ATOM     13  C   UNL     1      -0.073   9.851  21.281  0.00  0.00    +0.000 A 
ATOM     14  C   UNL     1       0.763   9.181  20.370  0.00  0.00    +0.000 A 
ATOM     15  C   UNL     1       1.318   7.834  20.651  0.00  0.00    +0.000 C 
ATOM     16  O   UNL     1       1.031   7.262  21.699  0.00  0.00    +0.000 OA
ENDROOT
BRANCH   3  17
ATOM     17  O   UNL     1       2.495   5.221  21.037  0.00  0.00    +0.000 OA
ATOM     18  H   UNL     1       1.785   5.641  21.547  0.00  0.00    +0.000 HD
ENDBRANCH   3  17
BRANCH  11  19
ATOM     19  C   UNL     1      -0.936  13.064  19.508  0.00  0.00    +0.000 C 
ATOM     20  O   UNL     1      -0.280  14.082  19.611  0.00  0.00    +0.000 OA
BRANCH  19  21
ATOM     21  O   UNL     1      -2.259  13.086  19.236  0.00  0.00    +0.000 OA
ATOM     22  H   UNL     1      -2.740  13.927  19.310  0.00  0.00    +0.000 HD
ENDBRANCH  19  21
ENDBRANCH  11  19
BRANCH  13  23
ATOM     23  O   UNL     1      -0.376   9.298  22.491  0.00  0.00    +0.000 OA
ATOM     24  H   UNL     1      -0.965   9.865  23.014  0.00  0.00    +0.000 HD
ENDBRANCH  13  23
BRANCH   1  25
ATOM     25  O   UNL     1       4.740   5.453  16.799  0.00  0.00    +0.000 OA
BRANCH  25  26
ATOM     26  C   UNL     1       5.653   4.450  17.261  0.00  0.00    +0.000 C 
BRANCH  26  27
ATOM     27  C   UNL     1       7.073   4.911  16.987  0.00  0.00    +0.000 C 
BRANCH  27  28
ATOM     28  C   UNL     1       7.547   5.872  18.070  0.00  0.00    +0.000 C 
BRANCH  28  29
ATOM     29  C   UNL     1       7.525   7.309  17.566  0.00  0.00    +0.000 C 
BRANCH  29  30
ATOM     30  C   UNL     1       8.434   8.190  18.415  0.00  0.00    +0.000 C 
BRANCH  30  31
ATOM     31  C   UNL     1       8.299   9.650  18.003  0.00  0.00    +0.000 C 
BRANCH  31  33
ATOM     32  C   UNL     1      10.156  11.326  18.004  0.00  0.00    +0.000 C 
ATOM     33  C   UNL     1       9.185  10.542  18.866  0.00  0.00    +0.000 C 
ENDBRANCH  31  33
ENDBRANCH  30  31
ENDBRANCH  29  30
ENDBRANCH  28  29
ENDBRANCH  27  28
ENDBRANCH  26  27
ENDBRANCH  25  26
ENDBRANCH   1  25
TORSDOF 12
ENDMDL
MODEL 5
REMARK VINA RESULT:      -7.4      4.148      7.546
REMARK  Name = 
REMARK  13 active torsions:
REMARK  status: ('A' for Active; 'I' for Inactive)
REMARK    1  A    between atoms: C_1  and  C_2
REMARK    2  A    between atoms: C_2  and  C_3
REMARK    3  A    between atoms: C_3  and  C_4
REMARK    4  A    between atoms: C_4  and  C_5
REMARK    5  A    between atoms: C_5  and  C_6
REMARK    6  A    between atoms: C_6  and  C_7
REMARK    7  A    between atoms: C_7  and  C_8
REMARK    8  A    between atoms: C_8  and  O_9
REMARK    9  A    between atoms: O_9  and  C_10
REMARK   10  A    between atoms: C_12  and  O_13
REMARK   11  A    between atoms: C_21  and  C_22
REMARK   12  A    between atoms: C_22  and  O_24
REMARK   13  A    between atoms: C_26  and  O_27
REMARK                            x       y       z     vdW  Elec       q    Type
REMARK                         _______ _______ _______ _____ _____    ______ ____
ROOT
ATOM      1  C   UNL     1       2.197   7.728  19.352  0.00  0.00    +0.000 A 
ATOM      2  C   UNL     1       2.389   8.640  18.318  0.00  0.00    +0.000 A 
ATOM      3  C   UNL     1       1.759   9.878  18.342  0.00  0.00    +0.000 A 
ATOM      4  C   UNL     1       0.912  10.239  19.403  0.00  0.00    +0.000 A 
ATOM      5  C   UNL     1       0.721   9.322  20.438  0.00  0.00    +0.000 A 
ATOM      6  C   UNL     1       1.358   8.068  20.415  0.00  0.00    +0.000 A 
ATOM      7  C   UNL     1      -0.153   9.663  21.579  0.00  0.00    +0.000 C 
ATOM      8  O   UNL     1      -0.315   8.871  22.498  0.00  0.00    +0.000 OA
ATOM      9  C   UNL     1      -0.829  10.975  21.619  0.00  0.00    +0.000 A 
ATOM     10  C   UNL     1      -1.636  11.282  22.736  0.00  0.00    +0.000 A 
ATOM     11  C   UNL     1      -2.294  12.512  22.816  0.00  0.00    +0.000 A 
ATOM     12  C   UNL     1      -2.158  13.422  21.757  0.00  0.00    +0.000 A 
ATOM     13  C   UNL     1      -1.357  13.115  20.654  0.00  0.00    +0.000 A 
ATOM     14  C   UNL     1      -0.670  11.891  20.577  0.00  0.00    +0.000 A 
ATOM     15  C   UNL     1       0.220  11.554  19.438  0.00  0.00    +0.000 C 
ATOM     16  O   UNL     1       0.391  12.369  18.535  0.00  0.00    +0.000 OA
ENDROOT
BRANCH   3  17
ATOM     17  O   UNL     1       1.979  10.730  17.296  0.00  0.00    +0.000 OA
ATOM     18  H   UNL     1       2.642  10.376  16.683  0.00  0.00    +0.000 HD
ENDBRANCH   3  17
BRANCH  11  19
ATOM     19  C   UNL     1      -3.185  12.911  23.945  0.00  0.00    +0.000 C 
ATOM     20  O   UNL     1      -3.097  14.004  24.469  0.00  0.00    +0.000 OA
BRANCH  19  21
ATOM     21  O   UNL     1      -4.045  11.969  24.387  0.00  0.00    +0.000 OA
ATOM     22  H   UNL     1      -4.874  12.250  24.809  0.00  0.00    +0.000 HD
ENDBRANCH  19  21
ENDBRANCH  11  19
BRANCH  13  23
ATOM     23  O   UNL     1      -1.262  14.036  19.652  0.00  0.00    +0.000 OA
ATOM     24  H   UNL     1      -2.104  14.491  19.493  0.00  0.00    +0.000 HD
ENDBRANCH  13  23
BRANCH   1  25
ATOM     25  O   UNL     1       2.766   6.481  19.391  0.00  0.00    +0.000 OA
BRANCH  25  26
ATOM     26  C   UNL     1       3.787   6.251  18.412  0.00  0.00    +0.000 C 
BRANCH  26  27
ATOM     27  C   UNL     1       3.415   5.031  17.589  0.00  0.00    +0.000 C 
BRANCH  27  28
ATOM     28  C   UNL     1       1.966   4.633  17.837  0.00  0.00    +0.000 C 
BRANCH  28  29
ATOM     29  C   UNL     1       1.847   3.129  18.049  0.00  0.00    +0.000 C 
BRANCH  29  30
ATOM     30  C   UNL     1       0.857   2.821  19.166  0.00  0.00    +0.000 C 
BRANCH  30  31
ATOM     31  C   UNL     1       0.835   3.951  20.188  0.00  0.00    +0.000 C 
BRANCH  31  33
ATOM     32  C   UNL     1       1.673   2.415  21.975  0.00  0.00    +0.000 C 
ATOM     33  C   UNL     1       1.898   3.734  21.260  0.00  0.00    +0.000 C 
ENDBRANCH  31  33
ENDBRANCH  30  31
ENDBRANCH  29  30
ENDBRANCH  28  29
ENDBRANCH  27  28
ENDBRANCH  26  27
ENDBRANCH  25  26
ENDBRANCH   1  25
TORSDOF 12
ENDMDL
MODEL 6
REMARK VINA RESULT:      -7.4      3.084      6.709
REMARK  Name = 
REMARK  13 active torsions:
REMARK  status: ('A' for Active; 'I' for Inactive)
REMARK    1  A    between atoms: C_1  and  C_2
REMARK    2  A    between atoms: C_2  and  C_3
REMARK    3  A    between atoms: C_3  and  C_4
REMARK    4  A    between atoms: C_4  and  C_5
REMARK    5  A    between atoms: C_5  and  C_6
REMARK    6  A    between atoms: C_6  and  C_7
REMARK    7  A    between atoms: C_7  and  C_8
REMARK    8  A    between atoms: C_8  and  O_9
REMARK    9  A    between atoms: O_9  and  C_10
REMARK   10  A    between atoms: C_12  and  O_13
REMARK   11  A    between atoms: C_21  and  C_22
REMARK   12  A    between atoms: C_22  and  O_24
REMARK   13  A    between atoms: C_26  and  O_27
REMARK                            x       y       z     vdW  Elec       q    Type
REMARK                         _______ _______ _______ _____ _____    ______ ____
ROOT
ATOM      1  C   UNL     1       2.201   7.377  19.715  0.00  0.00    +0.000 A 
ATOM      2  C   UNL     1       2.299   8.154  18.565  0.00  0.00    +0.000 A 
ATOM      3  C   UNL     1       1.624   9.366  18.471  0.00  0.00    +0.000 A 
ATOM      4  C   UNL     1       0.825   9.833  19.527  0.00  0.00    +0.000 A 
ATOM      5  C   UNL     1       0.728   9.052  20.679  0.00  0.00    +0.000 A 
ATOM      6  C   UNL     1       1.410   7.825  20.776  0.00  0.00    +0.000 A 
ATOM      7  C   UNL     1      -0.093   9.509  21.819  0.00  0.00    +0.000 C 
ATOM      8  O   UNL     1      -0.172   8.836  22.839  0.00  0.00    +0.000 OA
ATOM      9  C   UNL     1      -0.815  10.794  21.734  0.00  0.00    +0.000 A 
ATOM     10  C   UNL     1      -1.569  11.216  22.850  0.00  0.00    +0.000 A 
ATOM     11  C   UNL     1      -2.268  12.426  22.814  0.00  0.00    +0.000 A 
ATOM     12  C   UNL     1      -2.227  13.196  21.642  0.00  0.00    +0.000 A 
ATOM     13  C   UNL     1      -1.478  12.775  20.540  0.00  0.00    +0.000 A 
ATOM     14  C   UNL     1      -0.750  11.572  20.576  0.00  0.00    +0.000 A 
ATOM     15  C   UNL     1       0.086  11.120  19.438  0.00  0.00    +0.000 C 
ATOM     16  O   UNL     1       0.175  11.817  18.430  0.00  0.00    +0.000 OA
ENDROOT
BRANCH   3  17
ATOM     17  O   UNL     1       1.752  10.082  17.314  0.00  0.00    +0.000 OA
ATOM     18  H   UNL     1       2.521   9.792  16.799  0.00  0.00    +0.000 HD
ENDBRANCH   3  17
BRANCH  11  19
ATOM     19  C   UNL     1      -3.109  12.939  23.935  0.00  0.00    +0.000 C 
ATOM     20  O   UNL     1      -2.888  14.016  24.454  0.00  0.00    +0.000 OA
BRANCH  19  21
ATOM     21  O   UNL     1      -4.082  12.113  24.377  0.00  0.00    +0.000 OA
ATOM     22  H   UNL     1      -4.249  12.053  25.332  0.00  0.00    +0.000 HD
ENDBRANCH  19  21
ENDBRANCH  11  19
BRANCH  13  23
ATOM     23  O   UNL     1      -1.475  13.562  19.425  0.00  0.00    +0.000 OA
ATOM     24  H   UNL     1      -1.845  13.104  18.654  0.00  0.00    +0.000 HD
ENDBRANCH  13  23
BRANCH   1  25
ATOM     25  O   UNL     1       2.818   6.164  19.877  0.00  0.00    +0.000 OA
BRANCH  25  26
ATOM     26  C   UNL     1       2.037   5.030  19.479  0.00  0.00    +0.000 C 
BRANCH  26  27
ATOM     27  C   UNL     1       2.068   4.917  17.965  0.00  0.00    +0.000 C 
BRANCH  27  28
ATOM     28  C   UNL     1       2.947   3.753  17.528  0.00  0.00    +0.000 C 
BRANCH  28  29
ATOM     29  C   UNL     1       4.405   4.183  17.433  0.00  0.00    +0.000 C 
BRANCH  29  30
ATOM     30  C   UNL     1       4.519   5.554  16.778  0.00  0.00    +0.000 C 
BRANCH  30  31
ATOM     31  C   UNL     1       5.532   5.521  15.641  0.00  0.00    +0.000 C 
BRANCH  31  33
ATOM     32  C   UNL     1       6.113   3.926  13.803  0.00  0.00    +0.000 C 
ATOM     33  C   UNL     1       5.918   4.086  15.299  0.00  0.00    +0.000 C 
ENDBRANCH  31  33
ENDBRANCH  30  31
ENDBRANCH  29  30
ENDBRANCH  28  29
ENDBRANCH  27  28
ENDBRANCH  26  27
ENDBRANCH  25  26
ENDBRANCH   1  25
TORSDOF 12
ENDMDL
MODEL 7
REMARK VINA RESULT:      -7.4      3.004      8.010
REMARK  Name = 
REMARK  13 active torsions:
REMARK  status: ('A' for Active; 'I' for Inactive)
REMARK    1  A    between atoms: C_1  and  C_2
REMARK    2  A    between atoms: C_2  and  C_3
REMARK    3  A    between atoms: C_3  and  C_4
REMARK    4  A    between atoms: C_4  and  C_5
REMARK    5  A    between atoms: C_5  and  C_6
REMARK    6  A    between atoms: C_6  and  C_7
REMARK    7  A    between atoms: C_7  and  C_8
REMARK    8  A    between atoms: C_8  and  O_9
REMARK    9  A    between atoms: O_9  and  C_10
REMARK   10  A    between atoms: C_12  and  O_13
REMARK   11  A    between atoms: C_21  and  C_22
REMARK   12  A    between atoms: C_22  and  O_24
REMARK   13  A    between atoms: C_26  and  O_27
REMARK                            x       y       z     vdW  Elec       q    Type
REMARK                         _______ _______ _______ _____ _____    ______ ____
ROOT
ATOM      1  C   UNL     1       1.373   8.312  20.151  0.00  0.00    +0.000 A 
ATOM      2  C   UNL     1       1.141   7.123  20.837  0.00  0.00    +0.000 A 
ATOM      3  C   UNL     1       1.734   5.938  20.419  0.00  0.00    +0.000 A 
ATOM      4  C   UNL     1       2.578   5.907  19.296  0.00  0.00    +0.000 A 
ATOM      5  C   UNL     1       2.809   7.101  18.610  0.00  0.00    +0.000 A 
ATOM      6  C   UNL     1       2.208   8.301  19.032  0.00  0.00    +0.000 A 
ATOM      7  C   UNL     1       3.698   7.118  17.431  0.00  0.00    +0.000 C 
ATOM      8  O   UNL     1       3.918   8.163  16.832  0.00  0.00    +0.000 OA
ATOM      9  C   UNL     1       4.336   5.867  16.975  0.00  0.00    +0.000 A 
ATOM     10  C   UNL     1       5.201   5.921  15.861  0.00  0.00    +0.000 A 
ATOM     11  C   UNL     1       5.828   4.762  15.396  0.00  0.00    +0.000 A 
ATOM     12  C   UNL     1       5.561   3.545  16.039  0.00  0.00    +0.000 A 
ATOM     13  C   UNL     1       4.705   3.496  17.142  0.00  0.00    +0.000 A 
ATOM     14  C   UNL     1       4.091   4.661  17.634  0.00  0.00    +0.000 A 
ATOM     15  C   UNL     1       3.211   4.647  18.828  0.00  0.00    +0.000 C 
ATOM     16  O   UNL     1       3.019   3.595  19.433  0.00  0.00    +0.000 OA
ENDROOT
BRANCH   3  17
ATOM     17  O   UNL     1       1.463   4.801  21.127  0.00  0.00    +0.000 OA
ATOM     18  H   UNL     1       1.640   4.004  20.602  0.00  0.00    +0.000 HD
ENDBRANCH   3  17
BRANCH  11  19
ATOM     19  C   UNL     1       6.736   4.721  14.213  0.00  0.00    +0.000 C 
ATOM     20  O   UNL     1       6.525   3.978  13.274  0.00  0.00    +0.000 OA
BRANCH  19  21
ATOM     21  O   UNL     1       7.833   5.506  14.275  0.00  0.00    +0.000 OA
ATOM     22  H   UNL     1       7.755   6.443  14.031  0.00  0.00    +0.000 HD
ENDBRANCH  19  21
ENDBRANCH  11  19
BRANCH  13  23
ATOM     23  O   UNL     1       4.480   2.284  17.729  0.00  0.00    +0.000 OA
ATOM     24  H   UNL     1       5.083   2.120  18.470  0.00  0.00    +0.000 HD
ENDBRANCH  13  23
BRANCH   1  25
ATOM     25  O   UNL     1       0.810   9.515  20.488  0.00  0.00    +0.000 OA
BRANCH  25  26
ATOM     26  C   UNL     1       1.167  10.609  19.633  0.00  0.00    +0.000 C 
BRANCH  26  27
ATOM     27  C   UNL     1      -0.099  11.227  19.068  0.00  0.00    +0.000 C 
BRANCH  27  28
ATOM     28  C   UNL     1      -1.229  10.206  19.032  0.00  0.00    +0.000 C 
BRANCH  28  29
ATOM     29  C   UNL     1      -1.731  10.006  17.609  0.00  0.00    +0.000 C 
BRANCH  29  30
ATOM     30  C   UNL     1      -3.232  10.258  17.528  0.00  0.00    +0.000 C 
BRANCH  30  31
ATOM     31  C   UNL     1      -3.619  10.740  16.136  0.00  0.00    +0.000 C 
BRANCH  31  33
ATOM     32  C   UNL     1      -3.556  10.006  13.746  0.00  0.00    +0.000 C 
ATOM     33  C   UNL     1      -2.809  10.017  15.066  0.00  0.00    +0.000 C 
ENDBRANCH  31  33
ENDBRANCH  30  31
ENDBRANCH  29  30
ENDBRANCH  28  29
ENDBRANCH  27  28
ENDBRANCH  26  27
ENDBRANCH  25  26
ENDBRANCH   1  25
TORSDOF 12
ENDMDL
MODEL 8
REMARK VINA RESULT:      -7.4      3.096      5.524
REMARK  Name = 
REMARK  13 active torsions:
REMARK  status: ('A' for Active; 'I' for Inactive)
REMARK    1  A    between atoms: C_1  and  C_2
REMARK    2  A    between atoms: C_2  and  C_3
REMARK    3  A    between atoms: C_3  and  C_4
REMARK    4  A    between atoms: C_4  and  C_5
REMARK    5  A    between atoms: C_5  and  C_6
REMARK    6  A    between atoms: C_6  and  C_7
REMARK    7  A    between atoms: C_7  and  C_8
REMARK    8  A    between atoms: C_8  and  O_9
REMARK    9  A    between atoms: O_9  and  C_10
REMARK   10  A    between atoms: C_12  and  O_13
REMARK   11  A    between atoms: C_21  and  C_22
REMARK   12  A    between atoms: C_22  and  O_24
REMARK   13  A    between atoms: C_26  and  O_27
REMARK                            x       y       z     vdW  Elec       q    Type
REMARK                         _______ _______ _______ _____ _____    ______ ____
ROOT
ATOM      1  C   UNL     1       3.965   5.082  18.190  0.00  0.00    +0.000 A 
ATOM      2  C   UNL     1       3.534   4.634  19.435  0.00  0.00    +0.000 A 
ATOM      3  C   UNL     1       2.706   5.426  20.223  0.00  0.00    +0.000 A 
ATOM      4  C   UNL     1       2.287   6.693  19.787  0.00  0.00    +0.000 A 
ATOM      5  C   UNL     1       2.721   7.139  18.537  0.00  0.00    +0.000 A 
ATOM      6  C   UNL     1       3.560   6.340  17.739  0.00  0.00    +0.000 A 
ATOM      7  C   UNL     1       2.296   8.461  18.033  0.00  0.00    +0.000 C 
ATOM      8  O   UNL     1       2.660   8.855  16.932  0.00  0.00    +0.000 OA
ATOM      9  C   UNL     1       1.416   9.313  18.858  0.00  0.00    +0.000 A 
ATOM     10  C   UNL     1       1.007  10.559  18.337  0.00  0.00    +0.000 A 
ATOM     11  C   UNL     1       0.173  11.397  19.083  0.00  0.00    +0.000 A 
ATOM     12  C   UNL     1      -0.225  10.988  20.364  0.00  0.00    +0.000 A 
ATOM     13  C   UNL     1       0.181   9.753  20.875  0.00  0.00    +0.000 A 
ATOM     14  C   UNL     1       0.998   8.892  20.122  0.00  0.00    +0.000 A 
ATOM     15  C   UNL     1       1.412   7.557  20.621  0.00  0.00    +0.000 C 
ATOM     16  O   UNL     1       1.019   7.167  21.718  0.00  0.00    +0.000 OA
ENDROOT
BRANCH   3  17
ATOM     17  O   UNL     1       2.321   4.937  21.440  0.00  0.00    +0.000 OA
ATOM     18  H   UNL     1       2.322   5.631  22.118  0.00  0.00    +0.000 HD
ENDBRANCH   3  17
BRANCH  11  19
ATOM     19  C   UNL     1      -0.289  12.740  18.623  0.00  0.00    +0.000 C 
ATOM     20  O   UNL     1      -0.007  13.753  19.233  0.00  0.00    +0.000 OA
BRANCH  19  21
ATOM     21  O   UNL     1      -1.085  12.755  17.533  0.00  0.00    +0.000 OA
ATOM     22  H   UNL     1      -1.643  13.534  17.369  0.00  0.00    +0.000 HD
ENDBRANCH  19  21
ENDBRANCH  11  19
BRANCH  13  23
ATOM     23  O   UNL     1      -0.234   9.407  22.128  0.00  0.00    +0.000 OA
ATOM     24  H   UNL     1       0.509   9.303  22.743  0.00  0.00    +0.000 HD
ENDBRANCH  13  23
BRANCH   1  25
ATOM     25  O   UNL     1       4.796   4.371  17.365  0.00  0.00    +0.000 OA
BRANCH  25  26
ATOM     26  C   UNL     1       5.659   5.168  16.543  0.00  0.00    +0.000 C 
BRANCH  26  27
ATOM     27  C   UNL     1       7.058   4.581  16.581  0.00  0.00    +0.000 C 
BRANCH  27  28
ATOM     28  C   UNL     1       7.691   4.781  17.952  0.00  0.00    +0.000 C 
BRANCH  28  29
ATOM     29  C   UNL     1       7.180   6.059  18.603  0.00  0.00    +0.000 C 
BRANCH  29  30
ATOM     30  C   UNL     1       8.191   7.187  18.439  0.00  0.00    +0.000 C 
BRANCH  30  31
ATOM     31  C   UNL     1       7.598   8.321  17.612  0.00  0.00    +0.000 C 
BRANCH  31  33
ATOM     32  C   UNL     1       9.046   9.637  19.170  0.00  0.00    +0.000 C 
ATOM     33  C   UNL     1       8.399   9.605  17.799  0.00  0.00    +0.000 C 
ENDBRANCH  31  33
ENDBRANCH  30  31
ENDBRANCH  29  30
ENDBRANCH  28  29
ENDBRANCH  27  28
ENDBRANCH  26  27
ENDBRANCH  25  26
ENDBRANCH   1  25
TORSDOF 12
ENDMDL
MODEL 9
REMARK VINA RESULT:      -7.4      1.845      2.873
REMARK  Name = 
REMARK  13 active torsions:
REMARK  status: ('A' for Active; 'I' for Inactive)
REMARK    1  A    between atoms: C_1  and  C_2
REMARK    2  A    between atoms: C_2  and  C_3
REMARK    3  A    between atoms: C_3  and  C_4
REMARK    4  A    between atoms: C_4  and  C_5
REMARK    5  A    between atoms: C_5  and  C_6
REMARK    6  A    between atoms: C_6  and  C_7
REMARK    7  A    between atoms: C_7  and  C_8
REMARK    8  A    between atoms: C_8  and  O_9
REMARK    9  A    between atoms: O_9  and  C_10
REMARK   10  A    between atoms: C_12  and  O_13
REMARK   11  A    between atoms: C_21  and  C_22
REMARK   12  A    between atoms: C_22  and  O_24
REMARK   13  A    between atoms: C_26  and  O_27
REMARK                            x       y       z     vdW  Elec       q    Type
REMARK                         _______ _______ _______ _____ _____    ______ ____
ROOT
ATOM      1  C   UNL     1       4.804   4.030  16.972  0.00  0.00    +0.000 A 
ATOM      2  C   UNL     1       4.373   3.376  18.122  0.00  0.00    +0.000 A 
ATOM      3  C   UNL     1       3.582   4.035  19.056  0.00  0.00    +0.000 A 
ATOM      4  C   UNL     1       3.201   5.374  18.867  0.00  0.00    +0.000 A 
ATOM      5  C   UNL     1       3.635   6.027  17.712  0.00  0.00    +0.000 A 
ATOM      6  C   UNL     1       4.436   5.362  16.767  0.00  0.00    +0.000 A 
ATOM      7  C   UNL     1       3.249   7.432  17.466  0.00  0.00    +0.000 C 
ATOM      8  O   UNL     1       3.613   8.009  16.449  0.00  0.00    +0.000 OA
ATOM      9  C   UNL     1       2.409   8.145  18.449  0.00  0.00    +0.000 A 
ATOM     10  C   UNL     1       2.035   9.477  18.172  0.00  0.00    +0.000 A 
ATOM     11  C   UNL     1       1.240  10.190  19.073  0.00  0.00    +0.000 A 
ATOM     12  C   UNL     1       0.844   9.566  20.265  0.00  0.00    +0.000 A 
ATOM     13  C   UNL     1       1.214   8.246  20.535  0.00  0.00    +0.000 A 
ATOM     14  C   UNL     1       1.992   7.512  19.622  0.00  0.00    +0.000 A 
ATOM     15  C   UNL     1       2.367   6.097  19.861  0.00  0.00    +0.000 C 
ATOM     16  O   UNL     1       1.974   5.525  20.875  0.00  0.00    +0.000 OA
ENDROOT
BRANCH   3  17
ATOM     17  O   UNL     1       3.196   3.344  20.171  0.00  0.00    +0.000 OA
ATOM     18  H   UNL     1       3.655   3.663  20.964  0.00  0.00    +0.000 HD
ENDBRANCH   3  17
BRANCH  11  19
ATOM     19  C   UNL     1       0.818  11.608  18.875  0.00  0.00    +0.000 C 
ATOM     20  O   UNL     1       1.244  12.503  19.579  0.00  0.00    +0.000 OA
BRANCH  19  21
ATOM     21  O   UNL     1      -0.106  11.827  17.915  0.00  0.00    +0.000 OA
ATOM     22  H   UNL     1      -0.400  12.737  17.744  0.00  0.00    +0.000 HD
ENDBRANCH  19  21
ENDBRANCH  11  19
BRANCH  13  23
ATOM     23  O   UNL     1       0.803   7.689  21.710  0.00  0.00    +0.000 OA
ATOM     24  H   UNL     1       1.288   8.044  22.472  0.00  0.00    +0.000 HD
ENDBRANCH  13  23
BRANCH   1  25
ATOM     25  O   UNL     1       5.601   3.457  16.016  0.00  0.00    +0.000 OA
BRANCH  25  26
ATOM     26  C   UNL     1       6.707   4.263  15.588  0.00  0.00    +0.000 C 
BRANCH  26  27
ATOM     27  C   UNL     1       6.699   4.348  14.073  0.00  0.00    +0.000 C 
BRANCH  27  28
ATOM     28  C   UNL     1       5.341   3.941  13.516  0.00  0.00    +0.000 C 
BRANCH  28  29
ATOM     29  C   UNL     1       5.494   3.248  12.169  0.00  0.00    +0.000 C 
BRANCH  29  30
ATOM     30  C   UNL     1       6.967   3.078  11.816  0.00  0.00    +0.000 C 
BRANCH  30  31
ATOM     31  C   UNL     1       7.188   1.776  11.058  0.00  0.00    +0.000 C 
BRANCH  31  33
ATOM     32  C   UNL     1       6.220  -0.508  11.380  0.00  0.00    +0.000 C 
ATOM     33  C   UNL     1       5.915   0.938  11.035  0.00  0.00    +0.000 C 
ENDBRANCH  31  33
ENDBRANCH  30  31
ENDBRANCH  29  30
ENDBRANCH  28  29
ENDBRANCH  27  28
ENDBRANCH  26  27
ENDBRANCH  25  26
ENDBRANCH   1  25
TORSDOF 12
ENDMDL
