MODEL 1
REMARK VINA RESULT:      -7.5      0.000      0.000
REMARK  Name = 
REMARK  10 active torsions:
REMARK  status: ('A' for Active; 'I' for Inactive)
REMARK    1  A    between atoms: C_1  and  C_2
REMARK    2  A    between atoms: C_2  and  O_3
REMARK    3  A    between atoms: O_3  and  C_4
REMARK    4  A    between atoms: C_7  and  N_8
REMARK    5  A    between atoms: N_8  and  C_9
REMARK    6  A    between atoms: C_9  and  C_29
REMARK    7  A    between atoms: C_10  and  C_11
REMARK    8  A    between atoms: C_10  and  C_21
REMARK    9  A    between atoms: C_11  and  C_13
REMARK   10  A    between atoms: C_21  and  C_23
REMARK                            x       y       z     vdW  Elec       q    Type
REMARK                         _______ _______ _______ _____ _____    ______ ____
ROOT
ATOM      1  C   UNL     1       0.086  11.249  18.558  0.00  0.00    +0.000 C 
ATOM      2  C   UNL     1       0.280  12.262  19.448  0.00  0.00    +0.000 C 
ENDROOT
BRANCH   1   3
ATOM      3  C   UNL     1      -1.271  10.993  17.990  0.00  0.00    +0.000 A 
ATOM      4  C   UNL     1      -2.067   9.951  18.497  0.00  0.00    +0.000 A 
ATOM      5  C   UNL     1      -3.279   9.623  17.881  0.00  0.00    +0.000 A 
ATOM      6  C   UNL     1      -3.714  10.340  16.767  0.00  0.00    +0.000 A 
ATOM      7  C   UNL     1      -2.945  11.398  16.278  0.00  0.00    +0.000 A 
ATOM      8  C   UNL     1      -1.733  11.723  16.888  0.00  0.00    +0.000 A 
ENDBRANCH   1   3
BRANCH   1   9
ATOM      9  N   UNL     1       1.085  10.424  18.015  0.00  0.00    +0.000 N 
ATOM     10  H   UNL     1       0.814  10.121  17.075  0.00  0.00    +0.000 HD
BRANCH   9  14
ATOM     11  C   UNL     1       2.209   6.758  19.858  0.00  0.00    +0.000 A 
ATOM     12  C   UNL     1       1.554   7.735  20.601  0.00  0.00    +0.000 A 
ATOM     13  C   UNL     1       1.230   8.969  20.024  0.00  0.00    +0.000 A 
ATOM     14  C   UNL     1       1.510   9.227  18.680  0.00  0.00    +0.000 A 
ATOM     15  C   UNL     1       2.310   8.300  17.993  0.00  0.00    +0.000 A 
ATOM     16  C   UNL     1       2.649   7.066  18.574  0.00  0.00    +0.000 A 
BRANCH  11  17
ATOM     17  O   UNL     1       2.411   5.568  20.500  0.00  0.00    +0.000 OA
BRANCH  17  19
ATOM     18  C   UNL     1       0.929   3.698  20.370  0.00  0.00    +0.000 C 
ATOM     19  C   UNL     1       2.119   4.398  19.730  0.00  0.00    +0.000 C 
ENDBRANCH  17  19
ENDBRANCH  11  17
ENDBRANCH   9  14
ENDBRANCH   1   9
BRANCH   2  20
ATOM     20  C   UNL     1       1.655  12.753  19.740  0.00  0.00    +0.000 C 
ATOM     21  O   UNL     1       2.138  12.702  20.870  0.00  0.00    +0.000 OA
BRANCH  20  22
ATOM     22  C   UNL     1       2.509  13.383  18.662  0.00  0.00    +0.000 C 
ATOM     23  O   UNL     1       3.070  12.629  17.875  0.00  0.00    +0.000 OA
ATOM     24  N   UNL     1       2.645  14.767  18.703  0.00  0.00    +0.000 N 
ATOM     25  C   UNL     1       3.406  15.466  17.675  0.00  0.00    +0.000 C 
ATOM     26  C   UNL     1       4.221  16.616  18.282  0.00  0.00    +0.000 C 
ATOM     27  O   UNL     1       3.422  17.460  19.131  0.00  0.00    +0.000 OA
ATOM     28  C   UNL     1       2.819  16.697  20.188  0.00  0.00    +0.000 C 
ATOM     29  C   UNL     1       1.888  15.645  19.598  0.00  0.00    +0.000 C 
ENDBRANCH  20  22
ENDBRANCH   2  20
BRANCH   2  30
ATOM     30  C   UNL     1      -0.863  13.066  20.012  0.00  0.00    +0.000 C 
ATOM     31  O   UNL     1      -1.269  14.091  19.467  0.00  0.00    +0.000 OA
BRANCH  30  32
ATOM     32  C   UNL     1      -1.549  12.648  21.274  0.00  0.00    +0.000 A 
ATOM     33  C   UNL     1      -2.810  13.214  21.527  0.00  0.00    +0.000 A 
ATOM     34  C   UNL     1      -3.548  12.855  22.655  0.00  0.00    +0.000 A 
ATOM     35  C   UNL     1      -3.033  11.926  23.551  0.00  0.00    +0.000 A 
ATOM     36  C   UNL     1      -1.781  11.356  23.318  0.00  0.00    +0.000 A 
ATOM     37  C   UNL     1      -1.044  11.702  22.177  0.00  0.00    +0.000 A 
ENDBRANCH  30  32
ENDBRANCH   2  30
TORSDOF 9
ENDMDL
MODEL 2
REMARK VINA RESULT:      -7.4      0.713      1.259
REMARK  Name = 
REMARK  10 active torsions:
REMARK  status: ('A' for Active; 'I' for Inactive)
REMARK    1  A    between atoms: C_1  and  C_2
REMARK    2  A    between atoms: C_2  and  O_3
REMARK    3  A    between atoms: O_3  and  C_4
REMARK    4  A    between atoms: C_7  and  N_8
REMARK    5  A    between atoms: N_8  and  C_9
REMARK    6  A    between atoms: C_9  and  C_29
REMARK    7  A    between atoms: C_10  and  C_11
REMARK    8  A    between atoms: C_10  and  C_21
REMARK    9  A    between atoms: C_11  and  C_13
REMARK   10  A    between atoms: C_21  and  C_23
REMARK                            x       y       z     vdW  Elec       q    Type
REMARK                         _______ _______ _______ _____ _____    ______ ____
ROOT
ATOM      1  C   UNL     1       0.203  11.209  18.325  0.00  0.00    +0.000 C 
ATOM      2  C   UNL     1       0.536  12.310  19.055  0.00  0.00    +0.000 C 
ENDROOT
BRANCH   1   3
ATOM      3  C   UNL     1      -1.223  10.931  17.984  0.00  0.00    +0.000 A 
ATOM      4  C   UNL     1      -1.910   9.877  18.612  0.00  0.00    +0.000 A 
ATOM      5  C   UNL     1      -3.201   9.529  18.200  0.00  0.00    +0.000 A 
ATOM      6  C   UNL     1      -3.823  10.239  17.174  0.00  0.00    +0.000 A 
ATOM      7  C   UNL     1      -3.160  11.309  16.569  0.00  0.00    +0.000 A 
ATOM      8  C   UNL     1      -1.870  11.654  16.975  0.00  0.00    +0.000 A 
ENDBRANCH   1   3
BRANCH   1   9
ATOM      9  N   UNL     1       1.104  10.297  17.749  0.00  0.00    +0.000 N 
ATOM     10  H   UNL     1       0.725   9.943  16.866  0.00  0.00    +0.000 HD
BRANCH   9  14
ATOM     11  C   UNL     1       2.254   6.715  19.735  0.00  0.00    +0.000 A 
ATOM     12  C   UNL     1       1.678   7.754  20.459  0.00  0.00    +0.000 A 
ATOM     13  C   UNL     1       1.348   8.961  19.830  0.00  0.00    +0.000 A 
ATOM     14  C   UNL     1       1.542   9.129  18.457  0.00  0.00    +0.000 A 
ATOM     15  C   UNL     1       2.267   8.139  17.777  0.00  0.00    +0.000 A 
ATOM     16  C   UNL     1       2.612   6.932  18.408  0.00  0.00    +0.000 A 
BRANCH  11  17
ATOM     17  O   UNL     1       2.468   5.560  20.435  0.00  0.00    +0.000 OA
BRANCH  17  19
ATOM     18  C   UNL     1       1.765   3.448  21.307  0.00  0.00    +0.000 C 
ATOM     19  C   UNL     1       1.392   4.616  20.405  0.00  0.00    +0.000 C 
ENDBRANCH  17  19
ENDBRANCH  11  17
ENDBRANCH   9  14
ENDBRANCH   1   9
BRANCH   2  20
ATOM     20  C   UNL     1       1.945  12.789  19.094  0.00  0.00    +0.000 C 
ATOM     21  O   UNL     1       2.775  12.435  18.258  0.00  0.00    +0.000 OA
BRANCH  20  22
ATOM     22  C   UNL     1       2.434  13.702  20.197  0.00  0.00    +0.000 C 
ATOM     23  O   UNL     1       2.570  13.214  21.313  0.00  0.00    +0.000 OA
ATOM     24  N   UNL     1       2.618  15.040  19.863  0.00  0.00    +0.000 N 
ATOM     25  C   UNL     1       3.136  15.983  20.847  0.00  0.00    +0.000 C 
ATOM     26  C   UNL     1       2.432  17.341  20.731  0.00  0.00    +0.000 C 
ATOM     27  O   UNL     1       2.405  17.825  19.375  0.00  0.00    +0.000 OA
ATOM     28  C   UNL     1       1.759  16.880  18.508  0.00  0.00    +0.000 C 
ATOM     29  C   UNL     1       2.537  15.571  18.500  0.00  0.00    +0.000 C 
ENDBRANCH  20  22
ENDBRANCH   2  20
BRANCH   2  30
ATOM     30  C   UNL     1      -0.504  13.208  19.674  0.00  0.00    +0.000 C 
ATOM     31  O   UNL     1      -0.795  14.299  19.187  0.00  0.00    +0.000 OA
BRANCH  30  32
ATOM     32  C   UNL     1      -1.225  12.804  20.922  0.00  0.00    +0.000 A 
ATOM     33  C   UNL     1      -2.528  13.302  21.089  0.00  0.00    +0.000 A 
ATOM     34  C   UNL     1      -3.297  12.949  22.198  0.00  0.00    +0.000 A 
ATOM     35  C   UNL     1      -2.771  12.094  23.160  0.00  0.00    +0.000 A 
ATOM     36  C   UNL     1      -1.478  11.593  23.011  0.00  0.00    +0.000 A 
ATOM     37  C   UNL     1      -0.708  11.933  21.891  0.00  0.00    +0.000 A 
ENDBRANCH  30  32
ENDBRANCH   2  30
TORSDOF 9
ENDMDL
MODEL 3
REMARK VINA RESULT:      -7.0      0.752      1.741
REMARK  Name = 
REMARK  10 active torsions:
REMARK  status: ('A' for Active; 'I' for Inactive)
REMARK    1  A    between atoms: C_1  and  C_2
REMARK    2  A    between atoms: C_2  and  O_3
REMARK    3  A    between atoms: O_3  and  C_4
REMARK    4  A    between atoms: C_7  and  N_8
REMARK    5  A    between atoms: N_8  and  C_9
REMARK    6  A    between atoms: C_9  and  C_29
REMARK    7  A    between atoms: C_10  and  C_11
REMARK    8  A    between atoms: C_10  and  C_21
REMARK    9  A    between atoms: C_11  and  C_13
REMARK   10  A    between atoms: C_21  and  C_23
REMARK                            x       y       z     vdW  Elec       q    Type
REMARK                         _______ _______ _______ _____ _____    ______ ____
ROOT
ATOM      1  C   UNL     1       0.240  11.186  18.270  0.00  0.00    +0.000 C 
ATOM      2  C   UNL     1       0.539  12.298  19.000  0.00  0.00    +0.000 C 
ENDROOT
BRANCH   1   3
ATOM      3  C   UNL     1      -1.175  10.874  17.915  0.00  0.00    +0.000 A 
ATOM      4  C   UNL     1      -1.859  11.661  16.970  0.00  0.00    +0.000 A 
ATOM      5  C   UNL     1      -3.223  11.455  16.734  0.00  0.00    +0.000 A 
ATOM      6  C   UNL     1      -3.909  10.456  17.422  0.00  0.00    +0.000 A 
ATOM      7  C   UNL     1      -3.229   9.649  18.336  0.00  0.00    +0.000 A 
ATOM      8  C   UNL     1      -1.870   9.856  18.577  0.00  0.00    +0.000 A 
ENDBRANCH   1   3
BRANCH   1   9
ATOM      9  N   UNL     1       1.168  10.294  17.709  0.00  0.00    +0.000 N 
ATOM     10  H   UNL     1       0.811   9.933  16.819  0.00  0.00    +0.000 HD
BRANCH   9  14
ATOM     11  C   UNL     1       2.367   6.733  19.704  0.00  0.00    +0.000 A 
ATOM     12  C   UNL     1       1.710   7.735  20.410  0.00  0.00    +0.000 A 
ATOM     13  C   UNL     1       1.362   8.936  19.781  0.00  0.00    +0.000 A 
ATOM     14  C   UNL     1       1.619   9.135  18.422  0.00  0.00    +0.000 A 
ATOM     15  C   UNL     1       2.421   8.187  17.768  0.00  0.00    +0.000 A 
ATOM     16  C   UNL     1       2.785   6.986  18.400  0.00  0.00    +0.000 A 
BRANCH  11  17
ATOM     17  O   UNL     1       2.594   5.577  20.398  0.00  0.00    +0.000 OA
BRANCH  17  19
ATOM     18  C   UNL     1       3.370   3.454  19.620  0.00  0.00    +0.000 C 
ATOM     19  C   UNL     1       2.166   4.377  19.747  0.00  0.00    +0.000 C 
ENDBRANCH  17  19
ENDBRANCH  11  17
ENDBRANCH   9  14
ENDBRANCH   1   9
BRANCH   2  20
ATOM     20  C   UNL     1       1.936  12.810  19.053  0.00  0.00    +0.000 C 
ATOM     21  O   UNL     1       2.789  12.458  18.240  0.00  0.00    +0.000 OA
BRANCH  20  22
ATOM     22  C   UNL     1       2.385  13.756  20.144  0.00  0.00    +0.000 C 
ATOM     23  O   UNL     1       2.518  13.294  21.272  0.00  0.00    +0.000 OA
ATOM     24  N   UNL     1       2.536  15.093  19.788  0.00  0.00    +0.000 N 
ATOM     25  C   UNL     1       3.015  16.068  20.760  0.00  0.00    +0.000 C 
ATOM     26  C   UNL     1       2.275  17.403  20.609  0.00  0.00    +0.000 C 
ATOM     27  O   UNL     1       2.254  17.861  19.244  0.00  0.00    +0.000 OA
ATOM     28  C   UNL     1       1.645  16.882  18.386  0.00  0.00    +0.000 C 
ATOM     29  C   UNL     1       2.460  15.595  18.414  0.00  0.00    +0.000 C 
ENDBRANCH  20  22
ENDBRANCH   2  20
BRANCH   2  30
ATOM     30  C   UNL     1      -0.529  13.173  19.603  0.00  0.00    +0.000 C 
ATOM     31  O   UNL     1      -0.809  14.276  19.135  0.00  0.00    +0.000 OA
BRANCH  30  32
ATOM     32  C   UNL     1      -1.293  12.733  20.812  0.00  0.00    +0.000 A 
ATOM     33  C   UNL     1      -0.613  11.908  21.724  0.00  0.00    +0.000 A 
ATOM     34  C   UNL     1      -1.224  11.480  22.903  0.00  0.00    +0.000 A 
ATOM     35  C   UNL     1      -2.529  11.868  23.185  0.00  0.00    +0.000 A 
ATOM     36  C   UNL     1      -3.220  12.685  22.290  0.00  0.00    +0.000 A 
ATOM     37  C   UNL     1      -2.603  13.130  21.112  0.00  0.00    +0.000 A 
ENDBRANCH  30  32
ENDBRANCH   2  30
TORSDOF 9
ENDMDL
MODEL 4
REMARK VINA RESULT:      -6.8      1.010      1.937
REMARK  Name = 
REMARK  10 active torsions:
REMARK  status: ('A' for Active; 'I' for Inactive)
REMARK    1  A    between atoms: C_1  and  C_2
REMARK    2  A    between atoms: C_2  and  O_3
REMARK    3  A    between atoms: O_3  and  C_4
REMARK    4  A    between atoms: C_7  and  N_8
REMARK    5  A    between atoms: N_8  and  C_9
REMARK    6  A    between atoms: C_9  and  C_29
REMARK    7  A    between atoms: C_10  and  C_11
REMARK    8  A    between atoms: C_10  and  C_21
REMARK    9  A    between atoms: C_11  and  C_13
REMARK   10  A    between atoms: C_21  and  C_23
REMARK                            x       y       z     vdW  Elec       q    Type
REMARK                         _______ _______ _______ _____ _____    ______ ____
ROOT
ATOM      1  C   UNL     1       0.209  11.500  18.614  0.00  0.00    +0.000 C 
ATOM      2  C   UNL     1       0.284  12.571  19.454  0.00  0.00    +0.000 C 
ENDROOT
BRANCH   1   3
ATOM      3  C   UNL     1      -1.109  11.057  18.072  0.00  0.00    +0.000 A 
ATOM      4  C   UNL     1      -1.681  11.718  16.970  0.00  0.00    +0.000 A 
ATOM      5  C   UNL     1      -2.974  11.393  16.544  0.00  0.00    +0.000 A 
ATOM      6  C   UNL     1      -3.697  10.399  17.200  0.00  0.00    +0.000 A 
ATOM      7  C   UNL     1      -3.123   9.715  18.274  0.00  0.00    +0.000 A 
ATOM      8  C   UNL     1      -1.836  10.041  18.703  0.00  0.00    +0.000 A 
ENDBRANCH   1   3
BRANCH   1   9
ATOM      9  N   UNL     1       1.297  10.775  18.103  0.00  0.00    +0.000 N 
ATOM     10  H   UNL     1       1.211  10.687  17.086  0.00  0.00    +0.000 HD
BRANCH   9  14
ATOM     11  C   UNL     1       2.351   6.932  19.593  0.00  0.00    +0.000 A 
ATOM     12  C   UNL     1       2.515   7.220  18.242  0.00  0.00    +0.000 A 
ATOM     13  C   UNL     1       2.118   8.460  17.726  0.00  0.00    +0.000 A 
ATOM     14  C   UNL     1       1.598   9.451  18.563  0.00  0.00    +0.000 A 
ATOM     15  C   UNL     1       1.291   9.090  19.884  0.00  0.00    +0.000 A 
ATOM     16  C   UNL     1       1.675   7.842  20.402  0.00  0.00    +0.000 A 
BRANCH  11  17
ATOM     17  O   UNL     1       2.839   5.721  19.999  0.00  0.00    +0.000 OA
BRANCH  17  19
ATOM     18  C   UNL     1       1.146   4.121  20.535  0.00  0.00    +0.000 C 
ATOM     19  C   UNL     1       2.149   4.578  19.485  0.00  0.00    +0.000 C 
ENDBRANCH  17  19
ENDBRANCH  11  17
ENDBRANCH   9  14
ENDBRANCH   1   9
BRANCH   2  20
ATOM     20  C   UNL     1       1.591  13.236  19.709  0.00  0.00    +0.000 C 
ATOM     21  O   UNL     1       2.609  12.928  19.092  0.00  0.00    +0.000 OA
BRANCH  20  22
ATOM     22  C   UNL     1       1.738  14.297  20.778  0.00  0.00    +0.000 C 
ATOM     23  O   UNL     1       1.853  13.916  21.937  0.00  0.00    +0.000 OA
ATOM     24  N   UNL     1       1.652  15.621  20.359  0.00  0.00    +0.000 N 
ATOM     25  C   UNL     1       1.833  16.711  21.310  0.00  0.00    +0.000 C 
ATOM     26  C   UNL     1       0.860  17.860  21.020  0.00  0.00    +0.000 C 
ATOM     27  O   UNL     1       0.876  18.250  19.634  0.00  0.00    +0.000 OA
ATOM     28  C   UNL     1       0.559  17.134  18.786  0.00  0.00    +0.000 C 
ATOM     29  C   UNL     1       1.607  16.043  18.957  0.00  0.00    +0.000 C 
ENDBRANCH  20  22
ENDBRANCH   2  20
BRANCH   2  30
ATOM     30  C   UNL     1      -0.945  13.259  19.989  0.00  0.00    +0.000 C 
ATOM     31  O   UNL     1      -1.448  14.229  19.422  0.00  0.00    +0.000 OA
BRANCH  30  32
ATOM     32  C   UNL     1      -1.603  12.790  21.249  0.00  0.00    +0.000 A 
ATOM     33  C   UNL     1      -2.864  13.335  21.545  0.00  0.00    +0.000 A 
ATOM     34  C   UNL     1      -3.577  12.929  22.673  0.00  0.00    +0.000 A 
ATOM     35  C   UNL     1      -3.035  11.974  23.526  0.00  0.00    +0.000 A 
ATOM     36  C   UNL     1      -1.783  11.425  23.249  0.00  0.00    +0.000 A 
ATOM     37  C   UNL     1      -1.071  11.818  22.108  0.00  0.00    +0.000 A 
ENDBRANCH  30  32
ENDBRANCH   2  30
TORSDOF 9
ENDMDL
MODEL 5
REMARK VINA RESULT:      -6.4      3.794      6.214
REMARK  Name = 
REMARK  10 active torsions:
REMARK  status: ('A' for Active; 'I' for Inactive)
REMARK    1  A    between atoms: C_1  and  C_2
REMARK    2  A    between atoms: C_2  and  O_3
REMARK    3  A    between atoms: O_3  and  C_4
REMARK    4  A    between atoms: C_7  and  N_8
REMARK    5  A    between atoms: N_8  and  C_9
REMARK    6  A    between atoms: C_9  and  C_29
REMARK    7  A    between atoms: C_10  and  C_11
REMARK    8  A    between atoms: C_10  and  C_21
REMARK    9  A    between atoms: C_11  and  C_13
REMARK   10  A    between atoms: C_21  and  C_23
REMARK                            x       y       z     vdW  Elec       q    Type
REMARK                         _______ _______ _______ _____ _____    ______ ____
ROOT
ATOM      1  C   UNL     1      -4.028  12.506  19.186  0.00  0.00    +0.000 C 
ATOM      2  C   UNL     1      -5.299  12.761  19.607  0.00  0.00    +0.000 C 
ENDROOT
BRANCH   1   3
ATOM      3  C   UNL     1      -3.780  11.538  18.078  0.00  0.00    +0.000 A 
ATOM      4  C   UNL     1      -3.104  10.330  18.329  0.00  0.00    +0.000 A 
ATOM      5  C   UNL     1      -2.752   9.484  17.272  0.00  0.00    +0.000 A 
ATOM      6  C   UNL     1      -3.084   9.825  15.962  0.00  0.00    +0.000 A 
ATOM      7  C   UNL     1      -3.784  11.006  15.708  0.00  0.00    +0.000 A 
ATOM      8  C   UNL     1      -4.132  11.854  16.761  0.00  0.00    +0.000 A 
ENDBRANCH   1   3
BRANCH   1   9
ATOM      9  N   UNL     1      -2.865  13.147  19.641  0.00  0.00    +0.000 N 
ATOM     10  H   UNL     1      -2.299  13.451  18.843  0.00  0.00    +0.000 HD
BRANCH   9  14
ATOM     11  C   UNL     1      -0.142  11.013  22.116  0.00  0.00    +0.000 A 
ATOM     12  C   UNL     1      -1.365  11.430  22.631  0.00  0.00    +0.000 A 
ATOM     13  C   UNL     1      -2.246  12.184  21.846  0.00  0.00    +0.000 A 
ATOM     14  C   UNL     1      -1.940  12.489  20.518  0.00  0.00    +0.000 A 
ATOM     15  C   UNL     1      -0.643  12.201  20.067  0.00  0.00    +0.000 A 
ATOM     16  C   UNL     1       0.250  11.457  20.857  0.00  0.00    +0.000 A 
BRANCH  11  17
ATOM     17  O   UNL     1       0.606  10.223  22.945  0.00  0.00    +0.000 OA
BRANCH  17  19
ATOM     18  C   UNL     1       0.096   8.315  21.601  0.00  0.00    +0.000 C 
ATOM     19  C   UNL     1       1.195   9.073  22.331  0.00  0.00    +0.000 C 
ENDBRANCH  17  19
ENDBRANCH  11  17
ENDBRANCH   9  14
ENDBRANCH   1   9
BRANCH   2  20
ATOM     20  C   UNL     1      -5.589  13.960  20.439  0.00  0.00    +0.000 C 
ATOM     21  O   UNL     1      -5.920  15.034  19.939  0.00  0.00    +0.000 OA
BRANCH  20  22
ATOM     22  C   UNL     1      -5.444  13.926  21.945  0.00  0.00    +0.000 C 
ATOM     23  O   UNL     1      -6.142  13.128  22.560  0.00  0.00    +0.000 OA
ATOM     24  N   UNL     1      -4.582  14.861  22.509  0.00  0.00    +0.000 N 
ATOM     25  C   UNL     1      -4.340  14.869  23.947  0.00  0.00    +0.000 C 
ATOM     26  C   UNL     1      -4.242  16.305  24.479  0.00  0.00    +0.000 C 
ATOM     27  O   UNL     1      -3.338  17.112  23.702  0.00  0.00    +0.000 OA
ATOM     28  C   UNL     1      -3.739  17.144  22.323  0.00  0.00    +0.000 C 
ATOM     29  C   UNL     1      -3.695  15.737  21.741  0.00  0.00    +0.000 C 
ENDBRANCH  20  22
ENDBRANCH   2  20
BRANCH   2  30
ATOM     30  C   UNL     1      -6.485  11.987  19.093  0.00  0.00    +0.000 C 
ATOM     31  O   UNL     1      -7.117  12.346  18.100  0.00  0.00    +0.000 OA
BRANCH  30  32
ATOM     32  C   UNL     1      -6.950  10.743  19.783  0.00  0.00    +0.000 A 
ATOM     33  C   UNL     1      -6.717   9.526  19.119  0.00  0.00    +0.000 A 
ATOM     34  C   UNL     1      -7.074   8.309  19.700  0.00  0.00    +0.000 A 
ATOM     35  C   UNL     1      -7.675   8.291  20.954  0.00  0.00    +0.000 A 
ATOM     36  C   UNL     1      -7.916   9.489  21.625  0.00  0.00    +0.000 A 
ATOM     37  C   UNL     1      -7.544  10.713  21.052  0.00  0.00    +0.000 A 
ENDBRANCH  30  32
ENDBRANCH   2  30
TORSDOF 9
ENDMDL
MODEL 6
REMARK VINA RESULT:      -6.4      2.036      5.136
REMARK  Name = 
REMARK  10 active torsions:
REMARK  status: ('A' for Active; 'I' for Inactive)
REMARK    1  A    between atoms: C_1  and  C_2
REMARK    2  A    between atoms: C_2  and  O_3
REMARK    3  A    between atoms: O_3  and  C_4
REMARK    4  A    between atoms: C_7  and  N_8
REMARK    5  A    between atoms: N_8  and  C_9
REMARK    6  A    between atoms: C_9  and  C_29
REMARK    7  A    between atoms: C_10  and  C_11
REMARK    8  A    between atoms: C_10  and  C_21
REMARK    9  A    between atoms: C_11  and  C_13
REMARK   10  A    between atoms: C_21  and  C_23
REMARK                            x       y       z     vdW  Elec       q    Type
REMARK                         _______ _______ _______ _____ _____    ______ ____
ROOT
ATOM      1  C   UNL     1       0.641  11.815  18.564  0.00  0.00    +0.000 C 
ATOM      2  C   UNL     1      -0.672  12.072  18.825  0.00  0.00    +0.000 C 
ENDROOT
BRANCH   1   3
ATOM      3  C   UNL     1       1.712  12.651  19.183  0.00  0.00    +0.000 A 
ATOM      4  C   UNL     1       1.858  12.695  20.581  0.00  0.00    +0.000 A 
ATOM      5  C   UNL     1       2.770  13.579  21.169  0.00  0.00    +0.000 A 
ATOM      6  C   UNL     1       3.553  14.410  20.369  0.00  0.00    +0.000 A 
ATOM      7  C   UNL     1       3.437  14.348  18.979  0.00  0.00    +0.000 A 
ATOM      8  C   UNL     1       2.524  13.471  18.391  0.00  0.00    +0.000 A 
ENDBRANCH   1   3
BRANCH   1   9
ATOM      9  N   UNL     1       1.137  10.742  17.807  0.00  0.00    +0.000 N 
ATOM     10  H   UNL     1       0.475  10.505  17.062  0.00  0.00    +0.000 HD
BRANCH   9  14
ATOM     11  C   UNL     1       2.289   7.122  19.724  0.00  0.00    +0.000 A 
ATOM     12  C   UNL     1       2.437   7.254  18.346  0.00  0.00    +0.000 A 
ATOM     13  C   UNL     1       2.007   8.417  17.694  0.00  0.00    +0.000 A 
ATOM     14  C   UNL     1       1.471   9.487  18.415  0.00  0.00    +0.000 A 
ATOM     15  C   UNL     1       1.183   9.276  19.772  0.00  0.00    +0.000 A 
ATOM     16  C   UNL     1       1.599   8.105  20.428  0.00  0.00    +0.000 A 
BRANCH  11  17
ATOM     17  O   UNL     1       2.807   5.978  20.263  0.00  0.00    +0.000 OA
BRANCH  17  19
ATOM     18  C   UNL     1       1.172   4.249  20.483  0.00  0.00    +0.000 C 
ATOM     19  C   UNL     1       2.353   4.758  19.669  0.00  0.00    +0.000 C 
ENDBRANCH  17  19
ENDBRANCH  11  17
ENDBRANCH   9  14
ENDBRANCH   1   9
BRANCH   2  20
ATOM     20  C   UNL     1      -1.712  11.053  18.519  0.00  0.00    +0.000 C 
ATOM     21  O   UNL     1      -1.780   9.989  19.130  0.00  0.00    +0.000 OA
BRANCH  20  22
ATOM     22  C   UNL     1      -2.712  11.262  17.402  0.00  0.00    +0.000 C 
ATOM     23  O   UNL     1      -2.291  11.210  16.251  0.00  0.00    +0.000 OA
ATOM     24  N   UNL     1      -4.014  11.572  17.780  0.00  0.00    +0.000 N 
ATOM     25  C   UNL     1      -5.056  11.739  16.775  0.00  0.00    +0.000 C 
ATOM     26  C   UNL     1      -6.000  12.889  17.148  0.00  0.00    +0.000 C 
ATOM     27  O   UNL     1      -6.471  12.788  18.505  0.00  0.00    +0.000 OA
ATOM     28  C   UNL     1      -5.369  12.760  19.427  0.00  0.00    +0.000 C 
ATOM     29  C   UNL     1      -4.505  11.535  19.160  0.00  0.00    +0.000 C 
ENDBRANCH  20  22
ENDBRANCH   2  20
BRANCH   2  30
ATOM     30  C   UNL     1      -1.112  13.279  19.612  0.00  0.00    +0.000 C 
ATOM     31  O   UNL     1      -0.929  14.425  19.204  0.00  0.00    +0.000 OA
BRANCH  30  32
ATOM     32  C   UNL     1      -1.788  13.128  20.939  0.00  0.00    +0.000 A 
ATOM     33  C   UNL     1      -1.387  12.040  21.733  0.00  0.00    +0.000 A 
ATOM     34  C   UNL     1      -1.927  11.838  23.003  0.00  0.00    +0.000 A 
ATOM     35  C   UNL     1      -2.881  12.720  23.497  0.00  0.00    +0.000 A 
ATOM     36  C   UNL     1      -3.292  13.804  22.721  0.00  0.00    +0.000 A 
ATOM     37  C   UNL     1      -2.741  14.019  21.451  0.00  0.00    +0.000 A 
ENDBRANCH  30  32
ENDBRANCH   2  30
TORSDOF 9
ENDMDL
MODEL 7
REMARK VINA RESULT:      -6.3      2.483      5.915
REMARK  Name = 
REMARK  10 active torsions:
REMARK  status: ('A' for Active; 'I' for Inactive)
REMARK    1  A    between atoms: C_1  and  C_2
REMARK    2  A    between atoms: C_2  and  O_3
REMARK    3  A    between atoms: O_3  and  C_4
REMARK    4  A    between atoms: C_7  and  N_8
REMARK    5  A    between atoms: N_8  and  C_9
REMARK    6  A    between atoms: C_9  and  C_29
REMARK    7  A    between atoms: C_10  and  C_11
REMARK    8  A    between atoms: C_10  and  C_21
REMARK    9  A    between atoms: C_11  and  C_13
REMARK   10  A    between atoms: C_21  and  C_23
REMARK                            x       y       z     vdW  Elec       q    Type
REMARK                         _______ _______ _______ _____ _____    ______ ____
ROOT
ATOM      1  C   UNL     1       0.419  12.889  19.060  0.00  0.00    +0.000 C 
ATOM      2  C   UNL     1      -0.608  13.473  19.737  0.00  0.00    +0.000 C 
ENDROOT
BRANCH   1   3
ATOM      3  C   UNL     1       1.796  13.460  19.135  0.00  0.00    +0.000 A 
ATOM      4  C   UNL     1       2.493  13.473  20.357  0.00  0.00    +0.000 A 
ATOM      5  C   UNL     1       3.726  14.126  20.461  0.00  0.00    +0.000 A 
ATOM      6  C   UNL     1       4.280  14.756  19.348  0.00  0.00    +0.000 A 
ATOM      7  C   UNL     1       3.609  14.719  18.123  0.00  0.00    +0.000 A 
ATOM      8  C   UNL     1       2.377  14.072  18.018  0.00  0.00    +0.000 A 
ENDBRANCH   1   3
BRANCH   1   9
ATOM      9  N   UNL     1       0.349  11.694  18.325  0.00  0.00    +0.000 N 
ATOM     10  H   UNL     1      -0.628  11.470  18.115  0.00  0.00    +0.000 HD
BRANCH   9  14
ATOM     11  C   UNL     1       1.870   7.958  19.676  0.00  0.00    +0.000 A 
ATOM     12  C   UNL     1       1.178   8.783  20.557  0.00  0.00    +0.000 A 
ATOM     13  C   UNL     1       0.723  10.041  20.142  0.00  0.00    +0.000 A 
ATOM     14  C   UNL     1       0.908  10.472  18.826  0.00  0.00    +0.000 A 
ATOM     15  C   UNL     1       1.742   9.702  18.001  0.00  0.00    +0.000 A 
ATOM     16  C   UNL     1       2.213   8.446  18.418  0.00  0.00    +0.000 A 
BRANCH  11  17
ATOM     17  O   UNL     1       2.204   6.725  20.165  0.00  0.00    +0.000 OA
BRANCH  17  19
ATOM     18  C   UNL     1       4.055   5.373  19.487  0.00  0.00    +0.000 C 
ATOM     19  C   UNL     1       2.616   5.767  19.186  0.00  0.00    +0.000 C 
ENDBRANCH  17  19
ENDBRANCH  11  17
ENDBRANCH   9  14
ENDBRANCH   1   9
BRANCH   2  20
ATOM     20  C   UNL     1      -1.878  12.731  19.964  0.00  0.00    +0.000 C 
ATOM     21  O   UNL     1      -2.561  12.310  19.032  0.00  0.00    +0.000 OA
BRANCH  20  22
ATOM     22  C   UNL     1      -2.414  12.499  21.360  0.00  0.00    +0.000 C 
ATOM     23  O   UNL     1      -1.839  11.668  22.054  0.00  0.00    +0.000 OA
ATOM     24  N   UNL     1      -3.564  13.199  21.710  0.00  0.00    +0.000 N 
ATOM     25  C   UNL     1      -4.123  13.079  23.051  0.00  0.00    +0.000 C 
ATOM     26  C   UNL     1      -5.657  13.048  23.006  0.00  0.00    +0.000 C 
ATOM     27  O   UNL     1      -6.199  14.119  22.212  0.00  0.00    +0.000 OA
ATOM     28  C   UNL     1      -5.684  14.072  20.872  0.00  0.00    +0.000 C 
ATOM     29  C   UNL     1      -4.172  14.252  20.894  0.00  0.00    +0.000 C 
ENDBRANCH  20  22
ENDBRANCH   2  20
BRANCH   2  30
ATOM     30  C   UNL     1      -0.448  14.785  20.462  0.00  0.00    +0.000 C 
ATOM     31  O   UNL     1      -0.638  14.887  21.673  0.00  0.00    +0.000 OA
BRANCH  30  32
ATOM     32  C   UNL     1      -0.056  16.028  19.727  0.00  0.00    +0.000 A 
ATOM     33  C   UNL     1       0.948  16.819  20.312  0.00  0.00    +0.000 A 
ATOM     34  C   UNL     1       1.413  17.974  19.683  0.00  0.00    +0.000 A 
ATOM     35  C   UNL     1       0.877  18.357  18.458  0.00  0.00    +0.000 A 
ATOM     36  C   UNL     1      -0.122  17.585  17.865  0.00  0.00    +0.000 A 
ATOM     37  C   UNL     1      -0.580  16.416  18.486  0.00  0.00    +0.000 A 
ENDBRANCH  30  32
ENDBRANCH   2  30
TORSDOF 9
ENDMDL
MODEL 8
REMARK VINA RESULT:      -6.3      1.241      1.951
REMARK  Name = 
REMARK  10 active torsions:
REMARK  status: ('A' for Active; 'I' for Inactive)
REMARK    1  A    between atoms: C_1  and  C_2
REMARK    2  A    between atoms: C_2  and  O_3
REMARK    3  A    between atoms: O_3  and  C_4
REMARK    4  A    between atoms: C_7  and  N_8
REMARK    5  A    between atoms: N_8  and  C_9
REMARK    6  A    between atoms: C_9  and  C_29
REMARK    7  A    between atoms: C_10  and  C_11
REMARK    8  A    between atoms: C_10  and  C_21
REMARK    9  A    between atoms: C_11  and  C_13
REMARK   10  A    between atoms: C_21  and  C_23
REMARK                            x       y       z     vdW  Elec       q    Type
REMARK                         _______ _______ _______ _____ _____    ______ ____
ROOT
ATOM      1  C   UNL     1      -0.576  11.618  18.986  0.00  0.00    +0.000 C 
ATOM      2  C   UNL     1      -0.991  12.455  19.978  0.00  0.00    +0.000 C 
ENDROOT
BRANCH   1   3
ATOM      3  C   UNL     1      -1.561  11.037  18.026  0.00  0.00    +0.000 A 
ATOM      4  C   UNL     1      -1.806  11.668  16.793  0.00  0.00    +0.000 A 
ATOM      5  C   UNL     1      -2.822  11.203  15.951  0.00  0.00    +0.000 A 
ATOM      6  C   UNL     1      -3.589  10.100  16.323  0.00  0.00    +0.000 A 
ATOM      7  C   UNL     1      -3.329   9.449  17.531  0.00  0.00    +0.000 A 
ATOM      8  C   UNL     1      -2.319   9.913  18.374  0.00  0.00    +0.000 A 
ENDBRANCH   1   3
BRANCH   1   9
ATOM      9  N   UNL     1       0.756  11.285  18.690  0.00  0.00    +0.000 N 
ATOM     10  H   UNL     1       0.945  11.448  17.696  0.00  0.00    +0.000 HD
BRANCH   9  14
ATOM     11  C   UNL     1       2.152   7.318  19.336  0.00  0.00    +0.000 A 
ATOM     12  C   UNL     1       1.578   8.030  20.385  0.00  0.00    +0.000 A 
ATOM     13  C   UNL     1       1.168   9.357  20.202  0.00  0.00    +0.000 A 
ATOM     14  C   UNL     1       1.278   9.976  18.955  0.00  0.00    +0.000 A 
ATOM     15  C   UNL     1       2.001   9.303  17.957  0.00  0.00    +0.000 A 
ATOM     16  C   UNL     1       2.426   7.977  18.141  0.00  0.00    +0.000 A 
BRANCH  11  17
ATOM     17  O   UNL     1       2.448   6.011  19.606  0.00  0.00    +0.000 OA
BRANCH  17  19
ATOM     18  C   UNL     1       1.053   4.185  20.262  0.00  0.00    +0.000 C 
ATOM     19  C   UNL     1       1.766   5.446  20.729  0.00  0.00    +0.000 C 
ENDBRANCH  17  19
ENDBRANCH  11  17
ENDBRANCH   9  14
ENDBRANCH   1   9
BRANCH   2  20
ATOM     20  C   UNL     1      -0.009  13.310  20.700  0.00  0.00    +0.000 C 
ATOM     21  O   UNL     1       0.712  12.863  21.590  0.00  0.00    +0.000 OA
BRANCH  20  22
ATOM     22  C   UNL     1       0.115  14.788  20.401  0.00  0.00    +0.000 C 
ATOM     23  O   UNL     1      -0.834  15.504  20.699  0.00  0.00    +0.000 OA
ATOM     24  N   UNL     1       1.270  15.196  19.742  0.00  0.00    +0.000 N 
ATOM     25  C   UNL     1       1.500  16.608  19.458  0.00  0.00    +0.000 C 
ATOM     26  C   UNL     1       2.140  16.793  18.077  0.00  0.00    +0.000 C 
ATOM     27  O   UNL     1       3.283  15.938  17.888  0.00  0.00    +0.000 OA
ATOM     28  C   UNL     1       2.923  14.559  18.062  0.00  0.00    +0.000 C 
ATOM     29  C   UNL     1       2.423  14.332  19.483  0.00  0.00    +0.000 C 
ENDBRANCH  20  22
ENDBRANCH   2  20
BRANCH   2  30
ATOM     30  C   UNL     1      -2.449  12.716  20.250  0.00  0.00    +0.000 C 
ATOM     31  O   UNL     1      -3.258  12.903  19.341  0.00  0.00    +0.000 OA
BRANCH  30  32
ATOM     32  C   UNL     1      -2.974  12.768  21.650  0.00  0.00    +0.000 A 
ATOM     33  C   UNL     1      -4.027  13.665  21.899  0.00  0.00    +0.000 A 
ATOM     34  C   UNL     1      -4.613  13.756  23.162  0.00  0.00    +0.000 A 
ATOM     35  C   UNL     1      -4.151  12.952  24.198  0.00  0.00    +0.000 A 
ATOM     36  C   UNL     1      -3.105  12.057  23.969  0.00  0.00    +0.000 A 
ATOM     37  C   UNL     1      -2.525  11.952  22.698  0.00  0.00    +0.000 A 
ENDBRANCH  30  32
ENDBRANCH   2  30
TORSDOF 9
ENDMDL
MODEL 9
REMARK VINA RESULT:      -6.3      1.544      2.420
REMARK  Name = 
REMARK  10 active torsions:
REMARK  status: ('A' for Active; 'I' for Inactive)
REMARK    1  A    between atoms: C_1  and  C_2
REMARK    2  A    between atoms: C_2  and  O_3
REMARK    3  A    between atoms: O_3  and  C_4
REMARK    4  A    between atoms: C_7  and  N_8
REMARK    5  A    between atoms: N_8  and  C_9
REMARK    6  A    between atoms: C_9  and  C_29
REMARK    7  A    between atoms: C_10  and  C_11
REMARK    8  A    between atoms: C_10  and  C_21
REMARK    9  A    between atoms: C_11  and  C_13
REMARK   10  A    between atoms: C_21  and  C_23
REMARK                            x       y       z     vdW  Elec       q    Type
REMARK                         _______ _______ _______ _____ _____    ______ ____
ROOT
ATOM      1  C   UNL     1      -0.728  11.718  19.321  0.00  0.00    +0.000 C 
ATOM      2  C   UNL     1      -1.244  12.550  20.269  0.00  0.00    +0.000 C 
ENDROOT
BRANCH   1   3
ATOM      3  C   UNL     1      -1.616  11.110  18.286  0.00  0.00    +0.000 A 
ATOM      4  C   UNL     1      -1.774  11.731  17.034  0.00  0.00    +0.000 A 
ATOM      5  C   UNL     1      -2.706  11.239  16.114  0.00  0.00    +0.000 A 
ATOM      6  C   UNL     1      -3.473  10.117  16.426  0.00  0.00    +0.000 A 
ATOM      7  C   UNL     1      -3.297   9.476  17.654  0.00  0.00    +0.000 A 
ATOM      8  C   UNL     1      -2.372   9.969  18.576  0.00  0.00    +0.000 A 
ENDBRANCH   1   3
BRANCH   1   9
ATOM      9  N   UNL     1       0.631  11.416  19.140  0.00  0.00    +0.000 N 
ATOM     10  H   UNL     1       0.957  11.794  18.245  0.00  0.00    +0.000 HD
BRANCH   9  14
ATOM     11  C   UNL     1       2.210   7.470  19.334  0.00  0.00    +0.000 A 
ATOM     12  C   UNL     1       2.174   8.143  18.116  0.00  0.00    +0.000 A 
ATOM     13  C   UNL     1       1.604   9.418  18.026  0.00  0.00    +0.000 A 
ATOM     14  C   UNL     1       1.107  10.063  19.162  0.00  0.00    +0.000 A 
ATOM     15  C   UNL     1       1.005   9.312  20.343  0.00  0.00    +0.000 A 
ATOM     16  C   UNL     1       1.563   8.026  20.434  0.00  0.00    +0.000 A 
BRANCH  11  17
ATOM     17  O   UNL     1       2.853   6.263  19.320  0.00  0.00    +0.000 OA
BRANCH  17  19
ATOM     18  C   UNL     1       2.628   4.447  17.783  0.00  0.00    +0.000 C 
ATOM     19  C   UNL     1       3.270   5.805  18.030  0.00  0.00    +0.000 C 
ENDBRANCH  17  19
ENDBRANCH  11  17
ENDBRANCH   9  14
ENDBRANCH   1   9
BRANCH   2  20
ATOM     20  C   UNL     1      -0.346  13.431  21.065  0.00  0.00    +0.000 C 
ATOM     21  O   UNL     1       0.372  12.989  21.960  0.00  0.00    +0.000 OA
BRANCH  20  22
ATOM     22  C   UNL     1      -0.311  14.927  20.838  0.00  0.00    +0.000 C 
ATOM     23  O   UNL     1      -1.272  15.579  21.230  0.00  0.00    +0.000 OA
ATOM     24  N   UNL     1       0.781  15.425  20.135  0.00  0.00    +0.000 N 
ATOM     25  C   UNL     1       0.926  16.859  19.914  0.00  0.00    +0.000 C 
ATOM     26  C   UNL     1       1.471  17.146  18.509  0.00  0.00    +0.000 C 
ATOM     27  O   UNL     1       2.639  16.360  18.207  0.00  0.00    +0.000 OA
ATOM     28  C   UNL     1       2.356  14.957  18.329  0.00  0.00    +0.000 C 
ATOM     29  C   UNL     1       1.956  14.634  19.763  0.00  0.00    +0.000 C 
ENDBRANCH  20  22
ENDBRANCH   2  20
BRANCH   2  30
ATOM     30  C   UNL     1      -2.726  12.778  20.417  0.00  0.00    +0.000 C 
ATOM     31  O   UNL     1      -3.448  13.011  19.448  0.00  0.00    +0.000 OA
BRANCH  30  32
ATOM     32  C   UNL     1      -3.381  12.739  21.762  0.00  0.00    +0.000 A 
ATOM     33  C   UNL     1      -4.703  13.209  21.836  0.00  0.00    +0.000 A 
ATOM     34  C   UNL     1      -5.414  13.174  23.035  0.00  0.00    +0.000 A 
ATOM     35  C   UNL     1      -4.810  12.671  24.182  0.00  0.00    +0.000 A 
ATOM     36  C   UNL     1      -3.498  12.203  24.127  0.00  0.00    +0.000 A 
ATOM     37  C   UNL     1      -2.786  12.222  22.920  0.00  0.00    +0.000 A 
ENDBRANCH  30  32
ENDBRANCH   2  30
TORSDOF 9
ENDMDL
