MODEL 1
REMARK VINA RESULT:      -5.4      0.000      0.000
REMARK  Name = 
REMARK  5 active torsions:
REMARK  status: ('A' for Active; 'I' for Inactive)
REMARK    1  A    between atoms: C_1  and  N_2
REMARK    2  A    between atoms: C_6  and  N_7
REMARK    3  A    between atoms: C_9  and  C_10
REMARK    4  A    between atoms: C_15  and  C_16
REMARK    5  A    between atoms: C_15  and  C_17
REMARK                            x       y       z     vdW  Elec       q    Type
REMARK                         _______ _______ _______ _____ _____    ______ ____
ROOT
ATOM      1  C   UNL     1       1.337   5.385  20.416  0.00  0.00    +0.000 C 
ATOM      2  N   UNL     1       2.483   4.532  20.089  0.00  0.00    +0.000 N 
ATOM      3  C   UNL     1       2.705   3.296  20.677  0.00  0.00    +0.000 C 
ATOM      4  S   UNL     1       1.671   2.418  21.645  0.00  0.00    +0.000 S 
ATOM      5  S   UNL     1       4.298   2.701  20.273  0.00  0.00    +0.000 S 
ATOM      6  C   UNL     1       4.587   3.909  18.953  0.00  0.00    +0.000 C 
ATOM      7  C   UNL     1       3.389   4.911  18.966  0.00  0.00    +0.000 C 
ATOM      8  C   UNL     1       2.617   4.697  17.636  0.00  0.00    +0.000 C 
ATOM      9  C   UNL     1       3.762   6.407  19.039  0.00  0.00    +0.000 C 
ENDROOT
BRANCH   6  10
ATOM     10  N   UNL     1       5.901   4.606  18.877  0.00  0.00    +0.000 N 
ATOM     11  O   UNL     1       6.481   4.910  19.979  0.00  0.00    +0.000 OA
ATOM     12  C   UNL     1       6.513   4.943  17.757  0.00  0.00    +0.000 C 
BRANCH  12  13
ATOM     13  C   UNL     1       6.202   4.704  16.370  0.00  0.00    +0.000 A 
ATOM     14  C   UNL     1       6.434   3.612  15.557  0.00  0.00    +0.000 A 
ATOM     15  C   UNL     1       5.982   3.821  14.220  0.00  0.00    +0.000 A 
ATOM     16  C   UNL     1       5.456   5.080  14.045  0.00  0.00    +0.000 A 
ATOM     17  S   UNL     1       5.489   5.991  15.488  0.00  0.00    +0.000 S 
ENDBRANCH  12  13
ENDBRANCH   6  10
TORSDOF 2
ENDMDL
MODEL 2
REMARK VINA RESULT:      -5.2      2.044      2.520
REMARK  Name = 
REMARK  5 active torsions:
REMARK  status: ('A' for Active; 'I' for Inactive)
REMARK    1  A    between atoms: C_1  and  N_2
REMARK    2  A    between atoms: C_6  and  N_7
REMARK    3  A    between atoms: C_9  and  C_10
REMARK    4  A    between atoms: C_15  and  C_16
REMARK    5  A    between atoms: C_15  and  C_17
REMARK                            x       y       z     vdW  Elec       q    Type
REMARK                         _______ _______ _______ _____ _____    ______ ____
ROOT
ATOM      1  C   UNL     1       0.555   2.261  18.800  0.00  0.00    +0.000 C 
ATOM      2  N   UNL     1       1.589   3.196  19.253  0.00  0.00    +0.000 N 
ATOM      3  C   UNL     1       1.907   3.391  20.588  0.00  0.00    +0.000 C 
ATOM      4  S   UNL     1       1.412   2.496  21.905  0.00  0.00    +0.000 S 
ATOM      5  S   UNL     1       2.961   4.773  20.772  0.00  0.00    +0.000 S 
ATOM      6  C   UNL     1       3.352   4.909  19.008  0.00  0.00    +0.000 C 
ATOM      7  C   UNL     1       2.462   3.873  18.251  0.00  0.00    +0.000 C 
ATOM      8  C   UNL     1       3.426   2.808  17.660  0.00  0.00    +0.000 C 
ATOM      9  C   UNL     1       1.628   4.431  17.079  0.00  0.00    +0.000 C 
ENDROOT
BRANCH   6  10
ATOM     10  N   UNL     1       3.331   6.249  18.358  0.00  0.00    +0.000 N 
ATOM     11  O   UNL     1       2.499   7.116  18.803  0.00  0.00    +0.000 OA
ATOM     12  C   UNL     1       4.101   6.610  17.348  0.00  0.00    +0.000 C 
BRANCH  12  13
ATOM     13  C   UNL     1       5.172   5.939  16.655  0.00  0.00    +0.000 A 
ATOM     14  C   UNL     1       5.208   5.294  15.435  0.00  0.00    +0.000 A 
ATOM     15  C   UNL     1       6.489   4.734  15.151  0.00  0.00    +0.000 A 
ATOM     16  C   UNL     1       7.379   4.935  16.180  0.00  0.00    +0.000 A 
ATOM     17  S   UNL     1       6.678   5.810  17.467  0.00  0.00    +0.000 S 
ENDBRANCH  12  13
ENDBRANCH   6  10
TORSDOF 2
ENDMDL
MODEL 3
REMARK VINA RESULT:      -5.1      1.916      2.500
REMARK  Name = 
REMARK  5 active torsions:
REMARK  status: ('A' for Active; 'I' for Inactive)
REMARK    1  A    between atoms: C_1  and  N_2
REMARK    2  A    between atoms: C_6  and  N_7
REMARK    3  A    between atoms: C_9  and  C_10
REMARK    4  A    between atoms: C_15  and  C_16
REMARK    5  A    between atoms: C_15  and  C_17
REMARK                            x       y       z     vdW  Elec       q    Type
REMARK                         _______ _______ _______ _____ _____    ______ ____
ROOT
ATOM      1  C   UNL     1       0.716   2.084  18.836  0.00  0.00    +0.000 C 
ATOM      2  N   UNL     1       1.676   3.069  19.342  0.00  0.00    +0.000 N 
ATOM      3  C   UNL     1       1.846   3.344  20.691  0.00  0.00    +0.000 C 
ATOM      4  S   UNL     1       1.231   2.510  21.996  0.00  0.00    +0.000 S 
ATOM      5  S   UNL     1       2.847   4.760  20.906  0.00  0.00    +0.000 S 
ATOM      6  C   UNL     1       3.422   4.811  19.188  0.00  0.00    +0.000 C 
ATOM      7  C   UNL     1       2.639   3.712  18.401  0.00  0.00    +0.000 C 
ATOM      8  C   UNL     1       3.681   2.642  17.977  0.00  0.00    +0.000 C 
ATOM      9  C   UNL     1       1.924   4.184  17.118  0.00  0.00    +0.000 C 
ENDROOT
BRANCH   6  10
ATOM     10  N   UNL     1       3.444   6.112  18.464  0.00  0.00    +0.000 N 
ATOM     11  O   UNL     1       2.558   6.984  18.776  0.00  0.00    +0.000 OA
ATOM     12  C   UNL     1       4.305   6.434  17.517  0.00  0.00    +0.000 C 
BRANCH  12  13
ATOM     13  C   UNL     1       5.451   5.750  16.973  0.00  0.00    +0.000 A 
ATOM     14  C   UNL     1       6.626   5.326  17.561  0.00  0.00    +0.000 A 
ATOM     15  C   UNL     1       7.514   4.712  16.628  0.00  0.00    +0.000 A 
ATOM     16  C   UNL     1       7.007   4.723  15.350  0.00  0.00    +0.000 A 
ATOM     17  S   UNL     1       5.463   5.449  15.284  0.00  0.00    +0.000 S 
ENDBRANCH  12  13
ENDBRANCH   6  10
TORSDOF 2
ENDMDL
MODEL 4
REMARK VINA RESULT:      -5.1      2.057      5.665
REMARK  Name = 
REMARK  5 active torsions:
REMARK  status: ('A' for Active; 'I' for Inactive)
REMARK    1  A    between atoms: C_1  and  N_2
REMARK    2  A    between atoms: C_6  and  N_7
REMARK    3  A    between atoms: C_9  and  C_10
REMARK    4  A    between atoms: C_15  and  C_16
REMARK    5  A    between atoms: C_15  and  C_17
REMARK                            x       y       z     vdW  Elec       q    Type
REMARK                         _______ _______ _______ _____ _____    ______ ____
ROOT
ATOM      1  C   UNL     1       7.833   4.416  17.621  0.00  0.00    +0.000 C 
ATOM      2  N   UNL     1       6.543   4.859  17.086  0.00  0.00    +0.000 N 
ATOM      3  C   UNL     1       6.350   5.215  15.759  0.00  0.00    +0.000 C 
ATOM      4  S   UNL     1       7.393   5.003  14.476  0.00  0.00    +0.000 S 
ATOM      5  S   UNL     1       4.785   5.963  15.545  0.00  0.00    +0.000 S 
ATOM      6  C   UNL     1       4.148   5.461  17.165  0.00  0.00    +0.000 C 
ATOM      7  C   UNL     1       5.324   4.790  17.943  0.00  0.00    +0.000 C 
ATOM      8  C   UNL     1       4.946   3.294  18.117  0.00  0.00    +0.000 C 
ATOM      9  C   UNL     1       5.609   5.354  19.351  0.00  0.00    +0.000 C 
ENDROOT
BRANCH   6  10
ATOM     10  N   UNL     1       3.416   6.453  18.001  0.00  0.00    +0.000 N 
ATOM     11  O   UNL     1       3.655   7.696  17.799  0.00  0.00    +0.000 OA
ATOM     12  C   UNL     1       2.542   6.149  18.942  0.00  0.00    +0.000 C 
BRANCH  12  13
ATOM     13  C   UNL     1       1.986   4.894  19.383  0.00  0.00    +0.000 A 
ATOM     14  C   UNL     1       1.269   3.926  18.708  0.00  0.00    +0.000 A 
ATOM     15  C   UNL     1       0.881   2.845  19.555  0.00  0.00    +0.000 A 
ATOM     16  C   UNL     1       1.280   3.040  20.856  0.00  0.00    +0.000 A 
ATOM     17  S   UNL     1       2.133   4.507  21.047  0.00  0.00    +0.000 S 
ENDBRANCH  12  13
ENDBRANCH   6  10
TORSDOF 2
ENDMDL
MODEL 5
REMARK VINA RESULT:      -5.1      0.787      1.035
REMARK  Name = 
REMARK  5 active torsions:
REMARK  status: ('A' for Active; 'I' for Inactive)
REMARK    1  A    between atoms: C_1  and  N_2
REMARK    2  A    between atoms: C_6  and  N_7
REMARK    3  A    between atoms: C_9  and  C_10
REMARK    4  A    between atoms: C_15  and  C_16
REMARK    5  A    between atoms: C_15  and  C_17
REMARK                            x       y       z     vdW  Elec       q    Type
REMARK                         _______ _______ _______ _____ _____    ______ ____
ROOT
ATOM      1  C   UNL     1       1.441   5.552  20.561  0.00  0.00    +0.000 C 
ATOM      2  N   UNL     1       2.566   4.697  20.170  0.00  0.00    +0.000 N 
ATOM      3  C   UNL     1       2.769   3.425  20.683  0.00  0.00    +0.000 C 
ATOM      4  S   UNL     1       1.729   2.512  21.613  0.00  0.00    +0.000 S 
ATOM      5  S   UNL     1       4.344   2.823  20.224  0.00  0.00    +0.000 S 
ATOM      6  C   UNL     1       4.642   4.099  18.972  0.00  0.00    +0.000 C 
ATOM      7  C   UNL     1       3.465   5.122  19.058  0.00  0.00    +0.000 C 
ATOM      8  C   UNL     1       2.673   5.001  17.729  0.00  0.00    +0.000 C 
ATOM      9  C   UNL     1       3.870   6.603  19.213  0.00  0.00    +0.000 C 
ENDROOT
BRANCH   6  10
ATOM     10  N   UNL     1       5.969   4.773  18.919  0.00  0.00    +0.000 N 
ATOM     11  O   UNL     1       6.605   4.928  20.020  0.00  0.00    +0.000 OA
ATOM     12  C   UNL     1       6.538   5.233  17.820  0.00  0.00    +0.000 C 
BRANCH  12  13
ATOM     13  C   UNL     1       6.159   5.173  16.431  0.00  0.00    +0.000 A 
ATOM     14  C   UNL     1       5.452   6.056  15.638  0.00  0.00    +0.000 A 
ATOM     15  C   UNL     1       5.274   5.573  14.307  0.00  0.00    +0.000 A 
ATOM     16  C   UNL     1       5.815   4.320  14.137  0.00  0.00    +0.000 A 
ATOM     17  S   UNL     1       6.549   3.743  15.567  0.00  0.00    +0.000 S 
ENDBRANCH  12  13
ENDBRANCH   6  10
TORSDOF 2
ENDMDL
MODEL 6
REMARK VINA RESULT:      -4.9      2.215      5.624
REMARK  Name = 
REMARK  5 active torsions:
REMARK  status: ('A' for Active; 'I' for Inactive)
REMARK    1  A    between atoms: C_1  and  N_2
REMARK    2  A    between atoms: C_6  and  N_7
REMARK    3  A    between atoms: C_9  and  C_10
REMARK    4  A    between atoms: C_15  and  C_16
REMARK    5  A    between atoms: C_15  and  C_17
REMARK                            x       y       z     vdW  Elec       q    Type
REMARK                         _______ _______ _______ _____ _____    ______ ____
ROOT
ATOM      1  C   UNL     1       7.850   4.441  17.675  0.00  0.00    +0.000 C 
ATOM      2  N   UNL     1       6.544   4.851  17.151  0.00  0.00    +0.000 N 
ATOM      3  C   UNL     1       6.312   5.120  15.810  0.00  0.00    +0.000 C 
ATOM      4  S   UNL     1       7.316   4.824  14.513  0.00  0.00    +0.000 S 
ATOM      5  S   UNL     1       4.742   5.856  15.595  0.00  0.00    +0.000 S 
ATOM      6  C   UNL     1       4.153   5.462  17.263  0.00  0.00    +0.000 C 
ATOM      7  C   UNL     1       5.352   4.840  18.048  0.00  0.00    +0.000 C 
ATOM      8  C   UNL     1       4.979   3.360  18.329  0.00  0.00    +0.000 C 
ATOM      9  C   UNL     1       5.679   5.493  19.407  0.00  0.00    +0.000 C 
ENDROOT
BRANCH   6  10
ATOM     10  N   UNL     1       3.447   6.508  18.054  0.00  0.00    +0.000 N 
ATOM     11  O   UNL     1       3.698   7.734  17.781  0.00  0.00    +0.000 OA
ATOM     12  C   UNL     1       2.584   6.267  19.023  0.00  0.00    +0.000 C 
BRANCH  12  13
ATOM     13  C   UNL     1       2.020   5.045  19.541  0.00  0.00    +0.000 A 
ATOM     14  C   UNL     1       1.971   4.533  20.822  0.00  0.00    +0.000 A 
ATOM     15  C   UNL     1       1.336   3.256  20.876  0.00  0.00    +0.000 A 
ATOM     16  C   UNL     1       0.957   2.816  19.630  0.00  0.00    +0.000 A 
ATOM     17  S   UNL     1       1.345   3.946  18.410  0.00  0.00    +0.000 S 
ENDBRANCH  12  13
ENDBRANCH   6  10
TORSDOF 2
ENDMDL
MODEL 7
REMARK VINA RESULT:      -4.6      2.535      3.213
REMARK  Name = 
REMARK  5 active torsions:
REMARK  status: ('A' for Active; 'I' for Inactive)
REMARK    1  A    between atoms: C_1  and  N_2
REMARK    2  A    between atoms: C_6  and  N_7
REMARK    3  A    between atoms: C_9  and  C_10
REMARK    4  A    between atoms: C_15  and  C_16
REMARK    5  A    between atoms: C_15  and  C_17
REMARK                            x       y       z     vdW  Elec       q    Type
REMARK                         _______ _______ _______ _____ _____    ______ ____
ROOT
ATOM      1  C   UNL     1       3.150   2.699  21.193  0.00  0.00    +0.000 C 
ATOM      2  N   UNL     1       2.966   3.243  19.844  0.00  0.00    +0.000 N 
ATOM      3  C   UNL     1       3.335   2.563  18.693  0.00  0.00    +0.000 C 
ATOM      4  S   UNL     1       3.811   0.972  18.545  0.00  0.00    +0.000 S 
ATOM      5  S   UNL     1       3.243   3.617  17.302  0.00  0.00    +0.000 S 
ATOM      6  C   UNL     1       2.308   4.918  18.151  0.00  0.00    +0.000 C 
ATOM      7  C   UNL     1       2.211   4.516  19.658  0.00  0.00    +0.000 C 
ATOM      8  C   UNL     1       0.713   4.230  19.945  0.00  0.00    +0.000 C 
ATOM      9  C   UNL     1       2.673   5.584  20.671  0.00  0.00    +0.000 C 
ENDROOT
BRANCH   6  10
ATOM     10  N   UNL     1       2.712   6.340  17.975  0.00  0.00    +0.000 N 
ATOM     11  O   UNL     1       1.790   7.230  17.991  0.00  0.00    +0.000 OA
ATOM     12  C   UNL     1       3.952   6.755  17.794  0.00  0.00    +0.000 C 
BRANCH  12  13
ATOM     13  C   UNL     1       5.218   6.065  17.791  0.00  0.00    +0.000 A 
ATOM     14  C   UNL     1       5.995   5.578  18.824  0.00  0.00    +0.000 A 
ATOM     15  C   UNL     1       7.207   4.985  18.362  0.00  0.00    +0.000 A 
ATOM     16  C   UNL     1       7.336   5.072  16.996  0.00  0.00    +0.000 A 
ATOM     17  S   UNL     1       5.995   5.846  16.278  0.00  0.00    +0.000 S 
ENDBRANCH  12  13
ENDBRANCH   6  10
TORSDOF 2
ENDMDL
MODEL 8
REMARK VINA RESULT:      -4.6      2.490      3.130
REMARK  Name = 
REMARK  5 active torsions:
REMARK  status: ('A' for Active; 'I' for Inactive)
REMARK    1  A    between atoms: C_1  and  N_2
REMARK    2  A    between atoms: C_6  and  N_7
REMARK    3  A    between atoms: C_9  and  C_10
REMARK    4  A    between atoms: C_15  and  C_16
REMARK    5  A    between atoms: C_15  and  C_17
REMARK                            x       y       z     vdW  Elec       q    Type
REMARK                         _______ _______ _______ _____ _____    ______ ____
ROOT
ATOM      1  C   UNL     1       3.248   2.699  21.102  0.00  0.00    +0.000 C 
ATOM      2  N   UNL     1       3.062   3.261  19.762  0.00  0.00    +0.000 N 
ATOM      3  C   UNL     1       3.416   2.592  18.599  0.00  0.00    +0.000 C 
ATOM      4  S   UNL     1       3.872   0.997  18.429  0.00  0.00    +0.000 S 
ATOM      5  S   UNL     1       3.328   3.665  17.223  0.00  0.00    +0.000 S 
ATOM      6  C   UNL     1       2.414   4.965  18.094  0.00  0.00    +0.000 C 
ATOM      7  C   UNL     1       2.321   4.545  19.595  0.00  0.00    +0.000 C 
ATOM      8  C   UNL     1       0.821   4.273  19.889  0.00  0.00    +0.000 C 
ATOM      9  C   UNL     1       2.802   5.595  20.619  0.00  0.00    +0.000 C 
ENDROOT
BRANCH   6  10
ATOM     10  N   UNL     1       2.834   6.385  17.932  0.00  0.00    +0.000 N 
ATOM     11  O   UNL     1       1.950   7.294  18.118  0.00  0.00    +0.000 OA
ATOM     12  C   UNL     1       4.050   6.779  17.603  0.00  0.00    +0.000 C 
BRANCH  12  13
ATOM     13  C   UNL     1       5.281   6.060  17.393  0.00  0.00    +0.000 A 
ATOM     14  C   UNL     1       5.935   5.687  16.236  0.00  0.00    +0.000 A 
ATOM     15  C   UNL     1       7.127   4.946  16.496  0.00  0.00    +0.000 A 
ATOM     16  C   UNL     1       7.323   4.742  17.842  0.00  0.00    +0.000 A 
ATOM     17  S   UNL     1       6.090   5.457  18.781  0.00  0.00    +0.000 S 
ENDBRANCH  12  13
ENDBRANCH   6  10
TORSDOF 2
ENDMDL
MODEL 9
REMARK VINA RESULT:      -4.5      1.070      1.071
REMARK  Name = 
REMARK  5 active torsions:
REMARK  status: ('A' for Active; 'I' for Inactive)
REMARK    1  A    between atoms: C_1  and  N_2
REMARK    2  A    between atoms: C_6  and  N_7
REMARK    3  A    between atoms: C_9  and  C_10
REMARK    4  A    between atoms: C_15  and  C_16
REMARK    5  A    between atoms: C_15  and  C_17
REMARK                            x       y       z     vdW  Elec       q    Type
REMARK                         _______ _______ _______ _____ _____    ______ ____
ROOT
ATOM      1  C   UNL     1       2.189   6.266  20.034  0.00  0.00    +0.000 C 
ATOM      2  N   UNL     1       3.122   5.192  19.686  0.00  0.00    +0.000 N 
ATOM      3  C   UNL     1       3.131   3.956  20.316  0.00  0.00    +0.000 C 
ATOM      4  S   UNL     1       2.003   3.333  21.374  0.00  0.00    +0.000 S 
ATOM      5  S   UNL     1       4.547   3.042  19.855  0.00  0.00    +0.000 S 
ATOM      6  C   UNL     1       4.990   4.124  18.470  0.00  0.00    +0.000 C 
ATOM      7  C   UNL     1       4.016   5.345  18.501  0.00  0.00    +0.000 C 
ATOM      8  C   UNL     1       3.139   5.246  17.224  0.00  0.00    +0.000 C 
ATOM      9  C   UNL     1       4.681   6.738  18.490  0.00  0.00    +0.000 C 
ENDROOT
BRANCH   6  10
ATOM     10  N   UNL     1       6.409   4.542  18.296  0.00  0.00    +0.000 N 
ATOM     11  O   UNL     1       7.086   4.812  19.349  0.00  0.00    +0.000 OA
ATOM     12  C   UNL     1       7.021   4.664  17.133  0.00  0.00    +0.000 C 
BRANCH  12  13
ATOM     13  C   UNL     1       6.606   4.383  15.781  0.00  0.00    +0.000 A 
ATOM     14  C   UNL     1       5.651   3.521  15.280  0.00  0.00    +0.000 A 
ATOM     15  C   UNL     1       5.594   3.538  13.854  0.00  0.00    +0.000 A 
ATOM     16  C   UNL     1       6.535   4.382  13.311  0.00  0.00    +0.000 A 
ATOM     17  S   UNL     1       7.462   5.161  14.514  0.00  0.00    +0.000 S 
ENDBRANCH  12  13
ENDBRANCH   6  10
TORSDOF 2
ENDMDL
