MODEL 1
REMARK VINA RESULT:      -6.9      0.000      0.000
REMARK  Name = 
REMARK  3 active torsions:
REMARK  status: ('A' for Active; 'I' for Inactive)
REMARK    1  A    between atoms: N_6  and  C_7
REMARK    2  A    between atoms: C_7  and  C_8
REMARK    3  A    between atoms: C_17  and  C_19
REMARK                            x       y       z     vdW  Elec       q    Type
REMARK                         _______ _______ _______ _____ _____    ______ ____
ROOT
ATOM      1  C   UNL     1       6.074   5.492  15.730  0.00  0.00    +0.000 A 
ATOM      2  N   UNL     1       5.770   6.561  15.023  0.00  0.00    +0.000 NA
ATOM      3  N   UNL     1       4.818   7.271  15.706  0.00  0.00    +0.000 NA
ATOM      4  C   UNL     1       4.540   6.627  16.823  0.00  0.00    +0.000 A 
ATOM      5  N   UNL     1       5.383   5.541  16.917  0.00  0.00    +0.000 N 
ATOM      6  C   UNL     1       5.517   4.633  18.043  0.00  0.00    +0.000 C 
ATOM      7  C   UNL     1       5.439   5.325  19.405  0.00  0.00    +0.000 C 
ATOM      8  C   UNL     1       4.017   5.694  19.829  0.00  0.00    +0.000 C 
ATOM      9  N   UNL     1       3.135   5.932  18.696  0.00  0.00    +0.000 N 
ATOM     10  C   UNL     1       2.001   5.186  18.361  0.00  0.00    +0.000 C 
ATOM     11  O   UNL     1       1.216   5.590  17.504  0.00  0.00    +0.000 OA
ATOM     12  C   UNL     1       3.510   7.042  17.823  0.00  0.00    +0.000 C 
ENDROOT
BRANCH  10  13
ATOM     13  C   UNL     1       1.719   3.933  19.046  0.00  0.00    +0.000 A 
ATOM     14  C   UNL     1       1.054   3.608  20.217  0.00  0.00    +0.000 A 
ATOM     15  C   UNL     1       1.098   2.202  20.388  0.00  0.00    +0.000 A 
ATOM     16  C   UNL     1       1.839   1.696  19.350  0.00  0.00    +0.000 A 
ATOM     17  N   UNL     1       2.251   2.747  18.577  0.00  0.00    +0.000 N 
ATOM     18  H   UNL     1       2.853   2.690  17.765  0.00  0.00    +0.000 HD
ENDBRANCH  10  13
BRANCH   1  19
ATOM     19  C   UNL     1       7.010   4.413  15.312  0.00  0.00    +0.000 C 
BRANCH  19  25
ATOM     20  O   UNL     1       8.676   5.807  13.336  0.00  0.00    +0.000 OA
ATOM     21  C   UNL     1       7.803   5.017  13.012  0.00  0.00    +0.000 C 
ATOM     22  C   UNL     1       7.340   4.734  11.604  0.00  0.00    +0.000 C 
ATOM     23  C   UNL     1       6.571   3.427  11.754  0.00  0.00    +0.000 C 
ATOM     24  C   UNL     1       6.037   3.476  13.173  0.00  0.00    +0.000 C 
ATOM     25  N   UNL     1       7.005   4.285  13.869  0.00  0.00    +0.000 N 
ENDBRANCH  19  25
ENDBRANCH   1  19
TORSDOF 3
ENDMDL
MODEL 2
REMARK VINA RESULT:      -6.8      8.783     12.272
REMARK  Name = 
REMARK  3 active torsions:
REMARK  status: ('A' for Active; 'I' for Inactive)
REMARK    1  A    between atoms: N_6  and  C_7
REMARK    2  A    between atoms: C_7  and  C_8
REMARK    3  A    between atoms: C_17  and  C_19
REMARK                            x       y       z     vdW  Elec       q    Type
REMARK                         _______ _______ _______ _____ _____    ______ ____
ROOT
ATOM      1  C   UNL     1      -4.591  12.775  22.023  0.00  0.00    +0.000 A 
ATOM      2  N   UNL     1      -4.835  12.456  23.279  0.00  0.00    +0.000 NA
ATOM      3  N   UNL     1      -3.655  12.076  23.862  0.00  0.00    +0.000 NA
ATOM      4  C   UNL     1      -2.699  12.156  22.957  0.00  0.00    +0.000 A 
ATOM      5  N   UNL     1      -3.237  12.684  21.804  0.00  0.00    +0.000 N 
ATOM      6  C   UNL     1      -2.521  13.067  20.600  0.00  0.00    +0.000 C 
ATOM      7  C   UNL     1      -1.172  13.735  20.872  0.00  0.00    +0.000 C 
ATOM      8  C   UNL     1      -0.065  12.755  21.258  0.00  0.00    +0.000 C 
ATOM      9  N   UNL     1      -0.575  11.557  21.911  0.00  0.00    +0.000 N 
ATOM     10  C   UNL     1      -0.484  10.250  21.424  0.00  0.00    +0.000 C 
ATOM     11  O   UNL     1      -0.768   9.292  22.144  0.00  0.00    +0.000 OA
ATOM     12  C   UNL     1      -1.271  11.773  23.177  0.00  0.00    +0.000 C 
ENDROOT
BRANCH  10  13
ATOM     13  C   UNL     1      -0.022  10.003  20.066  0.00  0.00    +0.000 A 
ATOM     14  C   UNL     1       1.198   9.641  19.518  0.00  0.00    +0.000 A 
ATOM     15  C   UNL     1       1.053   9.547  18.111  0.00  0.00    +0.000 A 
ATOM     16  C   UNL     1      -0.238   9.909  17.817  0.00  0.00    +0.000 A 
ATOM     17  N   UNL     1      -0.861  10.230  18.992  0.00  0.00    +0.000 N 
ATOM     18  H   UNL     1      -1.808  10.578  19.089  0.00  0.00    +0.000 HD
ENDBRANCH  10  13
BRANCH   1  19
ATOM     19  C   UNL     1      -5.612  13.168  21.015  0.00  0.00    +0.000 C 
BRANCH  19  25
ATOM     20  O   UNL     1      -4.920  11.946  18.436  0.00  0.00    +0.000 OA
ATOM     21  C   UNL     1      -5.809  11.507  19.148  0.00  0.00    +0.000 C 
ATOM     22  C   UNL     1      -6.771  10.400  18.788  0.00  0.00    +0.000 C 
ATOM     23  C   UNL     1      -7.353  10.002  20.140  0.00  0.00    +0.000 C 
ATOM     24  C   UNL     1      -7.294  11.280  20.955  0.00  0.00    +0.000 C 
ATOM     25  N   UNL     1      -6.173  11.988  20.392  0.00  0.00    +0.000 N 
ENDBRANCH  19  25
ENDBRANCH   1  19
TORSDOF 3
ENDMDL
MODEL 3
REMARK VINA RESULT:      -6.6      1.805      7.061
REMARK  Name = 
REMARK  3 active torsions:
REMARK  status: ('A' for Active; 'I' for Inactive)
REMARK    1  A    between atoms: N_6  and  C_7
REMARK    2  A    between atoms: C_7  and  C_8
REMARK    3  A    between atoms: C_17  and  C_19
REMARK                            x       y       z     vdW  Elec       q    Type
REMARK                         _______ _______ _______ _____ _____    ______ ____
ROOT
ATOM      1  C   UNL     1       4.868   3.301  19.303  0.00  0.00    +0.000 A 
ATOM      2  N   UNL     1       5.705   3.708  20.236  0.00  0.00    +0.000 NA
ATOM      3  N   UNL     1       6.413   4.772  19.743  0.00  0.00    +0.000 NA
ATOM      4  C   UNL     1       6.011   5.004  18.509  0.00  0.00    +0.000 A 
ATOM      5  N   UNL     1       4.967   4.150  18.226  0.00  0.00    +0.000 N 
ATOM      6  C   UNL     1       4.138   4.148  17.034  0.00  0.00    +0.000 C 
ATOM      7  C   UNL     1       3.792   5.547  16.521  0.00  0.00    +0.000 C 
ATOM      8  C   UNL     1       4.933   6.227  15.766  0.00  0.00    +0.000 C 
ATOM      9  N   UNL     1       6.246   5.776  16.204  0.00  0.00    +0.000 N 
ATOM     10  C   UNL     1       7.186   5.093  15.427  0.00  0.00    +0.000 C 
ATOM     11  O   UNL     1       8.338   4.935  15.832  0.00  0.00    +0.000 OA
ATOM     12  C   UNL     1       6.577   6.048  17.602  0.00  0.00    +0.000 C 
ENDROOT
BRANCH  10  13
ATOM     13  C   UNL     1       6.821   4.584  14.113  0.00  0.00    +0.000 A 
ATOM     14  C   UNL     1       5.850   3.706  13.659  0.00  0.00    +0.000 A 
ATOM     15  C   UNL     1       5.973   3.583  12.252  0.00  0.00    +0.000 A 
ATOM     16  C   UNL     1       7.053   4.342  11.877  0.00  0.00    +0.000 A 
ATOM     17  N   UNL     1       7.587   4.899  13.006  0.00  0.00    +0.000 N 
ATOM     18  H   UNL     1       8.420   5.474  13.051  0.00  0.00    +0.000 HD
ENDBRANCH  10  13
BRANCH   1  19
ATOM     19  C   UNL     1       3.966   2.121  19.400  0.00  0.00    +0.000 C 
BRANCH  19  25
ATOM     20  O   UNL     1       1.366   2.671  18.152  0.00  0.00    +0.000 OA
ATOM     21  C   UNL     1       1.549   2.781  19.354  0.00  0.00    +0.000 C 
ATOM     22  C   UNL     1       0.564   3.336  20.355  0.00  0.00    +0.000 C 
ATOM     23  C   UNL     1       1.132   2.863  21.689  0.00  0.00    +0.000 C 
ATOM     24  C   UNL     1       2.626   2.780  21.442  0.00  0.00    +0.000 C 
ATOM     25  N   UNL     1       2.720   2.502  20.032  0.00  0.00    +0.000 N 
ENDBRANCH  19  25
ENDBRANCH   1  19
TORSDOF 3
ENDMDL
MODEL 4
REMARK VINA RESULT:      -6.6      4.980      7.947
REMARK  Name = 
REMARK  3 active torsions:
REMARK  status: ('A' for Active; 'I' for Inactive)
REMARK    1  A    between atoms: N_6  and  C_7
REMARK    2  A    between atoms: C_7  and  C_8
REMARK    3  A    between atoms: C_17  and  C_19
REMARK                            x       y       z     vdW  Elec       q    Type
REMARK                         _______ _______ _______ _____ _____    ______ ____
ROOT
ATOM      1  C   UNL     1       2.190   7.499  19.404  0.00  0.00    +0.000 A 
ATOM      2  N   UNL     1       1.930   7.004  20.597  0.00  0.00    +0.000 NA
ATOM      3  N   UNL     1       1.103   7.876  21.254  0.00  0.00    +0.000 NA
ATOM      4  C   UNL     1       0.868   8.904  20.461  0.00  0.00    +0.000 A 
ATOM      5  N   UNL     1       1.466   8.657  19.244  0.00  0.00    +0.000 N 
ATOM      6  C   UNL     1       1.354   9.457  18.037  0.00  0.00    +0.000 C 
ATOM      7  C   UNL     1      -0.048  10.021  17.800  0.00  0.00    +0.000 C 
ATOM      8  C   UNL     1      -0.382  11.231  18.671  0.00  0.00    +0.000 C 
ATOM      9  N   UNL     1       0.337  11.229  19.937  0.00  0.00    +0.000 N 
ATOM     10  C   UNL     1       1.278  12.176  20.353  0.00  0.00    +0.000 C 
ATOM     11  O   UNL     1       1.677  12.193  21.518  0.00  0.00    +0.000 OA
ATOM     12  C   UNL     1       0.055  10.104  20.826  0.00  0.00    +0.000 C 
ENDROOT
BRANCH  10  13
ATOM     13  C   UNL     1       1.775  13.176  19.420  0.00  0.00    +0.000 A 
ATOM     14  C   UNL     1       2.684  13.146  18.374  0.00  0.00    +0.000 A 
ATOM     15  C   UNL     1       2.774  14.444  17.814  0.00  0.00    +0.000 A 
ATOM     16  C   UNL     1       1.964  15.260  18.564  0.00  0.00    +0.000 A 
ATOM     17  N   UNL     1       1.408  14.501  19.557  0.00  0.00    +0.000 N 
ATOM     18  H   UNL     1       0.800  14.837  20.295  0.00  0.00    +0.000 HD
ENDBRANCH  10  13
BRANCH   1  19
ATOM     19  C   UNL     1       3.111   6.903  18.399  0.00  0.00    +0.000 C 
BRANCH  19  25
ATOM     20  O   UNL     1       5.017   4.861  19.306  0.00  0.00    +0.000 OA
ATOM     21  C   UNL     1       3.942   4.573  18.802  0.00  0.00    +0.000 C 
ATOM     22  C   UNL     1       3.477   3.185  18.435  0.00  0.00    +0.000 C 
ATOM     23  C   UNL     1       1.975   3.367  18.250  0.00  0.00    +0.000 C 
ATOM     24  C   UNL     1       1.833   4.806  17.793  0.00  0.00    +0.000 C 
ATOM     25  N   UNL     1       2.968   5.462  18.390  0.00  0.00    +0.000 N 
ENDBRANCH  19  25
ENDBRANCH   1  19
TORSDOF 3
ENDMDL
MODEL 5
REMARK VINA RESULT:      -6.5     10.106     13.564
REMARK  Name = 
REMARK  3 active torsions:
REMARK  status: ('A' for Active; 'I' for Inactive)
REMARK    1  A    between atoms: N_6  and  C_7
REMARK    2  A    between atoms: C_7  and  C_8
REMARK    3  A    between atoms: C_17  and  C_19
REMARK                            x       y       z     vdW  Elec       q    Type
REMARK                         _______ _______ _______ _____ _____    ______ ____
ROOT
ATOM      1  C   UNL     1      -6.300  12.659  22.545  0.00  0.00    +0.000 A 
ATOM      2  N   UNL     1      -6.559  12.245  23.770  0.00  0.00    +0.000 NA
ATOM      3  N   UNL     1      -5.404  12.321  24.502  0.00  0.00    +0.000 NA
ATOM      4  C   UNL     1      -4.444  12.774  23.719  0.00  0.00    +0.000 A 
ATOM      5  N   UNL     1      -4.995  13.086  22.495  0.00  0.00    +0.000 N 
ATOM      6  C   UNL     1      -4.332  13.736  21.378  0.00  0.00    +0.000 C 
ATOM      7  C   UNL     1      -3.375  14.855  21.796  0.00  0.00    +0.000 C 
ATOM      8  C   UNL     1      -2.038  14.353  22.340  0.00  0.00    +0.000 C 
ATOM      9  N   UNL     1      -2.139  13.037  22.956  0.00  0.00    +0.000 N 
ATOM     10  C   UNL     1      -1.506  11.870  22.519  0.00  0.00    +0.000 C 
ATOM     11  O   UNL     1      -1.498  10.860  23.223  0.00  0.00    +0.000 OA
ATOM     12  C   UNL     1      -3.016  12.949  24.122  0.00  0.00    +0.000 C 
ENDROOT
BRANCH  10  13
ATOM     13  C   UNL     1      -0.822  11.844  21.234  0.00  0.00    +0.000 A 
ATOM     14  C   UNL     1      -1.234  11.615  19.931  0.00  0.00    +0.000 A 
ATOM     15  C   UNL     1      -0.109  11.715  19.076  0.00  0.00    +0.000 A 
ATOM     16  C   UNL     1       0.983  11.946  19.876  0.00  0.00    +0.000 A 
ATOM     17  N   UNL     1       0.553  11.970  21.174  0.00  0.00    +0.000 N 
ATOM     18  H   UNL     1       1.139  12.076  21.994  0.00  0.00    +0.000 HD
ENDBRANCH  10  13
BRANCH   1  19
ATOM     19  C   UNL     1      -7.262  12.663  21.409  0.00  0.00    +0.000 C 
BRANCH  19  25
ATOM     20  O   UNL     1      -5.864  12.081  18.894  0.00  0.00    +0.000 OA
ATOM     21  C   UNL     1      -6.528  11.241  19.481  0.00  0.00    +0.000 C 
ATOM     22  C   UNL     1      -6.859   9.858  18.974  0.00  0.00    +0.000 C 
ATOM     23  C   UNL     1      -7.326   9.137  20.234  0.00  0.00    +0.000 C 
ATOM     24  C   UNL     1      -7.916  10.240  21.091  0.00  0.00    +0.000 C 
ATOM     25  N   UNL     1      -7.180  11.411  20.687  0.00  0.00    +0.000 N 
ENDBRANCH  19  25
ENDBRANCH   1  19
TORSDOF 3
ENDMDL
MODEL 6
REMARK VINA RESULT:      -6.5      2.043      7.109
REMARK  Name = 
REMARK  3 active torsions:
REMARK  status: ('A' for Active; 'I' for Inactive)
REMARK    1  A    between atoms: N_6  and  C_7
REMARK    2  A    between atoms: C_7  and  C_8
REMARK    3  A    between atoms: C_17  and  C_19
REMARK                            x       y       z     vdW  Elec       q    Type
REMARK                         _______ _______ _______ _____ _____    ______ ____
ROOT
ATOM      1  C   UNL     1       4.841   3.316  19.285  0.00  0.00    +0.000 A 
ATOM      2  N   UNL     1       5.666   3.699  20.238  0.00  0.00    +0.000 NA
ATOM      3  N   UNL     1       6.395   4.762  19.773  0.00  0.00    +0.000 NA
ATOM      4  C   UNL     1       6.017   5.017  18.536  0.00  0.00    +0.000 A 
ATOM      5  N   UNL     1       4.968   4.180  18.223  0.00  0.00    +0.000 N 
ATOM      6  C   UNL     1       4.159   4.205  17.017  0.00  0.00    +0.000 C 
ATOM      7  C   UNL     1       3.838   5.615  16.519  0.00  0.00    +0.000 C 
ATOM      8  C   UNL     1       5.000   6.293  15.793  0.00  0.00    +0.000 C 
ATOM      9  N   UNL     1       6.300   5.820  16.247  0.00  0.00    +0.000 N 
ATOM     10  C   UNL     1       7.245   5.137  15.476  0.00  0.00    +0.000 C 
ATOM     11  O   UNL     1       8.388   4.959  15.897  0.00  0.00    +0.000 OA
ATOM     12  C   UNL     1       6.610   6.067  17.653  0.00  0.00    +0.000 C 
ENDROOT
BRANCH  10  13
ATOM     13  C   UNL     1       6.897   4.652  14.148  0.00  0.00    +0.000 A 
ATOM     14  C   UNL     1       5.987   3.719  13.674  0.00  0.00    +0.000 A 
ATOM     15  C   UNL     1       6.094   3.659  12.263  0.00  0.00    +0.000 A 
ATOM     16  C   UNL     1       7.107   4.512  11.901  0.00  0.00    +0.000 A 
ATOM     17  N   UNL     1       7.617   5.066  13.044  0.00  0.00    +0.000 N 
ATOM     18  H   UNL     1       8.405   5.700  13.098  0.00  0.00    +0.000 HD
ENDBRANCH  10  13
BRANCH   1  19
ATOM     19  C   UNL     1       3.924   2.146  19.350  0.00  0.00    +0.000 C 
BRANCH  19  25
ATOM     20  O   UNL     1       2.989   2.499  22.111  0.00  0.00    +0.000 OA
ATOM     21  C   UNL     1       2.257   2.664  21.149  0.00  0.00    +0.000 C 
ATOM     22  C   UNL     1       0.771   2.923  21.198  0.00  0.00    +0.000 C 
ATOM     23  C   UNL     1       0.469   3.444  19.797  0.00  0.00    +0.000 C 
ATOM     24  C   UNL     1       1.510   2.771  18.923  0.00  0.00    +0.000 C 
ATOM     25  N   UNL     1       2.620   2.564  19.819  0.00  0.00    +0.000 N 
ENDBRANCH  19  25
ENDBRANCH   1  19
TORSDOF 3
ENDMDL
MODEL 7
REMARK VINA RESULT:      -6.4     11.338     13.935
REMARK  Name = 
REMARK  3 active torsions:
REMARK  status: ('A' for Active; 'I' for Inactive)
REMARK    1  A    between atoms: N_6  and  C_7
REMARK    2  A    between atoms: C_7  and  C_8
REMARK    3  A    between atoms: C_17  and  C_19
REMARK                            x       y       z     vdW  Elec       q    Type
REMARK                         _______ _______ _______ _____ _____    ______ ____
ROOT
ATOM      1  C   UNL     1      -6.314  11.334  18.680  0.00  0.00    +0.000 A 
ATOM      2  N   UNL     1      -6.632  10.103  19.025  0.00  0.00    +0.000 NA
ATOM      3  N   UNL     1      -7.178  10.136  20.281  0.00  0.00    +0.000 NA
ATOM      4  C   UNL     1      -7.183  11.387  20.699  0.00  0.00    +0.000 A 
ATOM      5  N   UNL     1      -6.728  12.188  19.675  0.00  0.00    +0.000 N 
ATOM      6  C   UNL     1      -6.693  13.640  19.649  0.00  0.00    +0.000 C 
ATOM      7  C   UNL     1      -7.917  14.297  20.291  0.00  0.00    +0.000 C 
ATOM      8  C   UNL     1      -7.890  14.291  21.819  0.00  0.00    +0.000 C 
ATOM      9  N   UNL     1      -7.133  13.173  22.365  0.00  0.00    +0.000 N 
ATOM     10  C   UNL     1      -5.964  13.261  23.126  0.00  0.00    +0.000 C 
ATOM     11  O   UNL     1      -5.517  12.270  23.704  0.00  0.00    +0.000 OA
ATOM     12  C   UNL     1      -7.647  11.843  22.045  0.00  0.00    +0.000 C 
ENDROOT
BRANCH  10  13
ATOM     13  C   UNL     1      -5.276  14.535  23.270  0.00  0.00    +0.000 A 
ATOM     14  C   UNL     1      -4.333  15.209  22.510  0.00  0.00    +0.000 A 
ATOM     15  C   UNL     1      -4.020  16.431  23.155  0.00  0.00    +0.000 A 
ATOM     16  C   UNL     1      -4.732  16.458  24.328  0.00  0.00    +0.000 A 
ATOM     17  N   UNL     1      -5.445  15.293  24.414  0.00  0.00    +0.000 N 
ATOM     18  H   UNL     1      -6.029  15.007  25.190  0.00  0.00    +0.000 HD
ENDBRANCH  10  13
BRANCH   1  19
ATOM     19  C   UNL     1      -5.625  11.732  17.422  0.00  0.00    +0.000 C 
BRANCH  19  25
ATOM     20  O   UNL     1      -3.913  10.363  15.469  0.00  0.00    +0.000 OA
ATOM     21  C   UNL     1      -3.496  10.735  16.554  0.00  0.00    +0.000 C 
ATOM     22  C   UNL     1      -2.130  10.445  17.127  0.00  0.00    +0.000 C 
ATOM     23  C   UNL     1      -2.013  11.459  18.259  0.00  0.00    +0.000 C 
ATOM     24  C   UNL     1      -3.446  11.676  18.707  0.00  0.00    +0.000 C 
ATOM     25  N   UNL     1      -4.213  11.424  17.513  0.00  0.00    +0.000 N 
ENDBRANCH  19  25
ENDBRANCH   1  19
TORSDOF 3
ENDMDL
MODEL 8
REMARK VINA RESULT:      -6.4      4.934      8.044
REMARK  Name = 
REMARK  3 active torsions:
REMARK  status: ('A' for Active; 'I' for Inactive)
REMARK    1  A    between atoms: N_6  and  C_7
REMARK    2  A    between atoms: C_7  and  C_8
REMARK    3  A    between atoms: C_17  and  C_19
REMARK                            x       y       z     vdW  Elec       q    Type
REMARK                         _______ _______ _______ _____ _____    ______ ____
ROOT
ATOM      1  C   UNL     1       2.217   7.566  19.270  0.00  0.00    +0.000 A 
ATOM      2  N   UNL     1       2.002   7.039  20.458  0.00  0.00    +0.000 NA
ATOM      3  N   UNL     1       1.187   7.886  21.162  0.00  0.00    +0.000 NA
ATOM      4  C   UNL     1       0.916   8.929  20.403  0.00  0.00    +0.000 A 
ATOM      5  N   UNL     1       1.476   8.719  19.162  0.00  0.00    +0.000 N 
ATOM      6  C   UNL     1       1.316   9.546  17.979  0.00  0.00    +0.000 C 
ATOM      7  C   UNL     1      -0.099  10.100  17.801  0.00  0.00    +0.000 C 
ATOM      8  C   UNL     1      -0.418  11.284  18.712  0.00  0.00    +0.000 C 
ATOM      9  N   UNL     1       0.343  11.260  19.954  0.00  0.00    +0.000 N 
ATOM     10  C   UNL     1       1.285  12.208  20.362  0.00  0.00    +0.000 C 
ATOM     11  O   UNL     1       1.723  12.201  21.513  0.00  0.00    +0.000 OA
ATOM     12  C   UNL     1       0.102  10.110  20.823  0.00  0.00    +0.000 C 
ENDROOT
BRANCH  10  13
ATOM     13  C   UNL     1       1.741  13.235  19.438  0.00  0.00    +0.000 A 
ATOM     14  C   UNL     1       2.648  13.251  18.391  0.00  0.00    +0.000 A 
ATOM     15  C   UNL     1       2.686  14.558  17.844  0.00  0.00    +0.000 A 
ATOM     16  C   UNL     1       1.846  15.334  18.602  0.00  0.00    +0.000 A 
ATOM     17  N   UNL     1       1.322  14.544  19.589  0.00  0.00    +0.000 N 
ATOM     18  H   UNL     1       0.703  14.848  20.331  0.00  0.00    +0.000 HD
ENDBRANCH  10  13
BRANCH   1  19
ATOM     19  C   UNL     1       3.112   7.005  18.221  0.00  0.00    +0.000 C 
BRANCH  19  25
ATOM     20  O   UNL     1       1.547   4.589  17.641  0.00  0.00    +0.000 OA
ATOM     21  C   UNL     1       2.605   4.551  18.249  0.00  0.00    +0.000 C 
ATOM     22  C   UNL     1       3.205   3.335  18.912  0.00  0.00    +0.000 C 
ATOM     23  C   UNL     1       4.654   3.749  19.136  0.00  0.00    +0.000 C 
ATOM     24  C   UNL     1       4.584   5.255  19.302  0.00  0.00    +0.000 C 
ATOM     25  N   UNL     1       3.428   5.626  18.526  0.00  0.00    +0.000 N 
ENDBRANCH  19  25
ENDBRANCH   1  19
TORSDOF 3
ENDMDL
MODEL 9
REMARK VINA RESULT:      -6.3     11.080     13.759
REMARK  Name = 
REMARK  3 active torsions:
REMARK  status: ('A' for Active; 'I' for Inactive)
REMARK    1  A    between atoms: N_6  and  C_7
REMARK    2  A    between atoms: C_7  and  C_8
REMARK    3  A    between atoms: C_17  and  C_19
REMARK                            x       y       z     vdW  Elec       q    Type
REMARK                         _______ _______ _______ _____ _____    ______ ____
ROOT
ATOM      1  C   UNL     1      -6.060  12.229  19.667  0.00  0.00    +0.000 A 
ATOM      2  N   UNL     1      -6.809  11.167  19.891  0.00  0.00    +0.000 NA
ATOM      3  N   UNL     1      -7.187  11.179  21.208  0.00  0.00    +0.000 NA
ATOM      4  C   UNL     1      -6.661  12.244  21.782  0.00  0.00    +0.000 A 
ATOM      5  N   UNL     1      -6.016  12.983  20.815  0.00  0.00    +0.000 N 
ATOM      6  C   UNL     1      -5.411  14.294  20.975  0.00  0.00    +0.000 C 
ATOM      7  C   UNL     1      -6.214  15.238  21.872  0.00  0.00    +0.000 C 
ATOM      8  C   UNL     1      -6.061  14.949  23.365  0.00  0.00    +0.000 C 
ATOM      9  N   UNL     1      -5.765  13.550  23.641  0.00  0.00    +0.000 N 
ATOM     10  C   UNL     1      -4.596  13.055  24.225  0.00  0.00    +0.000 C 
ATOM     11  O   UNL     1      -4.529  11.882  24.596  0.00  0.00    +0.000 OA
ATOM     12  C   UNL     1      -6.789  12.592  23.230  0.00  0.00    +0.000 C 
ENDROOT
BRANCH  10  13
ATOM     13  C   UNL     1      -3.451  13.928  24.431  0.00  0.00    +0.000 A 
ATOM     14  C   UNL     1      -2.330  14.237  23.676  0.00  0.00    +0.000 A 
ATOM     15  C   UNL     1      -1.539  15.165  24.397  0.00  0.00    +0.000 A 
ATOM     16  C   UNL     1      -2.158  15.365  25.605  0.00  0.00    +0.000 A 
ATOM     17  N   UNL     1      -3.278  14.579  25.638  0.00  0.00    +0.000 N 
ATOM     18  H   UNL     1      -3.914  14.479  26.420  0.00  0.00    +0.000 HD
ENDBRANCH  10  13
BRANCH   1  19
ATOM     19  C   UNL     1      -5.380  12.555  18.384  0.00  0.00    +0.000 C 
BRANCH  19  25
ATOM     20  O   UNL     1      -4.402  10.721  16.310  0.00  0.00    +0.000 OA
ATOM     21  C   UNL     1      -3.750  10.985  17.307  0.00  0.00    +0.000 C 
ATOM     22  C   UNL     1      -2.449  10.337  17.715  0.00  0.00    +0.000 C 
ATOM     23  C   UNL     1      -1.900  11.303  18.759  0.00  0.00    +0.000 C 
ATOM     24  C   UNL     1      -3.141  11.921  19.375  0.00  0.00    +0.000 C 
ATOM     25  N   UNL     1      -4.109  11.867  18.309  0.00  0.00    +0.000 N 
ENDBRANCH  19  25
ENDBRANCH   1  19
TORSDOF 3
ENDMDL
