MODEL 1
REMARK VINA RESULT:      -7.7      0.000      0.000
REMARK  Name = 
REMARK  7 active torsions:
REMARK  status: ('A' for Active; 'I' for Inactive)
REMARK    1  A    between atoms: C_1  and  O_2
REMARK    2  A    between atoms: O_2  and  C_3
REMARK    3  A    between atoms: C_6  and  C_7
REMARK    4  A    between atoms: N_9  and  C_10
REMARK    5  A    between atoms: C_10  and  N_12
REMARK    6  A    between atoms: N_12  and  C_13
REMARK    7  A    between atoms: C_16  and  N_17
REMARK                            x       y       z     vdW  Elec       q    Type
REMARK                         _______ _______ _______ _____ _____    ______ ____
ROOT
ATOM      1  C   UNL     1       2.426   4.784  20.130  0.00  0.00    +0.000 C 
ATOM      2  S   UNL     1       1.486   3.533  20.700  0.00  0.00    +0.000 S 
ENDROOT
BRANCH   1   5
ATOM      3  C   UNL     1       4.566   4.139  18.981  0.00  0.00    +0.000 C 
ATOM      4  O   UNL     1       5.018   3.396  19.849  0.00  0.00    +0.000 OA
ATOM      5  N   UNL     1       3.327   4.752  19.074  0.00  0.00    +0.000 N 
ATOM      6  H   UNL     1       2.972   5.219  18.249  0.00  0.00    +0.000 HD
BRANCH   3  10
ATOM      7  C   UNL     1       6.622   4.548  15.200  0.00  0.00    +0.000 A 
ATOM      8  C   UNL     1       5.266   4.253  15.273  0.00  0.00    +0.000 A 
ATOM      9  C   UNL     1       4.633   4.145  16.513  0.00  0.00    +0.000 A 
ATOM     10  C   UNL     1       5.347   4.309  17.708  0.00  0.00    +0.000 A 
ATOM     11  C   UNL     1       6.715   4.602  17.631  0.00  0.00    +0.000 A 
ATOM     12  C   UNL     1       7.349   4.721  16.379  0.00  0.00    +0.000 A 
BRANCH   7  14
ATOM     13  C   UNL     1       6.441   3.815  12.954  0.00  0.00    +0.000 C 
ATOM     14  O   UNL     1       7.128   4.586  13.931  0.00  0.00    +0.000 OA
ENDBRANCH   7  14
ENDBRANCH   3  10
ENDBRANCH   1   5
BRANCH   1  15
ATOM     15  N   UNL     1       2.392   5.995  20.798  0.00  0.00    +0.000 N 
ATOM     16  H   UNL     1       2.433   5.938  21.812  0.00  0.00    +0.000 HD
BRANCH  15  17
ATOM     17  C   UNL     1       1.975   7.229  20.255  0.00  0.00    +0.000 A 
ATOM     18  C   UNL     1       2.288   7.593  18.948  0.00  0.00    +0.000 A 
ATOM     19  C   UNL     1       1.901   8.833  18.444  0.00  0.00    +0.000 A 
ATOM     20  C   UNL     1       1.138   9.737  19.193  0.00  0.00    +0.000 A 
ATOM     21  C   UNL     1       0.811   9.336  20.500  0.00  0.00    +0.000 A 
ATOM     22  C   UNL     1       1.201   8.090  21.023  0.00  0.00    +0.000 A 
BRANCH  20  23
ATOM     23  N   UNL     1       0.752  10.956  18.667  0.00  0.00    +0.000 N 
ATOM     24  C   UNL     1       1.689  12.064  18.478  0.00  0.00    +0.000 C 
ATOM     25  C   UNL     1       0.910  13.283  18.959  0.00  0.00    +0.000 C 
ATOM     26  C   UNL     1      -0.519  12.958  18.555  0.00  0.00    +0.000 C 
ATOM     27  C   UNL     1      -0.618  11.461  18.827  0.00  0.00    +0.000 C 
ENDBRANCH  20  23
ENDBRANCH  15  17
ENDBRANCH   1  15
TORSDOF 6
ENDMDL
MODEL 2
REMARK VINA RESULT:      -7.7      0.580      1.053
REMARK  Name = 
REMARK  7 active torsions:
REMARK  status: ('A' for Active; 'I' for Inactive)
REMARK    1  A    between atoms: C_1  and  O_2
REMARK    2  A    between atoms: O_2  and  C_3
REMARK    3  A    between atoms: C_6  and  C_7
REMARK    4  A    between atoms: N_9  and  C_10
REMARK    5  A    between atoms: C_10  and  N_12
REMARK    6  A    between atoms: N_12  and  C_13
REMARK    7  A    between atoms: C_16  and  N_17
REMARK                            x       y       z     vdW  Elec       q    Type
REMARK                         _______ _______ _______ _____ _____    ______ ____
ROOT
ATOM      1  C   UNL     1       2.427   4.808  20.116  0.00  0.00    +0.000 C 
ATOM      2  S   UNL     1       1.500   3.530  20.644  0.00  0.00    +0.000 S 
ENDROOT
BRANCH   1   5
ATOM      3  C   UNL     1       4.519   4.114  18.909  0.00  0.00    +0.000 C 
ATOM      4  O   UNL     1       4.896   3.243  19.689  0.00  0.00    +0.000 OA
ATOM      5  N   UNL     1       3.336   4.817  19.067  0.00  0.00    +0.000 N 
ATOM      6  H   UNL     1       3.033   5.402  18.298  0.00  0.00    +0.000 HD
BRANCH   3  10
ATOM      7  C   UNL     1       6.953   4.997  15.447  0.00  0.00    +0.000 A 
ATOM      8  C   UNL     1       7.168   5.611  16.675  0.00  0.00    +0.000 A 
ATOM      9  C   UNL     1       6.372   5.288  17.775  0.00  0.00    +0.000 A 
ATOM     10  C   UNL     1       5.328   4.358  17.666  0.00  0.00    +0.000 A 
ATOM     11  C   UNL     1       5.111   3.744  16.425  0.00  0.00    +0.000 A 
ATOM     12  C   UNL     1       5.923   4.064  15.320  0.00  0.00    +0.000 A 
BRANCH   7  14
ATOM     13  C   UNL     1       7.495   4.931  13.141  0.00  0.00    +0.000 C 
ATOM     14  O   UNL     1       7.773   5.431  14.443  0.00  0.00    +0.000 OA
ENDBRANCH   7  14
ENDBRANCH   3  10
ENDBRANCH   1   5
BRANCH   1  15
ATOM     15  N   UNL     1       2.374   6.000  20.818  0.00  0.00    +0.000 N 
ATOM     16  H   UNL     1       2.417   5.915  21.830  0.00  0.00    +0.000 HD
BRANCH  15  17
ATOM     17  C   UNL     1       1.933   7.240  20.310  0.00  0.00    +0.000 A 
ATOM     18  C   UNL     1       2.199   7.627  18.999  0.00  0.00    +0.000 A 
ATOM     19  C   UNL     1       1.790   8.873  18.529  0.00  0.00    +0.000 A 
ATOM     20  C   UNL     1       1.051   9.762  19.319  0.00  0.00    +0.000 A 
ATOM     21  C   UNL     1       0.772   9.339  20.630  0.00  0.00    +0.000 A 
ATOM     22  C   UNL     1       1.184   8.086  21.119  0.00  0.00    +0.000 A 
BRANCH  20  23
ATOM     23  N   UNL     1       0.643  10.987  18.827  0.00  0.00    +0.000 N 
ATOM     24  C   UNL     1       1.339  12.235  19.145  0.00  0.00    +0.000 C 
ATOM     25  C   UNL     1       0.210  13.221  19.421  0.00  0.00    +0.000 C 
ATOM     26  C   UNL     1      -0.878  12.773  18.459  0.00  0.00    +0.000 C 
ATOM     27  C   UNL     1      -0.764  11.253  18.499  0.00  0.00    +0.000 C 
ENDBRANCH  20  23
ENDBRANCH  15  17
ENDBRANCH   1  15
TORSDOF 6
ENDMDL
MODEL 3
REMARK VINA RESULT:      -7.6      0.905      1.368
REMARK  Name = 
REMARK  7 active torsions:
REMARK  status: ('A' for Active; 'I' for Inactive)
REMARK    1  A    between atoms: C_1  and  O_2
REMARK    2  A    between atoms: O_2  and  C_3
REMARK    3  A    between atoms: C_6  and  C_7
REMARK    4  A    between atoms: N_9  and  C_10
REMARK    5  A    between atoms: C_10  and  N_12
REMARK    6  A    between atoms: N_12  and  C_13
REMARK    7  A    between atoms: C_16  and  N_17
REMARK                            x       y       z     vdW  Elec       q    Type
REMARK                         _______ _______ _______ _____ _____    ______ ____
ROOT
ATOM      1  C   UNL     1       2.682   4.907  19.786  0.00  0.00    +0.000 C 
ATOM      2  S   UNL     1       1.698   3.717  20.408  0.00  0.00    +0.000 S 
ENDROOT
BRANCH   1   5
ATOM      3  C   UNL     1       4.906   4.802  18.621  0.00  0.00    +0.000 C 
ATOM      4  O   UNL     1       5.627   4.751  19.614  0.00  0.00    +0.000 OA
ATOM      5  N   UNL     1       3.522   4.820  18.684  0.00  0.00    +0.000 N 
ATOM      6  H   UNL     1       3.013   4.706  17.817  0.00  0.00    +0.000 HD
BRANCH   3  10
ATOM      7  C   UNL     1       6.547   4.606  14.625  0.00  0.00    +0.000 A 
ATOM      8  C   UNL     1       5.186   4.766  14.856  0.00  0.00    +0.000 A 
ATOM      9  C   UNL     1       4.695   4.842  16.161  0.00  0.00    +0.000 A 
ATOM     10  C   UNL     1       5.553   4.738  17.265  0.00  0.00    +0.000 A 
ATOM     11  C   UNL     1       6.924   4.572  17.029  0.00  0.00    +0.000 A 
ATOM     12  C   UNL     1       7.418   4.507  15.712  0.00  0.00    +0.000 A 
BRANCH   7  14
ATOM     13  C   UNL     1       6.286   3.449  12.574  0.00  0.00    +0.000 C 
ATOM     14  O   UNL     1       6.893   4.505  13.307  0.00  0.00    +0.000 OA
ENDBRANCH   7  14
ENDBRANCH   3  10
ENDBRANCH   1   5
BRANCH   1  15
ATOM     15  N   UNL     1       2.759   6.118  20.451  0.00  0.00    +0.000 N 
ATOM     16  H   UNL     1       3.126   6.076  21.397  0.00  0.00    +0.000 HD
BRANCH  15  17
ATOM     17  C   UNL     1       2.084   7.304  20.091  0.00  0.00    +0.000 A 
ATOM     18  C   UNL     1       1.272   7.984  20.995  0.00  0.00    +0.000 A 
ATOM     19  C   UNL     1       0.582   9.130  20.609  0.00  0.00    +0.000 A 
ATOM     20  C   UNL     1       0.715   9.684  19.330  0.00  0.00    +0.000 A 
ATOM     21  C   UNL     1       1.561   8.996  18.443  0.00  0.00    +0.000 A 
ATOM     22  C   UNL     1       2.258   7.834  18.819  0.00  0.00    +0.000 A 
BRANCH  20  23
ATOM     23  N   UNL     1       0.033  10.832  18.971  0.00  0.00    +0.000 N 
ATOM     24  C   UNL     1      -0.041  12.008  19.839  0.00  0.00    +0.000 C 
ATOM     25  C   UNL     1      -1.497  12.446  19.733  0.00  0.00    +0.000 C 
ATOM     26  C   UNL     1      -1.852  12.106  18.295  0.00  0.00    +0.000 C 
ATOM     27  C   UNL     1      -1.122  10.788  18.065  0.00  0.00    +0.000 C 
ENDBRANCH  20  23
ENDBRANCH  15  17
ENDBRANCH   1  15
TORSDOF 6
ENDMDL
MODEL 4
REMARK VINA RESULT:      -7.6      0.884      1.808
REMARK  Name = 
REMARK  7 active torsions:
REMARK  status: ('A' for Active; 'I' for Inactive)
REMARK    1  A    between atoms: C_1  and  O_2
REMARK    2  A    between atoms: O_2  and  C_3
REMARK    3  A    between atoms: C_6  and  C_7
REMARK    4  A    between atoms: N_9  and  C_10
REMARK    5  A    between atoms: C_10  and  N_12
REMARK    6  A    between atoms: N_12  and  C_13
REMARK    7  A    between atoms: C_16  and  N_17
REMARK                            x       y       z     vdW  Elec       q    Type
REMARK                         _______ _______ _______ _____ _____    ______ ____
ROOT
ATOM      1  C   UNL     1       2.533   5.154  19.596  0.00  0.00    +0.000 C 
ATOM      2  S   UNL     1       1.450   4.061  20.234  0.00  0.00    +0.000 S 
ENDROOT
BRANCH   1   5
ATOM      3  C   UNL     1       4.721   5.055  18.364  0.00  0.00    +0.000 C 
ATOM      4  O   UNL     1       5.475   5.171  19.327  0.00  0.00    +0.000 OA
ATOM      5  N   UNL     1       3.342   4.989  18.480  0.00  0.00    +0.000 N 
ATOM      6  H   UNL     1       2.814   4.738  17.653  0.00  0.00    +0.000 HD
BRANCH   3  10
ATOM      7  C   UNL     1       6.639   4.674  14.508  0.00  0.00    +0.000 A 
ATOM      8  C   UNL     1       7.246   5.332  15.572  0.00  0.00    +0.000 A 
ATOM      9  C   UNL     1       6.603   5.420  16.807  0.00  0.00    +0.000 A 
ATOM     10  C   UNL     1       5.327   4.870  17.001  0.00  0.00    +0.000 A 
ATOM     11  C   UNL     1       4.716   4.212  15.925  0.00  0.00    +0.000 A 
ATOM     12  C   UNL     1       5.372   4.114  14.684  0.00  0.00    +0.000 A 
BRANCH   7  14
ATOM     13  C   UNL     1       6.849   3.898  12.279  0.00  0.00    +0.000 C 
ATOM     14  O   UNL     1       7.355   4.693  13.344  0.00  0.00    +0.000 OA
ENDBRANCH   7  14
ENDBRANCH   3  10
ENDBRANCH   1   5
BRANCH   1  15
ATOM     15  N   UNL     1       2.737   6.349  20.262  0.00  0.00    +0.000 N 
ATOM     16  H   UNL     1       3.255   6.283  21.133  0.00  0.00    +0.000 HD
BRANCH  15  17
ATOM     17  C   UNL     1       2.031   7.550  20.041  0.00  0.00    +0.000 A 
ATOM     18  C   UNL     1       1.285   8.154  21.050  0.00  0.00    +0.000 A 
ATOM     19  C   UNL     1       0.562   9.318  20.800  0.00  0.00    +0.000 A 
ATOM     20  C   UNL     1       0.595   9.964  19.558  0.00  0.00    +0.000 A 
ATOM     21  C   UNL     1       1.376   9.351  18.563  0.00  0.00    +0.000 A 
ATOM     22  C   UNL     1       2.105   8.172  18.801  0.00  0.00    +0.000 A 
BRANCH  20  23
ATOM     23  N   UNL     1      -0.118  11.127  19.336  0.00  0.00    +0.000 N 
ATOM     24  C   UNL     1      -1.535  11.124  18.971  0.00  0.00    +0.000 C 
ATOM     25  C   UNL     1      -1.629  12.176  17.871  0.00  0.00    +0.000 C 
ATOM     26  C   UNL     1      -0.596  13.207  18.295  0.00  0.00    +0.000 C 
ATOM     27  C   UNL     1       0.536  12.348  18.848  0.00  0.00    +0.000 C 
ENDBRANCH  20  23
ENDBRANCH  15  17
ENDBRANCH   1  15
TORSDOF 6
ENDMDL
MODEL 5
REMARK VINA RESULT:      -7.5      3.640      5.176
REMARK  Name = 
REMARK  7 active torsions:
REMARK  status: ('A' for Active; 'I' for Inactive)
REMARK    1  A    between atoms: C_1  and  O_2
REMARK    2  A    between atoms: O_2  and  C_3
REMARK    3  A    between atoms: C_6  and  C_7
REMARK    4  A    between atoms: N_9  and  C_10
REMARK    5  A    between atoms: C_10  and  N_12
REMARK    6  A    between atoms: N_12  and  C_13
REMARK    7  A    between atoms: C_16  and  N_17
REMARK                            x       y       z     vdW  Elec       q    Type
REMARK                         _______ _______ _______ _____ _____    ______ ____
ROOT
ATOM      1  C   UNL     1       1.005   9.525  19.941  0.00  0.00    +0.000 C 
ATOM      2  S   UNL     1       0.846   9.987  21.533  0.00  0.00    +0.000 S 
ENDROOT
BRANCH   1   5
ATOM      3  C   UNL     1       2.286   8.198  18.234  0.00  0.00    +0.000 C 
ATOM      4  O   UNL     1       2.473   9.093  17.414  0.00  0.00    +0.000 OA
ATOM      5  N   UNL     1       1.648   8.398  19.448  0.00  0.00    +0.000 N 
ATOM      6  H   UNL     1       1.677   7.643  20.121  0.00  0.00    +0.000 HD
BRANCH   3  10
ATOM      7  C   UNL     1       3.770   4.197  17.540  0.00  0.00    +0.000 A 
ATOM      8  C   UNL     1       2.496   4.433  18.045  0.00  0.00    +0.000 A 
ATOM      9  C   UNL     1       2.046   5.740  18.239  0.00  0.00    +0.000 A 
ATOM     10  C   UNL     1       2.867   6.840  17.954  0.00  0.00    +0.000 A 
ATOM     11  C   UNL     1       4.152   6.598  17.450  0.00  0.00    +0.000 A 
ATOM     12  C   UNL     1       4.600   5.279  17.244  0.00  0.00    +0.000 A 
BRANCH   7  14
ATOM     13  C   UNL     1       3.361   1.971  18.242  0.00  0.00    +0.000 C 
ATOM     14  O   UNL     1       4.104   2.875  17.435  0.00  0.00    +0.000 OA
ENDBRANCH   7  14
ENDBRANCH   3  10
ENDBRANCH   1   5
BRANCH   1  15
ATOM     15  N   UNL     1       0.519  10.366  18.956  0.00  0.00    +0.000 N 
ATOM     16  H   UNL     1       1.179  11.052  18.600  0.00  0.00    +0.000 HD
BRANCH  15  17
ATOM     17  C   UNL     1      -0.841  10.588  18.655  0.00  0.00    +0.000 A 
ATOM     18  C   UNL     1      -1.510   9.828  17.699  0.00  0.00    +0.000 A 
ATOM     19  C   UNL     1      -2.842  10.090  17.388  0.00  0.00    +0.000 A 
ATOM     20  C   UNL     1      -3.583  11.075  18.052  0.00  0.00    +0.000 A 
ATOM     21  C   UNL     1      -2.895  11.811  19.031  0.00  0.00    +0.000 A 
ATOM     22  C   UNL     1      -1.548  11.561  19.350  0.00  0.00    +0.000 A 
BRANCH  20  23
ATOM     23  N   UNL     1      -4.909  11.308  17.738  0.00  0.00    +0.000 N 
ATOM     24  C   UNL     1      -5.317  12.256  16.699  0.00  0.00    +0.000 C 
ATOM     25  C   UNL     1      -6.493  12.997  17.327  0.00  0.00    +0.000 C 
ATOM     26  C   UNL     1      -7.160  11.926  18.174  0.00  0.00    +0.000 C 
ATOM     27  C   UNL     1      -5.975  11.148  18.736  0.00  0.00    +0.000 C 
ENDBRANCH  20  23
ENDBRANCH  15  17
ENDBRANCH   1  15
TORSDOF 6
ENDMDL
MODEL 6
REMARK VINA RESULT:      -7.5      3.245      8.811
REMARK  Name = 
REMARK  7 active torsions:
REMARK  status: ('A' for Active; 'I' for Inactive)
REMARK    1  A    between atoms: C_1  and  O_2
REMARK    2  A    between atoms: O_2  and  C_3
REMARK    3  A    between atoms: C_6  and  C_7
REMARK    4  A    between atoms: N_9  and  C_10
REMARK    5  A    between atoms: C_10  and  N_12
REMARK    6  A    between atoms: N_12  and  C_13
REMARK    7  A    between atoms: C_16  and  N_17
REMARK                            x       y       z     vdW  Elec       q    Type
REMARK                         _______ _______ _______ _____ _____    ______ ____
ROOT
ATOM      1  C   UNL     1       2.028   5.738  20.536  0.00  0.00    +0.000 C 
ATOM      2  S   UNL     1       1.388   4.234  20.215  0.00  0.00    +0.000 S 
ENDROOT
BRANCH   1   5
ATOM      3  C   UNL     1       1.314   8.147  20.510  0.00  0.00    +0.000 C 
ATOM      4  O   UNL     1       1.811   8.470  19.434  0.00  0.00    +0.000 OA
ATOM      5  N   UNL     1       1.359   6.857  21.013  0.00  0.00    +0.000 N 
ATOM      6  H   UNL     1       0.792   6.652  21.826  0.00  0.00    +0.000 HD
BRANCH   3  10
ATOM      7  C   UNL     1      -0.914  11.261  22.518  0.00  0.00    +0.000 A 
ATOM      8  C   UNL     1      -0.502  11.385  21.196  0.00  0.00    +0.000 A 
ATOM      9  C   UNL     1       0.201  10.351  20.577  0.00  0.00    +0.000 A 
ATOM     10  C   UNL     1       0.527   9.177  21.271  0.00  0.00    +0.000 A 
ATOM     11  C   UNL     1       0.114   9.058  22.605  0.00  0.00    +0.000 A 
ATOM     12  C   UNL     1      -0.605  10.098  23.225  0.00  0.00    +0.000 A 
BRANCH   7  14
ATOM     13  C   UNL     1      -0.885  13.603  22.877  0.00  0.00    +0.000 C 
ATOM     14  O   UNL     1      -1.557  12.358  23.019  0.00  0.00    +0.000 OA
ENDBRANCH   7  14
ENDBRANCH   3  10
ENDBRANCH   1   5
BRANCH   1  15
ATOM     15  N   UNL     1       3.360   5.967  20.241  0.00  0.00    +0.000 N 
ATOM     16  H   UNL     1       3.806   6.707  20.776  0.00  0.00    +0.000 HD
BRANCH  15  17
ATOM     17  C   UNL     1       4.036   5.534  19.081  0.00  0.00    +0.000 A 
ATOM     18  C   UNL     1       4.973   4.504  19.124  0.00  0.00    +0.000 A 
ATOM     19  C   UNL     1       5.660   4.119  17.976  0.00  0.00    +0.000 A 
ATOM     20  C   UNL     1       5.405   4.697  16.726  0.00  0.00    +0.000 A 
ATOM     21  C   UNL     1       4.437   5.716  16.701  0.00  0.00    +0.000 A 
ATOM     22  C   UNL     1       3.741   6.118  17.856  0.00  0.00    +0.000 A 
BRANCH  20  23
ATOM     23  N   UNL     1       6.087   4.289  15.595  0.00  0.00    +0.000 N 
ATOM     24  C   UNL     1       7.407   4.814  15.240  0.00  0.00    +0.000 C 
ATOM     25  C   UNL     1       7.309   5.053  13.737  0.00  0.00    +0.000 C 
ATOM     26  C   UNL     1       6.401   3.928  13.270  0.00  0.00    +0.000 C 
ATOM     27  C   UNL     1       5.378   3.824  14.396  0.00  0.00    +0.000 C 
ENDBRANCH  20  23
ENDBRANCH  15  17
ENDBRANCH   1  15
TORSDOF 6
ENDMDL
MODEL 7
REMARK VINA RESULT:      -7.5      0.725      1.536
REMARK  Name = 
REMARK  7 active torsions:
REMARK  status: ('A' for Active; 'I' for Inactive)
REMARK    1  A    between atoms: C_1  and  O_2
REMARK    2  A    between atoms: O_2  and  C_3
REMARK    3  A    between atoms: C_6  and  C_7
REMARK    4  A    between atoms: N_9  and  C_10
REMARK    5  A    between atoms: C_10  and  N_12
REMARK    6  A    between atoms: N_12  and  C_13
REMARK    7  A    between atoms: C_16  and  N_17
REMARK                            x       y       z     vdW  Elec       q    Type
REMARK                         _______ _______ _______ _____ _____    ______ ____
ROOT
ATOM      1  C   UNL     1       2.259   5.019  19.963  0.00  0.00    +0.000 C 
ATOM      2  S   UNL     1       1.192   3.822  20.411  0.00  0.00    +0.000 S 
ENDROOT
BRANCH   1   5
ATOM      3  C   UNL     1       4.331   4.226  18.781  0.00  0.00    +0.000 C 
ATOM      4  O   UNL     1       4.656   3.338  19.564  0.00  0.00    +0.000 OA
ATOM      5  N   UNL     1       3.180   4.985  18.924  0.00  0.00    +0.000 N 
ATOM      6  H   UNL     1       2.915   5.584  18.152  0.00  0.00    +0.000 HD
BRANCH   3  10
ATOM      7  C   UNL     1       6.898   4.923  15.373  0.00  0.00    +0.000 A 
ATOM      8  C   UNL     1       7.323   5.154  16.676  0.00  0.00    +0.000 A 
ATOM      9  C   UNL     1       6.471   4.901  17.752  0.00  0.00    +0.000 A 
ATOM     10  C   UNL     1       5.166   4.432  17.548  0.00  0.00    +0.000 A 
ATOM     11  C   UNL     1       4.738   4.205  16.233  0.00  0.00    +0.000 A 
ATOM     12  C   UNL     1       5.603   4.450  15.150  0.00  0.00    +0.000 A 
BRANCH   7  14
ATOM     13  C   UNL     1       7.451   4.942  13.068  0.00  0.00    +0.000 C 
ATOM     14  O   UNL     1       7.811   5.249  14.409  0.00  0.00    +0.000 OA
ENDBRANCH   7  14
ENDBRANCH   3  10
ENDBRANCH   1   5
BRANCH   1  15
ATOM     15  N   UNL     1       2.322   6.171  20.727  0.00  0.00    +0.000 N 
ATOM     16  H   UNL     1       2.552   6.034  21.708  0.00  0.00    +0.000 HD
BRANCH  15  17
ATOM     17  C   UNL     1       1.783   7.426  20.377  0.00  0.00    +0.000 A 
ATOM     18  C   UNL     1       1.041   8.180  21.283  0.00  0.00    +0.000 A 
ATOM     19  C   UNL     1       0.483   9.399  20.905  0.00  0.00    +0.000 A 
ATOM     20  C   UNL     1       0.686   9.949  19.634  0.00  0.00    +0.000 A 
ATOM     21  C   UNL     1       1.461   9.184  18.745  0.00  0.00    +0.000 A 
ATOM     22  C   UNL     1       2.025   7.949  19.113  0.00  0.00    +0.000 A 
BRANCH  20  23
ATOM     23  N   UNL     1       0.136  11.168  19.284  0.00  0.00    +0.000 N 
ATOM     24  C   UNL     1       0.862  12.431  19.429  0.00  0.00    +0.000 C 
ATOM     25  C   UNL     1      -0.179  13.384  20.004  0.00  0.00    +0.000 C 
ATOM     26  C   UNL     1      -1.469  12.916  19.351  0.00  0.00    +0.000 C 
ATOM     27  C   UNL     1      -1.314  11.400  19.336  0.00  0.00    +0.000 C 
ENDBRANCH  20  23
ENDBRANCH  15  17
ENDBRANCH   1  15
TORSDOF 6
ENDMDL
MODEL 8
REMARK VINA RESULT:      -7.5      3.629      5.147
REMARK  Name = 
REMARK  7 active torsions:
REMARK  status: ('A' for Active; 'I' for Inactive)
REMARK    1  A    between atoms: C_1  and  O_2
REMARK    2  A    between atoms: O_2  and  C_3
REMARK    3  A    between atoms: C_6  and  C_7
REMARK    4  A    between atoms: N_9  and  C_10
REMARK    5  A    between atoms: C_10  and  N_12
REMARK    6  A    between atoms: N_12  and  C_13
REMARK    7  A    between atoms: C_16  and  N_17
REMARK                            x       y       z     vdW  Elec       q    Type
REMARK                         _______ _______ _______ _____ _____    ______ ____
ROOT
ATOM      1  C   UNL     1       1.006   9.638  20.024  0.00  0.00    +0.000 C 
ATOM      2  S   UNL     1       0.812  10.004  21.637  0.00  0.00    +0.000 S 
ENDROOT
BRANCH   1   5
ATOM      3  C   UNL     1       2.242   8.393  18.223  0.00  0.00    +0.000 C 
ATOM      4  O   UNL     1       2.325   9.302  17.402  0.00  0.00    +0.000 OA
ATOM      5  N   UNL     1       1.676   8.551  19.479  0.00  0.00    +0.000 N 
ATOM      6  H   UNL     1       1.791   7.794  20.142  0.00  0.00    +0.000 HD
BRANCH   3  10
ATOM      7  C   UNL     1       4.241   4.711  17.158  0.00  0.00    +0.000 A 
ATOM      8  C   UNL     1       4.819   5.955  16.934  0.00  0.00    +0.000 A 
ATOM      9  C   UNL     1       4.150   7.121  17.307  0.00  0.00    +0.000 A 
ATOM     10  C   UNL     1       2.877   7.072  17.893  0.00  0.00    +0.000 A 
ATOM     11  C   UNL     1       2.295   5.816  18.112  0.00  0.00    +0.000 A 
ATOM     12  C   UNL     1       2.976   4.640  17.746  0.00  0.00    +0.000 A 
BRANCH   7  14
ATOM     13  C   UNL     1       6.001   3.948  15.766  0.00  0.00    +0.000 C 
ATOM     14  O   UNL     1       4.979   3.651  16.710  0.00  0.00    +0.000 OA
ENDBRANCH   7  14
ENDBRANCH   3  10
ENDBRANCH   1   5
BRANCH   1  15
ATOM     15  N   UNL     1       0.524  10.527  19.080  0.00  0.00    +0.000 N 
ATOM     16  H   UNL     1       1.184  11.233  18.765  0.00  0.00    +0.000 HD
BRANCH  15  17
ATOM     17  C   UNL     1      -0.835  10.759  18.781  0.00  0.00    +0.000 A 
ATOM     18  C   UNL     1      -1.585  11.701  19.480  0.00  0.00    +0.000 A 
ATOM     19  C   UNL     1      -2.936  11.886  19.196  0.00  0.00    +0.000 A 
ATOM     20  C   UNL     1      -3.584  11.190  18.169  0.00  0.00    +0.000 A 
ATOM     21  C   UNL     1      -2.801  10.264  17.459  0.00  0.00    +0.000 A 
ATOM     22  C   UNL     1      -1.437  10.062  17.740  0.00  0.00    +0.000 A 
BRANCH  20  23
ATOM     23  N   UNL     1      -4.923  11.400  17.894  0.00  0.00    +0.000 N 
ATOM     24  C   UNL     1      -5.377  12.160  16.728  0.00  0.00    +0.000 C 
ATOM     25  C   UNL     1      -6.500  13.032  17.279  0.00  0.00    +0.000 C 
ATOM     26  C   UNL     1      -7.132  12.146  18.340  0.00  0.00    +0.000 C 
ATOM     27  C   UNL     1      -5.929  11.448  18.963  0.00  0.00    +0.000 C 
ENDBRANCH  20  23
ENDBRANCH  15  17
ENDBRANCH   1  15
TORSDOF 6
ENDMDL
MODEL 9
REMARK VINA RESULT:      -7.4      1.164      1.800
REMARK  Name = 
REMARK  7 active torsions:
REMARK  status: ('A' for Active; 'I' for Inactive)
REMARK    1  A    between atoms: C_1  and  O_2
REMARK    2  A    between atoms: O_2  and  C_3
REMARK    3  A    between atoms: C_6  and  C_7
REMARK    4  A    between atoms: N_9  and  C_10
REMARK    5  A    between atoms: C_10  and  N_12
REMARK    6  A    between atoms: N_12  and  C_13
REMARK    7  A    between atoms: C_16  and  N_17
REMARK                            x       y       z     vdW  Elec       q    Type
REMARK                         _______ _______ _______ _____ _____    ______ ____
ROOT
ATOM      1  C   UNL     1       2.130   5.143  19.910  0.00  0.00    +0.000 C 
ATOM      2  S   UNL     1       1.033   4.015  20.453  0.00  0.00    +0.000 S 
ENDROOT
BRANCH   1   5
ATOM      3  C   UNL     1       4.290   5.258  18.629  0.00  0.00    +0.000 C 
ATOM      4  O   UNL     1       5.053   5.419  19.578  0.00  0.00    +0.000 OA
ATOM      5  N   UNL     1       2.924   5.071  18.773  0.00  0.00    +0.000 N 
ATOM      6  H   UNL     1       2.401   4.793  17.952  0.00  0.00    +0.000 HD
BRANCH   3  10
ATOM      7  C   UNL     1       6.066   4.744  14.721  0.00  0.00    +0.000 A 
ATOM      8  C   UNL     1       6.017   3.711  15.650  0.00  0.00    +0.000 A 
ATOM      9  C   UNL     1       5.420   3.910  16.895  0.00  0.00    +0.000 A 
ATOM     10  C   UNL     1       4.877   5.154  17.250  0.00  0.00    +0.000 A 
ATOM     11  C   UNL     1       4.934   6.194  16.312  0.00  0.00    +0.000 A 
ATOM     12  C   UNL     1       5.526   5.988  15.052  0.00  0.00    +0.000 A 
BRANCH   7  14
ATOM     13  C   UNL     1       6.078   3.473  12.721  0.00  0.00    +0.000 C 
ATOM     14  O   UNL     1       6.712   4.432  13.557  0.00  0.00    +0.000 OA
ENDBRANCH   7  14
ENDBRANCH   3  10
ENDBRANCH   1   5
BRANCH   1  15
ATOM     15  N   UNL     1       2.365   6.266  20.684  0.00  0.00    +0.000 N 
ATOM     16  H   UNL     1       2.817   6.095  21.578  0.00  0.00    +0.000 HD
BRANCH  15  17
ATOM     17  C   UNL     1       1.753   7.526  20.519  0.00  0.00    +0.000 A 
ATOM     18  C   UNL     1       1.033   8.127  21.549  0.00  0.00    +0.000 A 
ATOM     19  C   UNL     1       0.403   9.354  21.353  0.00  0.00    +0.000 A 
ATOM     20  C   UNL     1       0.509  10.063  20.151  0.00  0.00    +0.000 A 
ATOM     21  C   UNL     1       1.263   9.450  19.135  0.00  0.00    +0.000 A 
ATOM     22  C   UNL     1       1.899   8.209  19.318  0.00  0.00    +0.000 A 
BRANCH  20  23
ATOM     23  N   UNL     1      -0.112  11.287  19.983  0.00  0.00    +0.000 N 
ATOM     24  C   UNL     1      -1.216  11.733  20.834  0.00  0.00    +0.000 C 
ATOM     25  C   UNL     1      -2.205  12.350  19.851  0.00  0.00    +0.000 C 
ATOM     26  C   UNL     1      -1.300  12.965  18.796  0.00  0.00    +0.000 C 
ATOM     27  C   UNL     1      -0.179  11.941  18.669  0.00  0.00    +0.000 C 
ENDBRANCH  20  23
ENDBRANCH  15  17
ENDBRANCH   1  15
TORSDOF 6
ENDMDL
