MODEL 1
REMARK VINA RESULT:      -8.0      0.000      0.000
REMARK  Name = 
REMARK  1 active torsions:
REMARK  status: ('A' for Active; 'I' for Inactive)
REMARK    1  A    between atoms: C_4  and  N_5
REMARK                            x       y       z     vdW  Elec       q    Type
REMARK                         _______ _______ _______ _____ _____    ______ ____
ROOT
ATOM      1  N   UNL     1       4.282   4.379  18.586  0.00  0.00    +0.000 N 
ATOM      2  C   UNL     1       5.225   4.629  19.571  0.00  0.00    +0.000 A 
ATOM      3  N   UNL     1       6.337   5.137  19.125  0.00  0.00    +0.000 NA
ATOM      4  C   UNL     1       6.219   5.047  17.776  0.00  0.00    +0.000 A 
ATOM      5  C   UNL     1       7.216   5.392  16.850  0.00  0.00    +0.000 A 
ATOM      6  C   UNL     1       6.964   5.074  15.539  0.00  0.00    +0.000 A 
ATOM      7  C   UNL     1       5.779   4.510  15.134  0.00  0.00    +0.000 A 
ATOM      8  C   UNL     1       4.721   4.236  16.006  0.00  0.00    +0.000 A 
ATOM      9  C   UNL     1       4.974   4.502  17.376  0.00  0.00    +0.000 A 
ATOM     10  O   UNL     1       5.790   4.253  13.791  0.00  0.00    +0.000 OA
ATOM     11  C   UNL     1       7.139   4.644  13.438  0.00  0.00    +0.000 C 
ATOM     12  O   UNL     1       7.853   5.252  14.525  0.00  0.00    +0.000 OA
ENDROOT
BRANCH   1  16
ATOM     13  C   UNL     1       0.605   2.987  20.100  0.00  0.00    +0.000 A 
ATOM     14  C   UNL     1       1.295   4.004  20.741  0.00  0.00    +0.000 A 
ATOM     15  C   UNL     1       2.439   4.516  20.159  0.00  0.00    +0.000 A 
ATOM     16  C   UNL     1       2.954   3.992  18.944  0.00  0.00    +0.000 A 
ATOM     17  C   UNL     1       2.197   3.059  18.243  0.00  0.00    +0.000 A 
ATOM     18  C   UNL     1       1.029   2.546  18.840  0.00  0.00    +0.000 A 
ENDBRANCH   1  16
TORSDOF 1
ENDMDL
MODEL 2
REMARK VINA RESULT:      -7.9      1.626      1.839
REMARK  Name = 
REMARK  1 active torsions:
REMARK  status: ('A' for Active; 'I' for Inactive)
REMARK    1  A    between atoms: C_4  and  N_5
REMARK                            x       y       z     vdW  Elec       q    Type
REMARK                         _______ _______ _______ _____ _____    ______ ____
ROOT
ATOM      1  N   UNL     1       2.983   5.431  18.539  0.00  0.00    +0.000 N 
ATOM      2  C   UNL     1       2.992   6.803  18.739  0.00  0.00    +0.000 A 
ATOM      3  N   UNL     1       3.587   7.473  17.794  0.00  0.00    +0.000 NA
ATOM      4  C   UNL     1       4.170   6.514  17.031  0.00  0.00    +0.000 A 
ATOM      5  C   UNL     1       5.006   6.752  15.929  0.00  0.00    +0.000 A 
ATOM      6  C   UNL     1       5.628   5.654  15.390  0.00  0.00    +0.000 A 
ATOM      7  C   UNL     1       5.401   4.380  15.850  0.00  0.00    +0.000 A 
ATOM      8  C   UNL     1       4.505   4.086  16.883  0.00  0.00    +0.000 A 
ATOM      9  C   UNL     1       3.889   5.206  17.497  0.00  0.00    +0.000 A 
ATOM     10  O   UNL     1       6.168   3.470  15.178  0.00  0.00    +0.000 OA
ATOM     11  C   UNL     1       6.946   4.335  14.317  0.00  0.00    +0.000 C 
ATOM     12  O   UNL     1       6.539   5.711  14.381  0.00  0.00    +0.000 OA
ENDROOT
BRANCH   1  16
ATOM     13  C   UNL     1       1.210   2.665  21.175  0.00  0.00    +0.000 A 
ATOM     14  C   UNL     1       2.060   3.650  21.651  0.00  0.00    +0.000 A 
ATOM     15  C   UNL     1       2.535   4.612  20.779  0.00  0.00    +0.000 A 
ATOM     16  C   UNL     1       2.214   4.585  19.396  0.00  0.00    +0.000 A 
ATOM     17  C   UNL     1       1.267   3.671  18.945  0.00  0.00    +0.000 A 
ATOM     18  C   UNL     1       0.783   2.699  19.842  0.00  0.00    +0.000 A 
ENDBRANCH   1  16
TORSDOF 1
ENDMDL
MODEL 3
REMARK VINA RESULT:      -7.9      0.418      1.153
REMARK  Name = 
REMARK  1 active torsions:
REMARK  status: ('A' for Active; 'I' for Inactive)
REMARK    1  A    between atoms: C_4  and  N_5
REMARK                            x       y       z     vdW  Elec       q    Type
REMARK                         _______ _______ _______ _____ _____    ______ ____
ROOT
ATOM      1  N   UNL     1       4.512   4.435  18.752  0.00  0.00    +0.000 N 
ATOM      2  C   UNL     1       5.473   4.925  19.623  0.00  0.00    +0.000 A 
ATOM      3  N   UNL     1       6.469   5.522  19.033  0.00  0.00    +0.000 NA
ATOM      4  C   UNL     1       6.275   5.256  17.716  0.00  0.00    +0.000 A 
ATOM      5  C   UNL     1       7.147   5.621  16.679  0.00  0.00    +0.000 A 
ATOM      6  C   UNL     1       6.856   5.118  15.436  0.00  0.00    +0.000 A 
ATOM      7  C   UNL     1       5.740   4.356  15.193  0.00  0.00    +0.000 A 
ATOM      8  C   UNL     1       4.794   4.047  16.175  0.00  0.00    +0.000 A 
ATOM      9  C   UNL     1       5.096   4.506  17.482  0.00  0.00    +0.000 A 
ATOM     10  O   UNL     1       5.698   3.945  13.890  0.00  0.00    +0.000 OA
ATOM     11  C   UNL     1       6.950   4.469  13.387  0.00  0.00    +0.000 C 
ATOM     12  O   UNL     1       7.641   5.294  14.339  0.00  0.00    +0.000 OA
ENDROOT
BRANCH   1  16
ATOM     13  C   UNL     1       0.697   2.920  19.700  0.00  0.00    +0.000 A 
ATOM     14  C   UNL     1       1.610   2.148  19.000  0.00  0.00    +0.000 A 
ATOM     15  C   UNL     1       2.892   2.629  18.804  0.00  0.00    +0.000 A 
ATOM     16  C   UNL     1       3.280   3.917  19.258  0.00  0.00    +0.000 A 
ATOM     17  C   UNL     1       2.403   4.636  20.063  0.00  0.00    +0.000 A 
ATOM     18  C   UNL     1       1.102   4.136  20.264  0.00  0.00    +0.000 A 
ENDBRANCH   1  16
TORSDOF 1
ENDMDL
MODEL 4
REMARK VINA RESULT:      -7.8      0.806      1.008
REMARK  Name = 
REMARK  1 active torsions:
REMARK  status: ('A' for Active; 'I' for Inactive)
REMARK    1  A    between atoms: C_4  and  N_5
REMARK                            x       y       z     vdW  Elec       q    Type
REMARK                         _______ _______ _______ _____ _____    ______ ____
ROOT
ATOM      1  N   UNL     1       4.684   4.441  18.796  0.00  0.00    +0.000 N 
ATOM      2  C   UNL     1       5.652   5.016  19.605  0.00  0.00    +0.000 A 
ATOM      3  N   UNL     1       6.580   5.654  18.952  0.00  0.00    +0.000 NA
ATOM      4  C   UNL     1       6.342   5.336  17.654  0.00  0.00    +0.000 A 
ATOM      5  C   UNL     1       7.141   5.722  16.566  0.00  0.00    +0.000 A 
ATOM      6  C   UNL     1       6.825   5.164  15.353  0.00  0.00    +0.000 A 
ATOM      7  C   UNL     1       5.748   4.328  15.186  0.00  0.00    +0.000 A 
ATOM      8  C   UNL     1       4.870   3.992  16.220  0.00  0.00    +0.000 A 
ATOM      9  C   UNL     1       5.203   4.508  17.498  0.00  0.00    +0.000 A 
ATOM     10  O   UNL     1       5.672   3.875  13.898  0.00  0.00    +0.000 OA
ATOM     11  C   UNL     1       6.864   4.459  13.321  0.00  0.00    +0.000 C 
ATOM     12  O   UNL     1       7.546   5.353  14.215  0.00  0.00    +0.000 OA
ENDROOT
BRANCH   1  16
ATOM     13  C   UNL     1       1.158   3.247  20.768  0.00  0.00    +0.000 A 
ATOM     14  C   UNL     1       1.115   4.182  19.746  0.00  0.00    +0.000 A 
ATOM     15  C   UNL     1       2.270   4.468  19.043  0.00  0.00    +0.000 A 
ATOM     16  C   UNL     1       3.512   3.865  19.375  0.00  0.00    +0.000 A 
ATOM     17  C   UNL     1       3.528   2.840  20.316  0.00  0.00    +0.000 A 
ATOM     18  C   UNL     1       2.346   2.551  21.023  0.00  0.00    +0.000 A 
ENDBRANCH   1  16
TORSDOF 1
ENDMDL
MODEL 5
REMARK VINA RESULT:      -7.5      2.523      6.089
REMARK  Name = 
REMARK  1 active torsions:
REMARK  status: ('A' for Active; 'I' for Inactive)
REMARK    1  A    between atoms: C_4  and  N_5
REMARK                            x       y       z     vdW  Elec       q    Type
REMARK                         _______ _______ _______ _____ _____    ______ ____
ROOT
ATOM      1  N   UNL     1       6.127   4.393  16.114  0.00  0.00    +0.000 N 
ATOM      2  C   UNL     1       7.101   4.746  17.035  0.00  0.00    +0.000 A 
ATOM      3  N   UNL     1       6.798   4.455  18.267  0.00  0.00    +0.000 NA
ATOM      4  C   UNL     1       5.497   4.072  18.201  0.00  0.00    +0.000 A 
ATOM      5  C   UNL     1       4.692   3.742  19.303  0.00  0.00    +0.000 A 
ATOM      6  C   UNL     1       3.360   3.540  19.043  0.00  0.00    +0.000 A 
ATOM      7  C   UNL     1       2.843   3.588  17.772  0.00  0.00    +0.000 A 
ATOM      8  C   UNL     1       3.622   3.819  16.635  0.00  0.00    +0.000 A 
ATOM      9  C   UNL     1       4.994   4.088  16.877  0.00  0.00    +0.000 A 
ATOM     10  O   UNL     1       1.490   3.394  17.783  0.00  0.00    +0.000 OA
ATOM     11  C   UNL     1       1.228   3.306  19.204  0.00  0.00    +0.000 C 
ATOM     12  O   UNL     1       2.423   3.303  20.000  0.00  0.00    +0.000 OA
ENDROOT
BRANCH   1  16
ATOM     13  C   UNL     1       7.071   4.115  12.018  0.00  0.00    +0.000 A 
ATOM     14  C   UNL     1       5.965   3.459  12.535  0.00  0.00    +0.000 A 
ATOM     15  C   UNL     1       5.617   3.661  13.857  0.00  0.00    +0.000 A 
ATOM     16  C   UNL     1       6.393   4.486  14.713  0.00  0.00    +0.000 A 
ATOM     17  C   UNL     1       7.428   5.236  14.163  0.00  0.00    +0.000 A 
ATOM     18  C   UNL     1       7.772   5.029  12.814  0.00  0.00    +0.000 A 
ENDBRANCH   1  16
TORSDOF 1
ENDMDL
MODEL 6
REMARK VINA RESULT:      -7.5      1.566      1.882
REMARK  Name = 
REMARK  1 active torsions:
REMARK  status: ('A' for Active; 'I' for Inactive)
REMARK    1  A    between atoms: C_4  and  N_5
REMARK                            x       y       z     vdW  Elec       q    Type
REMARK                         _______ _______ _______ _____ _____    ______ ____
ROOT
ATOM      1  N   UNL     1       3.351   4.969  18.661  0.00  0.00    +0.000 N 
ATOM      2  C   UNL     1       3.271   6.323  18.945  0.00  0.00    +0.000 A 
ATOM      3  N   UNL     1       3.714   7.092  17.993  0.00  0.00    +0.000 NA
ATOM      4  C   UNL     1       4.292   6.229  17.119  0.00  0.00    +0.000 A 
ATOM      5  C   UNL     1       4.993   6.598  15.959  0.00  0.00    +0.000 A 
ATOM      6  C   UNL     1       5.643   5.588  15.296  0.00  0.00    +0.000 A 
ATOM      7  C   UNL     1       5.564   4.276  15.694  0.00  0.00    +0.000 A 
ATOM      8  C   UNL     1       4.802   3.850  16.786  0.00  0.00    +0.000 A 
ATOM      9  C   UNL     1       4.164   4.879  17.526  0.00  0.00    +0.000 A 
ATOM     10  O   UNL     1       6.330   3.472  14.896  0.00  0.00    +0.000 OA
ATOM     11  C   UNL     1       6.948   4.447  14.022  0.00  0.00    +0.000 C 
ATOM     12  O   UNL     1       6.441   5.778  14.211  0.00  0.00    +0.000 OA
ENDROOT
BRANCH   1  16
ATOM     13  C   UNL     1       1.334   2.607  21.508  0.00  0.00    +0.000 A 
ATOM     14  C   UNL     1       0.628   3.315  20.548  0.00  0.00    +0.000 A 
ATOM     15  C   UNL     1       1.321   3.988  19.559  0.00  0.00    +0.000 A 
ATOM     16  C   UNL     1       2.740   4.014  19.531  0.00  0.00    +0.000 A 
ATOM     17  C   UNL     1       3.443   3.206  20.420  0.00  0.00    +0.000 A 
ATOM     18  C   UNL     1       2.729   2.518  21.420  0.00  0.00    +0.000 A 
ENDBRANCH   1  16
TORSDOF 1
ENDMDL
MODEL 7
REMARK VINA RESULT:      -7.4      2.935      3.715
REMARK  Name = 
REMARK  1 active torsions:
REMARK  status: ('A' for Active; 'I' for Inactive)
REMARK    1  A    between atoms: C_4  and  N_5
REMARK                            x       y       z     vdW  Elec       q    Type
REMARK                         _______ _______ _______ _____ _____    ______ ____
ROOT
ATOM      1  N   UNL     1       2.753   6.284  18.460  0.00  0.00    +0.000 N 
ATOM      2  C   UNL     1       2.125   5.124  18.886  0.00  0.00    +0.000 A 
ATOM      3  N   UNL     1       2.754   4.030  18.563  0.00  0.00    +0.000 NA
ATOM      4  C   UNL     1       3.734   4.453  17.725  0.00  0.00    +0.000 A 
ATOM      5  C   UNL     1       4.631   3.618  17.040  0.00  0.00    +0.000 A 
ATOM      6  C   UNL     1       5.440   4.225  16.113  0.00  0.00    +0.000 A 
ATOM      7  C   UNL     1       5.431   5.583  15.907  0.00  0.00    +0.000 A 
ATOM      8  C   UNL     1       4.624   6.464  16.632  0.00  0.00    +0.000 A 
ATOM      9  C   UNL     1       3.735   5.859  17.558  0.00  0.00    +0.000 A 
ATOM     10  O   UNL     1       6.295   5.935  14.907  0.00  0.00    +0.000 OA
ATOM     11  C   UNL     1       6.768   4.638  14.472  0.00  0.00    +0.000 C 
ATOM     12  O   UNL     1       6.300   3.559  15.297  0.00  0.00    +0.000 OA
ENDROOT
BRANCH   1  16
ATOM     13  C   UNL     1       0.846   9.785  19.821  0.00  0.00    +0.000 A 
ATOM     14  C   UNL     1       1.123   8.745  20.694  0.00  0.00    +0.000 A 
ATOM     15  C   UNL     1       1.851   7.659  20.243  0.00  0.00    +0.000 A 
ATOM     16  C   UNL     1       2.278   7.560  18.893  0.00  0.00    +0.000 A 
ATOM     17  C   UNL     1       2.105   8.655  18.053  0.00  0.00    +0.000 A 
ATOM     18  C   UNL     1       1.369   9.760  18.522  0.00  0.00    +0.000 A 
ENDBRANCH   1  16
TORSDOF 1
ENDMDL
MODEL 8
REMARK VINA RESULT:      -7.3      1.057      1.184
REMARK  Name = 
REMARK  1 active torsions:
REMARK  status: ('A' for Active; 'I' for Inactive)
REMARK    1  A    between atoms: C_4  and  N_5
REMARK                            x       y       z     vdW  Elec       q    Type
REMARK                         _______ _______ _______ _____ _____    ______ ____
ROOT
ATOM      1  N   UNL     1       4.564   4.026  17.927  0.00  0.00    +0.000 N 
ATOM      2  C   UNL     1       5.368   4.509  18.948  0.00  0.00    +0.000 A 
ATOM      3  N   UNL     1       6.362   5.243  18.538  0.00  0.00    +0.000 NA
ATOM      4  C   UNL     1       6.345   5.091  17.189  0.00  0.00    +0.000 A 
ATOM      5  C   UNL     1       7.291   5.627  16.301  0.00  0.00    +0.000 A 
ATOM      6  C   UNL     1       7.193   5.224  14.993  0.00  0.00    +0.000 A 
ATOM      7  C   UNL     1       6.189   4.397  14.552  0.00  0.00    +0.000 A 
ATOM      8  C   UNL     1       5.172   3.915  15.380  0.00  0.00    +0.000 A 
ATOM      9  C   UNL     1       5.279   4.269  16.750  0.00  0.00    +0.000 A 
ATOM     10  O   UNL     1       6.335   4.112  13.222  0.00  0.00    +0.000 OA
ATOM     11  C   UNL     1       7.581   4.787  12.923  0.00  0.00    +0.000 C 
ATOM     12  O   UNL     1       8.077   5.571  14.019  0.00  0.00    +0.000 OA
ENDROOT
BRANCH   1  16
ATOM     13  C   UNL     1       0.812   2.530  19.127  0.00  0.00    +0.000 A 
ATOM     14  C   UNL     1       0.900   3.568  18.212  0.00  0.00    +0.000 A 
ATOM     15  C   UNL     1       2.144   3.959  17.752  0.00  0.00    +0.000 A 
ATOM     16  C   UNL     1       3.338   3.359  18.233  0.00  0.00    +0.000 A 
ATOM     17  C   UNL     1       3.241   2.241  19.056  0.00  0.00    +0.000 A 
ATOM     18  C   UNL     1       1.970   1.845  19.514  0.00  0.00    +0.000 A 
ENDBRANCH   1  16
TORSDOF 1
ENDMDL
MODEL 9
REMARK VINA RESULT:      -7.2      2.808      6.123
REMARK  Name = 
REMARK  1 active torsions:
REMARK  status: ('A' for Active; 'I' for Inactive)
REMARK    1  A    between atoms: C_4  and  N_5
REMARK                            x       y       z     vdW  Elec       q    Type
REMARK                         _______ _______ _______ _____ _____    ______ ____
ROOT
ATOM      1  N   UNL     1       5.301   5.112  15.733  0.00  0.00    +0.000 N 
ATOM      2  C   UNL     1       5.186   6.481  15.920  0.00  0.00    +0.000 A 
ATOM      3  N   UNL     1       4.749   6.821  17.098  0.00  0.00    +0.000 NA
ATOM      4  C   UNL     1       4.369   5.643  17.657  0.00  0.00    +0.000 A 
ATOM      5  C   UNL     1       3.746   5.503  18.907  0.00  0.00    +0.000 A 
ATOM      6  C   UNL     1       3.293   4.247  19.223  0.00  0.00    +0.000 A 
ATOM      7  C   UNL     1       3.492   3.165  18.400  0.00  0.00    +0.000 A 
ATOM      8  C   UNL     1       4.190   3.239  17.190  0.00  0.00    +0.000 A 
ATOM      9  C   UNL     1       4.621   4.536  16.811  0.00  0.00    +0.000 A 
ATOM     10  O   UNL     1       2.913   2.040  18.917  0.00  0.00    +0.000 OA
ATOM     11  C   UNL     1       2.270   2.571  20.101  0.00  0.00    +0.000 C 
ATOM     12  O   UNL     1       2.588   3.949  20.347  0.00  0.00    +0.000 OA
ENDROOT
BRANCH   1  16
ATOM     13  C   UNL     1       7.105   4.123  12.056  0.00  0.00    +0.000 A 
ATOM     14  C   UNL     1       7.745   4.963  12.955  0.00  0.00    +0.000 A 
ATOM     15  C   UNL     1       7.180   5.177  14.198  0.00  0.00    +0.000 A 
ATOM     16  C   UNL     1       5.935   4.598  14.560  0.00  0.00    +0.000 A 
ATOM     17  C   UNL     1       5.358   3.663  13.707  0.00  0.00    +0.000 A 
ATOM     18  C   UNL     1       5.943   3.445  12.444  0.00  0.00    +0.000 A 
ENDBRANCH   1  16
TORSDOF 1
ENDMDL
