MODEL 1
REMARK VINA RESULT:      -7.7      0.000      0.000
REMARK  Name = 
REMARK  12 active torsions:
REMARK  status: ('A' for Active; 'I' for Inactive)
REMARK    1  A    between atoms: C_1  and  C_2
REMARK    2  A    between atoms: C_2  and  C_3
REMARK    3  A    between atoms: C_3  and  C_4
REMARK    4  A    between atoms: C_4  and  N_5
REMARK    5  A    between atoms: N_5  and  C_6
REMARK    6  A    between atoms: N_5  and  C_18
REMARK    7  A    between atoms: C_8  and  O_9
REMARK    8  A    between atoms: O_9  and  C_10
REMARK    9  A    between atoms: C_11  and  O_12
REMARK   10  A    between atoms: O_12  and  C_13
REMARK   11  A    between atoms: C_14  and  O_15
REMARK   12  A    between atoms: O_15  and  C_16
REMARK                            x       y       z     vdW  Elec       q    Type
REMARK                         _______ _______ _______ _____ _____    ______ ____
ROOT
ATOM      1  N   UNL     1       3.628   6.102  18.656  0.00  0.00    +0.000 N 
ENDROOT
BRANCH   1   2
ATOM      2  C   UNL     1       3.340   5.148  17.476  0.00  0.00    +0.000 A 
ATOM      3  C   UNL     1       4.435   5.003  16.586  0.00  0.00    +0.000 A 
ATOM      4  C   UNL     1       5.003   6.036  15.840  0.00  0.00    +0.000 A 
ATOM      5  C   UNL     1       6.080   5.792  14.983  0.00  0.00    +0.000 A 
ATOM      6  C   UNL     1       6.601   4.500  14.892  0.00  0.00    +0.000 A 
ATOM      7  C   UNL     1       6.051   3.473  15.670  0.00  0.00    +0.000 A 
ATOM      8  C   UNL     1       4.985   3.702  16.533  0.00  0.00    +0.000 A 
ATOM      9  N   UNL     1       4.581   2.717  17.360  0.00  0.00    +0.000 NA
ATOM     10  C   UNL     1       3.459   2.929  18.095  0.00  0.00    +0.000 A 
ATOM     11  C   UNL     1       3.175   2.254  19.267  0.00  0.00    +0.000 A 
ATOM     12  C   UNL     1       2.029   2.543  20.034  0.00  0.00    +0.000 A 
ATOM     13  C   UNL     1       1.023   3.302  19.458  0.00  0.00    +0.000 A 
ATOM     14  C   UNL     1       1.285   3.897  18.246  0.00  0.00    +0.000 A 
ATOM     15  C   UNL     1       2.625   3.983  17.811  0.00  0.00    +0.000 A 
ENDBRANCH   1   2
BRANCH   1  16
ATOM     16  C   UNL     1       2.712   7.198  18.879  0.00  0.00    +0.000 A 
ATOM     17  C   UNL     1       2.536   8.273  18.003  0.00  0.00    +0.000 A 
ATOM     18  C   UNL     1       1.754   9.391  18.336  0.00  0.00    +0.000 A 
ATOM     19  C   UNL     1       1.094   9.446  19.589  0.00  0.00    +0.000 A 
ATOM     20  C   UNL     1       1.186   8.339  20.451  0.00  0.00    +0.000 A 
ATOM     21  C   UNL     1       1.954   7.223  20.062  0.00  0.00    +0.000 A 
BRANCH  18  22
ATOM     22  O   UNL     1       1.645  10.496  17.529  0.00  0.00    +0.000 OA
ATOM     23  C   UNL     1       2.528  11.568  17.826  0.00  0.00    +0.000 C 
ENDBRANCH  18  22
BRANCH  19  24
ATOM     24  O   UNL     1       0.454  10.640  19.832  0.00  0.00    +0.000 OA
ATOM     25  C   UNL     1      -0.952  10.730  19.646  0.00  0.00    +0.000 C 
ENDBRANCH  19  24
BRANCH  20  26
ATOM     26  O   UNL     1       0.562   8.416  21.669  0.00  0.00    +0.000 OA
ATOM     27  C   UNL     1       1.144   9.217  22.688  0.00  0.00    +0.000 C 
ENDBRANCH  20  26
ENDBRANCH   1  16
BRANCH   1  28
ATOM     28  C   UNL     1       5.086   6.377  18.781  0.00  0.00    +0.000 C 
BRANCH  28  29
ATOM     29  C   UNL     1       6.025   5.343  19.431  0.00  0.00    +0.000 C 
BRANCH  29  31
ATOM     30  C   UNL     1       7.814   6.649  18.270  0.00  0.00    +0.000 C 
ATOM     31  C   UNL     1       7.531   5.553  19.300  0.00  0.00    +0.000 C 
ENDBRANCH  29  31
ENDBRANCH  28  29
ENDBRANCH   1  28
TORSDOF 8
ENDMDL
MODEL 2
REMARK VINA RESULT:      -7.5      0.345      2.092
REMARK  Name = 
REMARK  12 active torsions:
REMARK  status: ('A' for Active; 'I' for Inactive)
REMARK    1  A    between atoms: C_1  and  C_2
REMARK    2  A    between atoms: C_2  and  C_3
REMARK    3  A    between atoms: C_3  and  C_4
REMARK    4  A    between atoms: C_4  and  N_5
REMARK    5  A    between atoms: N_5  and  C_6
REMARK    6  A    between atoms: N_5  and  C_18
REMARK    7  A    between atoms: C_8  and  O_9
REMARK    8  A    between atoms: O_9  and  C_10
REMARK    9  A    between atoms: C_11  and  O_12
REMARK   10  A    between atoms: O_12  and  C_13
REMARK   11  A    between atoms: C_14  and  O_15
REMARK   12  A    between atoms: O_15  and  C_16
REMARK                            x       y       z     vdW  Elec       q    Type
REMARK                         _______ _______ _______ _____ _____    ______ ____
ROOT
ATOM      1  N   UNL     1       3.626   6.100  18.884  0.00  0.00    +0.000 N 
ENDROOT
BRANCH   1   2
ATOM      2  C   UNL     1       3.238   5.204  17.688  0.00  0.00    +0.000 A 
ATOM      3  C   UNL     1       4.275   5.056  16.732  0.00  0.00    +0.000 A 
ATOM      4  C   UNL     1       4.838   6.098  15.994  0.00  0.00    +0.000 A 
ATOM      5  C   UNL     1       5.856   5.850  15.068  0.00  0.00    +0.000 A 
ATOM      6  C   UNL     1       6.323   4.545  14.898  0.00  0.00    +0.000 A 
ATOM      7  C   UNL     1       5.780   3.508  15.668  0.00  0.00    +0.000 A 
ATOM      8  C   UNL     1       4.772   3.740  16.599  0.00  0.00    +0.000 A 
ATOM      9  N   UNL     1       4.379   2.738  17.410  0.00  0.00    +0.000 NA
ATOM     10  C   UNL     1       3.308   2.959  18.215  0.00  0.00    +0.000 A 
ATOM     11  C   UNL     1       3.066   2.249  19.376  0.00  0.00    +0.000 A 
ATOM     12  C   UNL     1       1.976   2.548  20.218  0.00  0.00    +0.000 A 
ATOM     13  C   UNL     1       0.968   3.363  19.729  0.00  0.00    +0.000 A 
ATOM     14  C   UNL     1       1.184   3.996  18.526  0.00  0.00    +0.000 A 
ATOM     15  C   UNL     1       2.500   4.052  18.019  0.00  0.00    +0.000 A 
ENDBRANCH   1   2
BRANCH   1  16
ATOM     16  C   UNL     1       2.776   7.229  19.187  0.00  0.00    +0.000 A 
ATOM     17  C   UNL     1       1.914   7.299  20.285  0.00  0.00    +0.000 A 
ATOM     18  C   UNL     1       0.994   8.347  20.451  0.00  0.00    +0.000 A 
ATOM     19  C   UNL     1       0.931   9.392  19.496  0.00  0.00    +0.000 A 
ATOM     20  C   UNL     1       1.845   9.388  18.429  0.00  0.00    +0.000 A 
ATOM     21  C   UNL     1       2.775   8.336  18.320  0.00  0.00    +0.000 A 
BRANCH  18  22
ATOM     22  O   UNL     1       0.077   8.384  21.473  0.00  0.00    +0.000 OA
ATOM     23  C   UNL     1       0.455   9.137  22.617  0.00  0.00    +0.000 C 
ENDBRANCH  18  22
BRANCH  19  24
ATOM     24  O   UNL     1      -0.086  10.293  19.719  0.00  0.00    +0.000 OA
ATOM     25  C   UNL     1      -1.216  10.298  18.857  0.00  0.00    +0.000 C 
ENDBRANCH  19  24
BRANCH  20  26
ATOM     26  O   UNL     1       1.757  10.392  17.500  0.00  0.00    +0.000 OA
ATOM     27  C   UNL     1       2.377  11.641  17.778  0.00  0.00    +0.000 C 
ENDBRANCH  20  26
ENDBRANCH   1  16
BRANCH   1  28
ATOM     28  C   UNL     1       5.099   6.302  18.948  0.00  0.00    +0.000 C 
BRANCH  28  29
ATOM     29  C   UNL     1       6.022   5.177  19.453  0.00  0.00    +0.000 C 
BRANCH  29  31
ATOM     30  C   UNL     1       7.804   6.516  18.318  0.00  0.00    +0.000 C 
ATOM     31  C   UNL     1       7.485   5.192  19.016  0.00  0.00    +0.000 C 
ENDBRANCH  29  31
ENDBRANCH  28  29
ENDBRANCH   1  28
TORSDOF 8
ENDMDL
MODEL 3
REMARK VINA RESULT:      -6.6      3.024      8.257
REMARK  Name = 
REMARK  12 active torsions:
REMARK  status: ('A' for Active; 'I' for Inactive)
REMARK    1  A    between atoms: C_1  and  C_2
REMARK    2  A    between atoms: C_2  and  C_3
REMARK    3  A    between atoms: C_3  and  C_4
REMARK    4  A    between atoms: C_4  and  N_5
REMARK    5  A    between atoms: N_5  and  C_6
REMARK    6  A    between atoms: N_5  and  C_18
REMARK    7  A    between atoms: C_8  and  O_9
REMARK    8  A    between atoms: O_9  and  C_10
REMARK    9  A    between atoms: C_11  and  O_12
REMARK   10  A    between atoms: O_12  and  C_13
REMARK   11  A    between atoms: C_14  and  O_15
REMARK   12  A    between atoms: O_15  and  C_16
REMARK                            x       y       z     vdW  Elec       q    Type
REMARK                         _______ _______ _______ _____ _____    ______ ____
ROOT
ATOM      1  N   UNL     1       0.882  10.042  19.864  0.00  0.00    +0.000 N 
ENDROOT
BRANCH   1   2
ATOM      2  C   UNL     1       0.442  10.957  18.700  0.00  0.00    +0.000 A 
ATOM      3  C   UNL     1      -0.913  10.777  18.320  0.00  0.00    +0.000 A 
ATOM      4  C   UNL     1      -1.453   9.590  17.823  0.00  0.00    +0.000 A 
ATOM      5  C   UNL     1      -2.804   9.512  17.469  0.00  0.00    +0.000 A 
ATOM      6  C   UNL     1      -3.619  10.634  17.635  0.00  0.00    +0.000 A 
ATOM      7  C   UNL     1      -3.080  11.811  18.168  0.00  0.00    +0.000 A 
ATOM      8  C   UNL     1      -1.741  11.902  18.532  0.00  0.00    +0.000 A 
ATOM      9  N   UNL     1      -1.302  13.008  19.166  0.00  0.00    +0.000 NA
ATOM     10  C   UNL     1       0.033  13.120  19.391  0.00  0.00    +0.000 A 
ATOM     11  C   UNL     1       0.576  13.919  20.379  0.00  0.00    +0.000 A 
ATOM     12  C   UNL     1       1.964  13.964  20.621  0.00  0.00    +0.000 A 
ATOM     13  C   UNL     1       2.818  13.431  19.670  0.00  0.00    +0.000 A 
ATOM     14  C   UNL     1       2.259  12.711  18.639  0.00  0.00    +0.000 A 
ATOM     15  C   UNL     1       0.921  12.278  18.766  0.00  0.00    +0.000 A 
ENDBRANCH   1   2
BRANCH   1  16
ATOM     16  C   UNL     1       1.618   8.842  19.541  0.00  0.00    +0.000 A 
ATOM     17  C   UNL     1       2.383   8.670  18.383  0.00  0.00    +0.000 A 
ATOM     18  C   UNL     1       2.952   7.434  18.036  0.00  0.00    +0.000 A 
ATOM     19  C   UNL     1       2.774   6.311  18.882  0.00  0.00    +0.000 A 
ATOM     20  C   UNL     1       2.082   6.479  20.094  0.00  0.00    +0.000 A 
ATOM     21  C   UNL     1       1.558   7.746  20.419  0.00  0.00    +0.000 A 
BRANCH  18  22
ATOM     22  O   UNL     1       3.626   7.224  16.859  0.00  0.00    +0.000 OA
ATOM     23  C   UNL     1       5.040   7.350  16.925  0.00  0.00    +0.000 C 
ENDBRANCH  18  22
BRANCH  19  24
ATOM     24  O   UNL     1       3.287   5.140  18.372  0.00  0.00    +0.000 OA
ATOM     25  C   UNL     1       4.413   4.540  18.996  0.00  0.00    +0.000 C 
ENDBRANCH  19  24
BRANCH  20  26
ATOM     26  O   UNL     1       1.898   5.379  20.890  0.00  0.00    +0.000 OA
ATOM     27  C   UNL     1       0.969   4.385  20.482  0.00  0.00    +0.000 C 
ENDBRANCH  20  26
ENDBRANCH   1  16
BRANCH   1  28
ATOM     28  C   UNL     1      -0.180   9.948  20.904  0.00  0.00    +0.000 C 
BRANCH  28  29
ATOM     29  C   UNL     1      -0.088  10.781  22.196  0.00  0.00    +0.000 C 
BRANCH  29  31
ATOM     30  C   UNL     1      -1.958  12.179  23.090  0.00  0.00    +0.000 C 
ATOM     31  C   UNL     1      -1.295  10.801  23.130  0.00  0.00    +0.000 C 
ENDBRANCH  29  31
ENDBRANCH  28  29
ENDBRANCH   1  28
TORSDOF 8
ENDMDL
MODEL 4
REMARK VINA RESULT:      -6.6      1.293      4.635
REMARK  Name = 
REMARK  12 active torsions:
REMARK  status: ('A' for Active; 'I' for Inactive)
REMARK    1  A    between atoms: C_1  and  C_2
REMARK    2  A    between atoms: C_2  and  C_3
REMARK    3  A    between atoms: C_3  and  C_4
REMARK    4  A    between atoms: C_4  and  N_5
REMARK    5  A    between atoms: N_5  and  C_6
REMARK    6  A    between atoms: N_5  and  C_18
REMARK    7  A    between atoms: C_8  and  O_9
REMARK    8  A    between atoms: O_9  and  C_10
REMARK    9  A    between atoms: C_11  and  O_12
REMARK   10  A    between atoms: O_12  and  C_13
REMARK   11  A    between atoms: C_14  and  O_15
REMARK   12  A    between atoms: O_15  and  C_16
REMARK                            x       y       z     vdW  Elec       q    Type
REMARK                         _______ _______ _______ _____ _____    ______ ____
ROOT
ATOM      1  N   UNL     1       2.772   6.139  18.616  0.00  0.00    +0.000 N 
ENDROOT
BRANCH   1   2
ATOM      2  C   UNL     1       3.923   5.556  19.465  0.00  0.00    +0.000 A 
ATOM      3  C   UNL     1       3.543   4.425  20.233  0.00  0.00    +0.000 A 
ATOM      4  C   UNL     1       2.571   4.427  21.234  0.00  0.00    +0.000 A 
ATOM      5  C   UNL     1       2.270   3.260  21.942  0.00  0.00    +0.000 A 
ATOM      6  C   UNL     1       2.940   2.076  21.624  0.00  0.00    +0.000 A 
ATOM      7  C   UNL     1       3.889   2.071  20.593  0.00  0.00    +0.000 A 
ATOM      8  C   UNL     1       4.194   3.223  19.875  0.00  0.00    +0.000 A 
ATOM      9  N   UNL     1       5.010   3.138  18.806  0.00  0.00    +0.000 NA
ATOM     10  C   UNL     1       5.389   4.296  18.207  0.00  0.00    +0.000 A 
ATOM     11  C   UNL     1       5.823   4.372  16.897  0.00  0.00    +0.000 A 
ATOM     12  C   UNL     1       6.152   5.601  16.291  0.00  0.00    +0.000 A 
ATOM     13  C   UNL     1       6.328   6.711  17.102  0.00  0.00    +0.000 A 
ATOM     14  C   UNL     1       5.977   6.597  18.427  0.00  0.00    +0.000 A 
ATOM     15  C   UNL     1       5.173   5.506  18.821  0.00  0.00    +0.000 A 
ENDBRANCH   1   2
BRANCH   1  16
ATOM     16  C   UNL     1       2.262   7.443  18.972  0.00  0.00    +0.000 A 
ATOM     17  C   UNL     1       1.496   7.710  20.111  0.00  0.00    +0.000 A 
ATOM     18  C   UNL     1       0.892   8.958  20.333  0.00  0.00    +0.000 A 
ATOM     19  C   UNL     1       1.064  10.006  19.394  0.00  0.00    +0.000 A 
ATOM     20  C   UNL     1       1.899   9.788  18.284  0.00  0.00    +0.000 A 
ATOM     21  C   UNL     1       2.514   8.531  18.119  0.00  0.00    +0.000 A 
BRANCH  18  22
ATOM     22  O   UNL     1       0.061   9.210  21.397  0.00  0.00    +0.000 OA
ATOM     23  C   UNL     1       0.692   9.296  22.667  0.00  0.00    +0.000 C 
ENDBRANCH  18  22
BRANCH  19  24
ATOM     24  O   UNL     1       0.330  11.135  19.675  0.00  0.00    +0.000 OA
ATOM     25  C   UNL     1      -0.860  11.396  18.942  0.00  0.00    +0.000 C 
ENDBRANCH  19  24
BRANCH  20  26
ATOM     26  O   UNL     1       2.037  10.802  17.372  0.00  0.00    +0.000 OA
ATOM     27  C   UNL     1       2.655  12.014  17.782  0.00  0.00    +0.000 C 
ENDBRANCH  20  26
ENDBRANCH   1  16
BRANCH   1  28
ATOM     28  C   UNL     1       1.788   5.083  18.248  0.00  0.00    +0.000 C 
BRANCH  28  29
ATOM     29  C   UNL     1       2.108   4.068  17.136  0.00  0.00    +0.000 C 
BRANCH  29  31
ATOM     30  C   UNL     1       0.893   2.382  18.527  0.00  0.00    +0.000 C 
ATOM     31  C   UNL     1       1.961   2.581  17.450  0.00  0.00    +0.000 C 
ENDBRANCH  29  31
ENDBRANCH  28  29
ENDBRANCH   1  28
TORSDOF 8
ENDMDL
MODEL 5
REMARK VINA RESULT:      -6.3      2.931      7.800
REMARK  Name = 
REMARK  12 active torsions:
REMARK  status: ('A' for Active; 'I' for Inactive)
REMARK    1  A    between atoms: C_1  and  C_2
REMARK    2  A    between atoms: C_2  and  C_3
REMARK    3  A    between atoms: C_3  and  C_4
REMARK    4  A    between atoms: C_4  and  N_5
REMARK    5  A    between atoms: N_5  and  C_6
REMARK    6  A    between atoms: N_5  and  C_18
REMARK    7  A    between atoms: C_8  and  O_9
REMARK    8  A    between atoms: O_9  and  C_10
REMARK    9  A    between atoms: C_11  and  O_12
REMARK   10  A    between atoms: O_12  and  C_13
REMARK   11  A    between atoms: C_14  and  O_15
REMARK   12  A    between atoms: O_15  and  C_16
REMARK                            x       y       z     vdW  Elec       q    Type
REMARK                         _______ _______ _______ _____ _____    ______ ____
ROOT
ATOM      1  N   UNL     1       0.888   9.547  19.447  0.00  0.00    +0.000 N 
ENDROOT
BRANCH   1   2
ATOM      2  C   UNL     1       1.453  10.716  20.284  0.00  0.00    +0.000 A 
ATOM      3  C   UNL     1       1.548  11.934  19.564  0.00  0.00    +0.000 A 
ATOM      4  C   UNL     1       2.338  12.134  18.431  0.00  0.00    +0.000 A 
ATOM      5  C   UNL     1       2.370  13.376  17.791  0.00  0.00    +0.000 A 
ATOM      6  C   UNL     1       1.585  14.420  18.286  0.00  0.00    +0.000 A 
ATOM      7  C   UNL     1       0.766  14.204  19.401  0.00  0.00    +0.000 A 
ATOM      8  C   UNL     1       0.717  12.972  20.044  0.00  0.00    +0.000 A 
ATOM      9  N   UNL     1      -0.185  12.773  21.026  0.00  0.00    +0.000 NA
ATOM     10  C   UNL     1      -0.120  11.607  21.718  0.00  0.00    +0.000 A 
ATOM     11  C   UNL     1      -1.189  11.067  22.407  0.00  0.00    +0.000 A 
ATOM     12  C   UNL     1      -1.100   9.824  23.066  0.00  0.00    +0.000 A 
ATOM     13  C   UNL     1       0.155   9.277  23.276  0.00  0.00    +0.000 A 
ATOM     14  C   UNL     1       1.227   9.876  22.656  0.00  0.00    +0.000 A 
ATOM     15  C   UNL     1       0.977  10.787  21.607  0.00  0.00    +0.000 A 
ENDBRANCH   1   2
BRANCH   1  16
ATOM     16  C   UNL     1       1.721   8.380  19.267  0.00  0.00    +0.000 A 
ATOM     17  C   UNL     1       2.603   8.194  18.198  0.00  0.00    +0.000 A 
ATOM     18  C   UNL     1       3.273   6.979  17.982  0.00  0.00    +0.000 A 
ATOM     19  C   UNL     1       3.080   5.895  18.873  0.00  0.00    +0.000 A 
ATOM     20  C   UNL     1       2.264   6.085  20.002  0.00  0.00    +0.000 A 
ATOM     21  C   UNL     1       1.639   7.332  20.200  0.00  0.00    +0.000 A 
BRANCH  18  22
ATOM     22  O   UNL     1       4.070   6.748  16.888  0.00  0.00    +0.000 OA
ATOM     23  C   UNL     1       5.430   7.136  17.020  0.00  0.00    +0.000 C 
ENDBRANCH  18  22
BRANCH  19  24
ATOM     24  O   UNL     1       3.706   4.732  18.485  0.00  0.00    +0.000 OA
ATOM     25  C   UNL     1       4.851   4.284  19.197  0.00  0.00    +0.000 C 
ENDBRANCH  19  24
BRANCH  20  26
ATOM     26  O   UNL     1       2.067   5.021  20.843  0.00  0.00    +0.000 OA
ATOM     27  C   UNL     1       1.064   4.068  20.520  0.00  0.00    +0.000 C 
ENDBRANCH  20  26
ENDBRANCH   1  16
BRANCH   1  28
ATOM     28  C   UNL     1       0.128  10.049  18.269  0.00  0.00    +0.000 C 
BRANCH  28  29
ATOM     29  C   UNL     1      -1.389  10.297  18.364  0.00  0.00    +0.000 C 
BRANCH  29  31
ATOM     30  C   UNL     1      -2.695  11.030  16.361  0.00  0.00    +0.000 C 
ATOM     31  C   UNL     1      -1.972  11.499  17.626  0.00  0.00    +0.000 C 
ENDBRANCH  29  31
ENDBRANCH  28  29
ENDBRANCH   1  28
TORSDOF 8
ENDMDL
MODEL 6
REMARK VINA RESULT:      -6.3      1.339      4.154
REMARK  Name = 
REMARK  12 active torsions:
REMARK  status: ('A' for Active; 'I' for Inactive)
REMARK    1  A    between atoms: C_1  and  C_2
REMARK    2  A    between atoms: C_2  and  C_3
REMARK    3  A    between atoms: C_3  and  C_4
REMARK    4  A    between atoms: C_4  and  N_5
REMARK    5  A    between atoms: N_5  and  C_6
REMARK    6  A    between atoms: N_5  and  C_18
REMARK    7  A    between atoms: C_8  and  O_9
REMARK    8  A    between atoms: O_9  and  C_10
REMARK    9  A    between atoms: C_11  and  O_12
REMARK   10  A    between atoms: O_12  and  C_13
REMARK   11  A    between atoms: C_14  and  O_15
REMARK   12  A    between atoms: O_15  and  C_16
REMARK                            x       y       z     vdW  Elec       q    Type
REMARK                         _______ _______ _______ _____ _____    ______ ____
ROOT
ATOM      1  N   UNL     1       2.767   6.090  18.456  0.00  0.00    +0.000 N 
ENDROOT
BRANCH   1   2
ATOM      2  C   UNL     1       3.908   5.583  19.366  0.00  0.00    +0.000 A 
ATOM      3  C   UNL     1       3.543   4.468  20.163  0.00  0.00    +0.000 A 
ATOM      4  C   UNL     1       2.537   4.471  21.130  0.00  0.00    +0.000 A 
ATOM      5  C   UNL     1       2.254   3.320  21.871  0.00  0.00    +0.000 A 
ATOM      6  C   UNL     1       2.978   2.152  21.622  0.00  0.00    +0.000 A 
ATOM      7  C   UNL     1       3.962   2.144  20.625  0.00  0.00    +0.000 A 
ATOM      8  C   UNL     1       4.250   3.279  19.875  0.00  0.00    +0.000 A 
ATOM      9  N   UNL     1       5.106   3.186  18.838  0.00  0.00    +0.000 NA
ATOM     10  C   UNL     1       5.464   4.335  18.208  0.00  0.00    +0.000 A 
ATOM     11  C   UNL     1       5.941   4.378  16.911  0.00  0.00    +0.000 A 
ATOM     12  C   UNL     1       6.246   5.595  16.270  0.00  0.00    +0.000 A 
ATOM     13  C   UNL     1       6.351   6.740  17.043  0.00  0.00    +0.000 A 
ATOM     14  C   UNL     1       5.957   6.663  18.359  0.00  0.00    +0.000 A 
ATOM     15  C   UNL     1       5.181   5.557  18.767  0.00  0.00    +0.000 A 
ENDBRANCH   1   2
BRANCH   1  16
ATOM     16  C   UNL     1       2.197   7.386  18.742  0.00  0.00    +0.000 A 
ATOM     17  C   UNL     1       2.198   8.466  17.854  0.00  0.00    +0.000 A 
ATOM     18  C   UNL     1       1.775   9.750  18.233  0.00  0.00    +0.000 A 
ATOM     19  C   UNL     1       1.310   9.982  19.552  0.00  0.00    +0.000 A 
ATOM     20  C   UNL     1       1.220   8.894  20.438  0.00  0.00    +0.000 A 
ATOM     21  C   UNL     1       1.622   7.615  20.005  0.00  0.00    +0.000 A 
BRANCH  18  22
ATOM     22  O   UNL     1       1.855  10.840  17.403  0.00  0.00    +0.000 OA
ATOM     23  C   UNL     1       2.784  11.845  17.789  0.00  0.00    +0.000 C 
ENDBRANCH  18  22
BRANCH  19  24
ATOM     24  O   UNL     1       1.033  11.302  19.823  0.00  0.00    +0.000 OA
ATOM     25  C   UNL     1      -0.320  11.725  19.927  0.00  0.00    +0.000 C 
ENDBRANCH  19  24
BRANCH  20  26
ATOM     26  O   UNL     1       0.791   9.138  21.717  0.00  0.00    +0.000 OA
ATOM     27  C   UNL     1      -0.488   8.662  22.113  0.00  0.00    +0.000 C 
ENDBRANCH  20  26
ENDBRANCH   1  16
BRANCH   1  28
ATOM     28  C   UNL     1       1.836   4.985  18.097  0.00  0.00    +0.000 C 
BRANCH  28  29
ATOM     29  C   UNL     1       2.253   3.908  17.078  0.00  0.00    +0.000 C 
BRANCH  29  31
ATOM     30  C   UNL     1       0.944   2.319  18.498  0.00  0.00    +0.000 C 
ATOM     31  C   UNL     1       2.057   2.442  17.455  0.00  0.00    +0.000 C 
ENDBRANCH  29  31
ENDBRANCH  28  29
ENDBRANCH   1  28
TORSDOF 8
ENDMDL
MODEL 7
REMARK VINA RESULT:      -6.3      7.539     10.431
REMARK  Name = 
REMARK  12 active torsions:
REMARK  status: ('A' for Active; 'I' for Inactive)
REMARK    1  A    between atoms: C_1  and  C_2
REMARK    2  A    between atoms: C_2  and  C_3
REMARK    3  A    between atoms: C_3  and  C_4
REMARK    4  A    between atoms: C_4  and  N_5
REMARK    5  A    between atoms: N_5  and  C_6
REMARK    6  A    between atoms: N_5  and  C_18
REMARK    7  A    between atoms: C_8  and  O_9
REMARK    8  A    between atoms: O_9  and  C_10
REMARK    9  A    between atoms: C_11  and  O_12
REMARK   10  A    between atoms: O_12  and  C_13
REMARK   11  A    between atoms: C_14  and  O_15
REMARK   12  A    between atoms: O_15  and  C_16
REMARK                            x       y       z     vdW  Elec       q    Type
REMARK                         _______ _______ _______ _____ _____    ______ ____
ROOT
ATOM      1  N   UNL     1       8.185  14.511  19.354  0.00  0.00    +0.000 N 
ENDROOT
BRANCH   1   2
ATOM      2  C   UNL     1       9.144  14.253  18.171  0.00  0.00    +0.000 A 
ATOM      3  C   UNL     1      10.030  15.331  17.915  0.00  0.00    +0.000 A 
ATOM      4  C   UNL     1       9.638  16.618  17.545  0.00  0.00    +0.000 A 
ATOM      5  C   UNL     1      10.588  17.616  17.309  0.00  0.00    +0.000 A 
ATOM      6  C   UNL     1      11.944  17.318  17.465  0.00  0.00    +0.000 A 
ATOM      7  C   UNL     1      12.330  16.035  17.872  0.00  0.00    +0.000 A 
ATOM      8  C   UNL     1      11.396  15.034  18.118  0.00  0.00    +0.000 A 
ATOM      9  N   UNL     1      11.807  13.860  18.638  0.00  0.00    +0.000 NA
ATOM     10  C   UNL     1      10.892  12.862  18.745  0.00  0.00    +0.000 A 
ATOM     11  C   UNL     1      11.014  11.807  19.629  0.00  0.00    +0.000 A 
ATOM     12  C   UNL     1      10.015  10.820  19.754  0.00  0.00    +0.000 A 
ATOM     13  C   UNL     1       9.039  10.742  18.774  0.00  0.00    +0.000 A 
ATOM     14  C   UNL     1       8.983  11.754  17.844  0.00  0.00    +0.000 A 
ATOM     15  C   UNL     1       9.679  12.953  18.108  0.00  0.00    +0.000 A 
ENDBRANCH   1   2
BRANCH   1  16
ATOM     16  C   UNL     1       6.958  15.226  19.088  0.00  0.00    +0.000 A 
ATOM     17  C   UNL     1       6.689  16.526  19.524  0.00  0.00    +0.000 A 
ATOM     18  C   UNL     1       5.425  17.120  19.376  0.00  0.00    +0.000 A 
ATOM     19  C   UNL     1       4.374  16.404  18.750  0.00  0.00    +0.000 A 
ATOM     20  C   UNL     1       4.645  15.127  18.228  0.00  0.00    +0.000 A 
ATOM     21  C   UNL     1       5.937  14.583  18.366  0.00  0.00    +0.000 A 
BRANCH  18  22
ATOM     22  O   UNL     1       5.116  18.359  19.881  0.00  0.00    +0.000 OA
ATOM     23  C   UNL     1       5.597  18.631  21.190  0.00  0.00    +0.000 C 
ENDBRANCH  18  22
BRANCH  19  24
ATOM     24  O   UNL     1       3.163  17.057  18.771  0.00  0.00    +0.000 OA
ATOM     25  C   UNL     1       2.514  17.363  17.544  0.00  0.00    +0.000 C 
ENDBRANCH  19  24
BRANCH  20  26
ATOM     26  O   UNL     1       3.613  14.437  17.646  0.00  0.00    +0.000 OA
ATOM     27  C   UNL     1       2.870  13.519  18.437  0.00  0.00    +0.000 C 
ENDBRANCH  20  26
ENDBRANCH   1  16
BRANCH   1  28
ATOM     28  C   UNL     1       8.940  14.858  20.590  0.00  0.00    +0.000 C 
BRANCH  28  29
ATOM     29  C   UNL     1       8.999  13.875  21.774  0.00  0.00    +0.000 C 
BRANCH  29  31
ATOM     30  C   UNL     1       8.543  14.528  24.145  0.00  0.00    +0.000 C 
ATOM     31  C   UNL     1       7.927  13.980  22.855  0.00  0.00    +0.000 C 
ENDBRANCH  29  31
ENDBRANCH  28  29
ENDBRANCH   1  28
TORSDOF 8
ENDMDL
MODEL 8
REMARK VINA RESULT:      -6.2      6.102      9.308
REMARK  Name = 
REMARK  12 active torsions:
REMARK  status: ('A' for Active; 'I' for Inactive)
REMARK    1  A    between atoms: C_1  and  C_2
REMARK    2  A    between atoms: C_2  and  C_3
REMARK    3  A    between atoms: C_3  and  C_4
REMARK    4  A    between atoms: C_4  and  N_5
REMARK    5  A    between atoms: N_5  and  C_6
REMARK    6  A    between atoms: N_5  and  C_18
REMARK    7  A    between atoms: C_8  and  O_9
REMARK    8  A    between atoms: O_9  and  C_10
REMARK    9  A    between atoms: C_11  and  O_12
REMARK   10  A    between atoms: O_12  and  C_13
REMARK   11  A    between atoms: C_14  and  O_15
REMARK   12  A    between atoms: O_15  and  C_16
REMARK                            x       y       z     vdW  Elec       q    Type
REMARK                         _______ _______ _______ _____ _____    ______ ____
ROOT
ATOM      1  N   UNL     1      -1.703  12.062  21.547  0.00  0.00    +0.000 N 
ENDROOT
BRANCH   1   2
ATOM      2  C   UNL     1      -1.066  12.854  20.384  0.00  0.00    +0.000 A 
ATOM      3  C   UNL     1       0.191  13.425  20.708  0.00  0.00    +0.000 A 
ATOM      4  C   UNL     1       0.404  14.378  21.705  0.00  0.00    +0.000 A 
ATOM      5  C   UNL     1       1.684  14.886  21.947  0.00  0.00    +0.000 A 
ATOM      6  C   UNL     1       2.760  14.416  21.192  0.00  0.00    +0.000 A 
ATOM      7  C   UNL     1       2.547  13.432  20.218  0.00  0.00    +0.000 A 
ATOM      8  C   UNL     1       1.281  12.911  19.970  0.00  0.00    +0.000 A 
ATOM      9  N   UNL     1       1.148  11.873  19.121  0.00  0.00    +0.000 NA
ATOM     10  C   UNL     1      -0.110  11.473  18.803  0.00  0.00    +0.000 A 
ATOM     11  C   UNL     1      -0.415  10.207  18.340  0.00  0.00    +0.000 A 
ATOM     12  C   UNL     1      -1.741   9.810  18.076  0.00  0.00    +0.000 A 
ATOM     13  C   UNL     1      -2.719  10.787  17.996  0.00  0.00    +0.000 A 
ATOM     14  C   UNL     1      -2.380  12.066  18.376  0.00  0.00    +0.000 A 
ATOM     15  C   UNL     1      -1.193  12.257  19.116  0.00  0.00    +0.000 A 
ENDBRANCH   1   2
BRANCH   1  16
ATOM     16  C   UNL     1      -2.801  12.673  22.260  0.00  0.00    +0.000 A 
ATOM     17  C   UNL     1      -4.094  12.820  21.748  0.00  0.00    +0.000 A 
ATOM     18  C   UNL     1      -5.085  13.559  22.414  0.00  0.00    +0.000 A 
ATOM     19  C   UNL     1      -4.795  14.171  23.659  0.00  0.00    +0.000 A 
ATOM     20  C   UNL     1      -3.529  13.966  24.235  0.00  0.00    +0.000 A 
ATOM     21  C   UNL     1      -2.576  13.188  23.549  0.00  0.00    +0.000 A 
BRANCH  18  22
ATOM     22  O   UNL     1      -6.329  13.792  21.883  0.00  0.00    +0.000 OA
ATOM     23  C   UNL     1      -7.176  12.656  21.770  0.00  0.00    +0.000 C 
ENDBRANCH  18  22
BRANCH  19  24
ATOM     24  O   UNL     1      -5.816  14.955  24.148  0.00  0.00    +0.000 OA
ATOM     25  C   UNL     1      -5.724  16.368  24.041  0.00  0.00    +0.000 C 
ENDBRANCH  19  24
BRANCH  20  26
ATOM     26  O   UNL     1      -3.256  14.584  25.428  0.00  0.00    +0.000 OA
ATOM     27  C   UNL     1      -2.259  15.596  25.463  0.00  0.00    +0.000 C 
ENDBRANCH  20  26
ENDBRANCH   1  16
BRANCH   1  28
ATOM     28  C   UNL     1      -0.665  11.352  22.344  0.00  0.00    +0.000 C 
BRANCH  28  29
ATOM     29  C   UNL     1      -0.378   9.858  22.103  0.00  0.00    +0.000 C 
BRANCH  29  31
ATOM     30  C   UNL     1       1.199   8.267  20.991  0.00  0.00    +0.000 C 
ATOM     31  C   UNL     1       1.077   9.409  22.003  0.00  0.00    +0.000 C 
ENDBRANCH  29  31
ENDBRANCH  28  29
ENDBRANCH   1  28
TORSDOF 8
ENDMDL
MODEL 9
REMARK VINA RESULT:      -6.2      2.875      8.056
REMARK  Name = 
REMARK  12 active torsions:
REMARK  status: ('A' for Active; 'I' for Inactive)
REMARK    1  A    between atoms: C_1  and  C_2
REMARK    2  A    between atoms: C_2  and  C_3
REMARK    3  A    between atoms: C_3  and  C_4
REMARK    4  A    between atoms: C_4  and  N_5
REMARK    5  A    between atoms: N_5  and  C_6
REMARK    6  A    between atoms: N_5  and  C_18
REMARK    7  A    between atoms: C_8  and  O_9
REMARK    8  A    between atoms: O_9  and  C_10
REMARK    9  A    between atoms: C_11  and  O_12
REMARK   10  A    between atoms: O_12  and  C_13
REMARK   11  A    between atoms: C_14  and  O_15
REMARK   12  A    between atoms: O_15  and  C_16
REMARK                            x       y       z     vdW  Elec       q    Type
REMARK                         _______ _______ _______ _____ _____    ______ ____
ROOT
ATOM      1  N   UNL     1       0.809   9.538  19.405  0.00  0.00    +0.000 N 
ENDROOT
BRANCH   1   2
ATOM      2  C   UNL     1       1.461  10.659  20.244  0.00  0.00    +0.000 A 
ATOM      3  C   UNL     1       1.617  11.878  19.536  0.00  0.00    +0.000 A 
ATOM      4  C   UNL     1       2.394  12.044  18.389  0.00  0.00    +0.000 A 
ATOM      5  C   UNL     1       2.489  13.290  17.763  0.00  0.00    +0.000 A 
ATOM      6  C   UNL     1       1.781  14.373  18.286  0.00  0.00    +0.000 A 
ATOM      7  C   UNL     1       0.973  14.193  19.416  0.00  0.00    +0.000 A 
ATOM      8  C   UNL     1       0.862  12.958  20.046  0.00  0.00    +0.000 A 
ATOM      9  N   UNL     1      -0.031  12.803  21.044  0.00  0.00    +0.000 NA
ATOM     10  C   UNL     1      -0.023  11.626  21.721  0.00  0.00    +0.000 A 
ATOM     11  C   UNL     1      -1.110  11.144  22.426  0.00  0.00    +0.000 A 
ATOM     12  C   UNL     1      -1.084   9.889  23.068  0.00  0.00    +0.000 A 
ATOM     13  C   UNL     1       0.139   9.263  23.245  0.00  0.00    +0.000 A 
ATOM     14  C   UNL     1       1.233   9.804  22.610  0.00  0.00    +0.000 A 
ATOM     15  C   UNL     1       1.018  10.742  21.577  0.00  0.00    +0.000 A 
ENDBRANCH   1   2
BRANCH   1  16
ATOM     16  C   UNL     1       1.559   8.319  19.205  0.00  0.00    +0.000 A 
ATOM     17  C   UNL     1       1.541   7.226  20.077  0.00  0.00    +0.000 A 
ATOM     18  C   UNL     1       2.405   6.130  19.922  0.00  0.00    +0.000 A 
ATOM     19  C   UNL     1       3.323   6.098  18.844  0.00  0.00    +0.000 A 
ATOM     20  C   UNL     1       3.301   7.145  17.906  0.00  0.00    +0.000 A 
ATOM     21  C   UNL     1       2.393   8.208  18.079  0.00  0.00    +0.000 A 
BRANCH  18  22
ATOM     22  O   UNL     1       2.466   5.093  20.820  0.00  0.00    +0.000 OA
ATOM     23  C   UNL     1       1.384   4.172  20.777  0.00  0.00    +0.000 C 
ENDBRANCH  18  22
BRANCH  19  24
ATOM     24  O   UNL     1       4.184   5.024  18.874  0.00  0.00    +0.000 OA
ATOM     25  C   UNL     1       3.955   3.921  18.007  0.00  0.00    +0.000 C 
ENDBRANCH  19  24
BRANCH  20  26
ATOM     26  O   UNL     1       4.211   7.112  16.881  0.00  0.00    +0.000 OA
ATOM     27  C   UNL     1       5.596   7.173  17.192  0.00  0.00    +0.000 C 
ENDBRANCH  20  26
ENDBRANCH   1  16
BRANCH   1  28
ATOM     28  C   UNL     1       0.069  10.099  18.241  0.00  0.00    +0.000 C 
BRANCH  28  29
ATOM     29  C   UNL     1      -1.452  10.328  18.316  0.00  0.00    +0.000 C 
BRANCH  29  31
ATOM     30  C   UNL     1      -3.023  12.062  19.198  0.00  0.00    +0.000 C 
ATOM     31  C   UNL     1      -1.979  11.748  18.124  0.00  0.00    +0.000 C 
ENDBRANCH  29  31
ENDBRANCH  28  29
ENDBRANCH   1  28
TORSDOF 8
ENDMDL
