MODEL 1
REMARK VINA RESULT:      -9.0      0.000      0.000
REMARK  Name = 
REMARK  5 active torsions:
REMARK  status: ('A' for Active; 'I' for Inactive)
REMARK    1  A    between atoms: C_2  and  C_12
REMARK    2  A    between atoms: N_3  and  C_4
REMARK    3  A    between atoms: C_14  and  C_15
REMARK    4  A    between atoms: C_15  and  C_17
REMARK    5  A    between atoms: C_20  and  C_21
REMARK                            x       y       z     vdW  Elec       q    Type
REMARK                         _______ _______ _______ _____ _____    ______ ____
ROOT
ATOM      1  C   UNL     1      -2.085  12.595  19.723  0.00  0.00    +0.000 A 
ATOM      2  C   UNL     1      -0.715  12.462  19.878  0.00  0.00    +0.000 A 
ATOM      3  C   UNL     1      -0.294  11.469  19.002  0.00  0.00    +0.000 A 
ATOM      4  N   UNL     1      -1.361  11.014  18.299  0.00  0.00    +0.000 N 
ATOM      5  C   UNL     1      -1.431  10.056  17.336  0.00  0.00    +0.000 A 
ATOM      6  C   UNL     1      -2.673   9.785  16.746  0.00  0.00    +0.000 A 
ATOM      7  C   UNL     1      -3.807  10.503  17.157  0.00  0.00    +0.000 A 
ATOM      8  C   UNL     1      -3.701  11.471  18.159  0.00  0.00    +0.000 A 
ATOM      9  C   UNL     1      -2.440  11.707  18.720  0.00  0.00    +0.000 A 
ENDROOT
BRANCH   1  11
ATOM     10  O   UNL     1      -2.862  14.660  20.499  0.00  0.00    +0.000 OA
ATOM     11  C   UNL     1      -2.979  13.446  20.553  0.00  0.00    +0.000 C 
ATOM     12  N   UNL     1      -3.975  12.896  21.305  0.00  0.00    +0.000 N 
ATOM     13  H   UNL     1      -4.022  11.874  21.403  0.00  0.00    +0.000 HD
BRANCH  12  14
ATOM     14  C   UNL     1      -4.983  13.719  21.962  0.00  0.00    +0.000 C 
ATOM     15  C   UNL     1      -6.299  12.904  22.204  0.00  0.00    +0.000 C 
ATOM     16  N   UNL     1      -6.655  12.860  23.645  0.00  0.00    +0.000 NA
ATOM     17  C   UNL     1      -5.542  12.232  24.402  0.00  0.00    +0.000 C 
ATOM     18  C   UNL     1      -4.253  13.086  24.308  0.00  0.00    +0.000 C 
ATOM     19  C   UNL     1      -4.498  14.256  23.331  0.00  0.00    +0.000 C 
ATOM     20  C   UNL     1      -5.640  15.126  23.903  0.00  0.00    +0.000 C 
ATOM     21  C   UNL     1      -6.877  14.230  24.161  0.00  0.00    +0.000 C 
ENDBRANCH  12  14
ENDBRANCH   1  11
BRANCH   3  22
ATOM     22  C   UNL     1       1.100  10.954  18.928  0.00  0.00    +0.000 C 
ATOM     23  O   UNL     1       1.995  11.694  18.552  0.00  0.00    +0.000 OA
BRANCH  22  24
ATOM     24  C   UNL     1       1.418   9.537  19.247  0.00  0.00    +0.000 A 
ATOM     25  C   UNL     1       1.980   8.707  18.266  0.00  0.00    +0.000 A 
ATOM     26  C   UNL     1       2.257   7.375  18.531  0.00  0.00    +0.000 A 
ATOM     27  C   UNL     1       1.976   6.814  19.789  0.00  0.00    +0.000 A 
ATOM     28  C   UNL     1       1.405   7.645  20.778  0.00  0.00    +0.000 A 
ATOM     29  C   UNL     1       1.127   8.991  20.508  0.00  0.00    +0.000 A 
BRANCH  27  30
ATOM     30  C   UNL     1       2.245   5.365  20.035  0.00  0.00    +0.000 A 
ATOM     31  C   UNL     1       3.480   4.784  19.663  0.00  0.00    +0.000 A 
ATOM     32  C   UNL     1       3.716   3.424  19.860  0.00  0.00    +0.000 A 
ATOM     33  C   UNL     1       2.725   2.615  20.414  0.00  0.00    +0.000 A 
ATOM     34  C   UNL     1       1.500   3.169  20.787  0.00  0.00    +0.000 A 
ATOM     35  C   UNL     1       1.262   4.534  20.609  0.00  0.00    +0.000 A 
ENDBRANCH  27  30
ENDBRANCH  22  24
ENDBRANCH   3  22
TORSDOF 5
ENDMDL
MODEL 2
REMARK VINA RESULT:      -8.9      1.030      1.463
REMARK  Name = 
REMARK  5 active torsions:
REMARK  status: ('A' for Active; 'I' for Inactive)
REMARK    1  A    between atoms: C_2  and  C_12
REMARK    2  A    between atoms: N_3  and  C_4
REMARK    3  A    between atoms: C_14  and  C_15
REMARK    4  A    between atoms: C_15  and  C_17
REMARK    5  A    between atoms: C_20  and  C_21
REMARK                            x       y       z     vdW  Elec       q    Type
REMARK                         _______ _______ _______ _____ _____    ______ ____
ROOT
ATOM      1  C   UNL     1      -1.017  12.727  19.603  0.00  0.00    +0.000 A 
ATOM      2  C   UNL     1       0.314  12.377  19.442  0.00  0.00    +0.000 A 
ATOM      3  C   UNL     1       0.350  11.246  18.636  0.00  0.00    +0.000 A 
ATOM      4  N   UNL     1      -0.915  10.914  18.279  0.00  0.00    +0.000 N 
ATOM      5  C   UNL     1      -1.366   9.892  17.501  0.00  0.00    +0.000 A 
ATOM      6  C   UNL     1      -2.743   9.781  17.269  0.00  0.00    +0.000 A 
ATOM      7  C   UNL     1      -3.620  10.718  17.837  0.00  0.00    +0.000 A 
ATOM      8  C   UNL     1      -3.124  11.747  18.641  0.00  0.00    +0.000 A 
ATOM      9  C   UNL     1      -1.741  11.818  18.847  0.00  0.00    +0.000 A 
ENDROOT
BRANCH   1  11
ATOM     10  O   UNL     1      -1.420  14.962  20.161  0.00  0.00    +0.000 OA
ATOM     11  C   UNL     1      -1.538  13.794  20.498  0.00  0.00    +0.000 C 
ATOM     12  N   UNL     1      -2.213  13.486  21.642  0.00  0.00    +0.000 N 
ATOM     13  H   UNL     1      -2.246  12.508  21.956  0.00  0.00    +0.000 HD
BRANCH  12  14
ATOM     14  C   UNL     1      -2.903  14.506  22.423  0.00  0.00    +0.000 C 
ATOM     15  C   UNL     1      -4.357  14.735  21.886  0.00  0.00    +0.000 C 
ATOM     16  N   UNL     1      -5.373  14.485  22.940  0.00  0.00    +0.000 NA
ATOM     17  C   UNL     1      -5.242  13.086  23.419  0.00  0.00    +0.000 C 
ATOM     18  C   UNL     1      -3.865  12.855  24.092  0.00  0.00    +0.000 C 
ATOM     19  C   UNL     1      -3.005  14.124  23.921  0.00  0.00    +0.000 C 
ATOM     20  C   UNL     1      -3.725  15.291  24.633  0.00  0.00    +0.000 C 
ATOM     21  C   UNL     1      -5.167  15.408  24.079  0.00  0.00    +0.000 C 
ENDBRANCH  12  14
ENDBRANCH   1  11
BRANCH   3  22
ATOM     22  C   UNL     1       1.591  10.497  18.302  0.00  0.00    +0.000 C 
ATOM     23  O   UNL     1       2.430  11.013  17.581  0.00  0.00    +0.000 OA
BRANCH  22  24
ATOM     24  C   UNL     1       1.805   9.105  18.780  0.00  0.00    +0.000 A 
ATOM     25  C   UNL     1       2.380   8.151  17.927  0.00  0.00    +0.000 A 
ATOM     26  C   UNL     1       2.561   6.841  18.340  0.00  0.00    +0.000 A 
ATOM     27  C   UNL     1       2.168   6.427  19.625  0.00  0.00    +0.000 A 
ATOM     28  C   UNL     1       1.585   7.383  20.486  0.00  0.00    +0.000 A 
ATOM     29  C   UNL     1       1.403   8.706  20.065  0.00  0.00    +0.000 A 
BRANCH  27  30
ATOM     30  C   UNL     1       2.337   4.998  20.030  0.00  0.00    +0.000 A 
ATOM     31  C   UNL     1       1.350   4.342  20.801  0.00  0.00    +0.000 A 
ATOM     32  C   UNL     1       1.526   3.020  21.209  0.00  0.00    +0.000 A 
ATOM     33  C   UNL     1       2.692   2.333  20.873  0.00  0.00    +0.000 A 
ATOM     34  C   UNL     1       3.677   2.964  20.113  0.00  0.00    +0.000 A 
ATOM     35  C   UNL     1       3.501   4.281  19.685  0.00  0.00    +0.000 A 
ENDBRANCH  27  30
ENDBRANCH  22  24
ENDBRANCH   3  22
TORSDOF 5
ENDMDL
MODEL 3
REMARK VINA RESULT:      -8.8      0.350      1.199
REMARK  Name = 
REMARK  5 active torsions:
REMARK  status: ('A' for Active; 'I' for Inactive)
REMARK    1  A    between atoms: C_2  and  C_12
REMARK    2  A    between atoms: N_3  and  C_4
REMARK    3  A    between atoms: C_14  and  C_15
REMARK    4  A    between atoms: C_15  and  C_17
REMARK    5  A    between atoms: C_20  and  C_21
REMARK                            x       y       z     vdW  Elec       q    Type
REMARK                         _______ _______ _______ _____ _____    ______ ____
ROOT
ATOM      1  C   UNL     1      -1.902  12.692  19.696  0.00  0.00    +0.000 A 
ATOM      2  C   UNL     1      -0.526  12.548  19.771  0.00  0.00    +0.000 A 
ATOM      3  C   UNL     1      -0.171  11.514  18.913  0.00  0.00    +0.000 A 
ATOM      4  N   UNL     1      -1.283  11.044  18.298  0.00  0.00    +0.000 N 
ATOM      5  C   UNL     1      -1.423  10.048  17.382  0.00  0.00    +0.000 A 
ATOM      6  C   UNL     1      -2.702   9.769  16.881  0.00  0.00    +0.000 A 
ATOM      7  C   UNL     1      -3.801  10.517  17.331  0.00  0.00    +0.000 A 
ATOM      8  C   UNL     1      -3.623  11.524  18.283  0.00  0.00    +0.000 A 
ATOM      9  C   UNL     1      -2.328  11.768  18.755  0.00  0.00    +0.000 A 
ENDROOT
BRANCH   1  11
ATOM     10  O   UNL     1      -2.494  14.784  20.557  0.00  0.00    +0.000 OA
ATOM     11  C   UNL     1      -2.734  13.587  20.543  0.00  0.00    +0.000 C 
ATOM     12  N   UNL     1      -3.806  13.106  21.234  0.00  0.00    +0.000 N 
ATOM     13  H   UNL     1      -3.959  12.090  21.277  0.00  0.00    +0.000 HD
BRANCH  12  14
ATOM     14  C   UNL     1      -4.749  13.994  21.904  0.00  0.00    +0.000 C 
ATOM     15  C   UNL     1      -6.123  13.278  22.136  0.00  0.00    +0.000 C 
ATOM     16  N   UNL     1      -6.481  13.241  23.577  0.00  0.00    +0.000 NA
ATOM     17  C   UNL     1      -5.420  12.519  24.323  0.00  0.00    +0.000 C 
ATOM     18  C   UNL     1      -4.069  13.274  24.240  0.00  0.00    +0.000 C 
ATOM     19  C   UNL     1      -4.224  14.472  23.280  0.00  0.00    +0.000 C 
ATOM     20  C   UNL     1      -5.296  15.420  23.865  0.00  0.00    +0.000 C 
ATOM     21  C   UNL     1      -6.598  14.617  24.112  0.00  0.00    +0.000 C 
ENDBRANCH  12  14
ENDBRANCH   1  11
BRANCH   3  22
ATOM     22  C   UNL     1       1.211  10.979  18.775  0.00  0.00    +0.000 C 
ATOM     23  O   UNL     1       2.107  11.719  18.401  0.00  0.00    +0.000 OA
BRANCH  22  24
ATOM     24  C   UNL     1       1.513   9.545  19.028  0.00  0.00    +0.000 A 
ATOM     25  C   UNL     1       1.183   8.966  20.262  0.00  0.00    +0.000 A 
ATOM     26  C   UNL     1       1.482   7.640  20.531  0.00  0.00    +0.000 A 
ATOM     27  C   UNL     1       2.130   6.837  19.576  0.00  0.00    +0.000 A 
ATOM     28  C   UNL     1       2.468   7.417  18.333  0.00  0.00    +0.000 A 
ATOM     29  C   UNL     1       2.165   8.758  18.065  0.00  0.00    +0.000 A 
BRANCH  27  30
ATOM     30  C   UNL     1       2.477   5.422  19.907  0.00  0.00    +0.000 A 
ATOM     31  C   UNL     1       1.819   4.740  20.957  0.00  0.00    +0.000 A 
ATOM     32  C   UNL     1       2.169   3.431  21.287  0.00  0.00    +0.000 A 
ATOM     33  C   UNL     1       3.191   2.784  20.593  0.00  0.00    +0.000 A 
ATOM     34  C   UNL     1       3.852   3.440  19.555  0.00  0.00    +0.000 A 
ATOM     35  C   UNL     1       3.495   4.744  19.206  0.00  0.00    +0.000 A 
ENDBRANCH  27  30
ENDBRANCH  22  24
ENDBRANCH   3  22
TORSDOF 5
ENDMDL
MODEL 4
REMARK VINA RESULT:      -8.8      1.090      1.502
REMARK  Name = 
REMARK  5 active torsions:
REMARK  status: ('A' for Active; 'I' for Inactive)
REMARK    1  A    between atoms: C_2  and  C_12
REMARK    2  A    between atoms: N_3  and  C_4
REMARK    3  A    between atoms: C_14  and  C_15
REMARK    4  A    between atoms: C_15  and  C_17
REMARK    5  A    between atoms: C_20  and  C_21
REMARK                            x       y       z     vdW  Elec       q    Type
REMARK                         _______ _______ _______ _____ _____    ______ ____
ROOT
ATOM      1  C   UNL     1      -2.157  12.282  19.864  0.00  0.00    +0.000 A 
ATOM      2  C   UNL     1      -0.778  12.176  19.947  0.00  0.00    +0.000 A 
ATOM      3  C   UNL     1      -0.369  11.298  18.950  0.00  0.00    +0.000 A 
ATOM      4  N   UNL     1      -1.453  10.891  18.245  0.00  0.00    +0.000 N 
ATOM      5  C   UNL     1      -1.539  10.043  17.185  0.00  0.00    +0.000 A 
ATOM      6  C   UNL     1      -2.798   9.800  16.619  0.00  0.00    +0.000 A 
ATOM      7  C   UNL     1      -3.932  10.432  17.152  0.00  0.00    +0.000 A 
ATOM      8  C   UNL     1      -3.808  11.287  18.250  0.00  0.00    +0.000 A 
ATOM      9  C   UNL     1      -2.531  11.499  18.784  0.00  0.00    +0.000 A 
ENDROOT
BRANCH   1  11
ATOM     10  O   UNL     1      -2.532  13.585  21.769  0.00  0.00    +0.000 OA
ATOM     11  C   UNL     1      -3.036  13.008  20.819  0.00  0.00    +0.000 C 
ATOM     12  N   UNL     1      -4.378  13.107  20.604  0.00  0.00    +0.000 N 
ATOM     13  H   UNL     1      -4.805  12.560  19.845  0.00  0.00    +0.000 HD
BRANCH  12  14
ATOM     14  C   UNL     1      -5.223  13.978  21.412  0.00  0.00    +0.000 C 
ATOM     15  C   UNL     1      -6.141  14.866  20.505  0.00  0.00    +0.000 C 
ATOM     16  N   UNL     1      -7.579  14.648  20.807  0.00  0.00    +0.000 NA
ATOM     17  C   UNL     1      -7.911  13.217  20.591  0.00  0.00    +0.000 C 
ATOM     18  C   UNL     1      -7.127  12.310  21.573  0.00  0.00    +0.000 C 
ATOM     19  C   UNL     1      -6.135  13.178  22.374  0.00  0.00    +0.000 C 
ATOM     20  C   UNL     1      -6.950  14.212  23.184  0.00  0.00    +0.000 C 
ATOM     21  C   UNL     1      -7.866  15.003  22.216  0.00  0.00    +0.000 C 
ENDBRANCH  12  14
ENDBRANCH   1  11
BRANCH   3  22
ATOM     22  C   UNL     1       1.034  10.839  18.764  0.00  0.00    +0.000 C 
ATOM     23  O   UNL     1       1.851  11.592  18.259  0.00  0.00    +0.000 OA
BRANCH  22  24
ATOM     24  C   UNL     1       1.448   9.457  19.125  0.00  0.00    +0.000 A 
ATOM     25  C   UNL     1       2.121   8.660  18.189  0.00  0.00    +0.000 A 
ATOM     26  C   UNL     1       2.490   7.358  18.493  0.00  0.00    +0.000 A 
ATOM     27  C   UNL     1       2.195   6.798  19.748  0.00  0.00    +0.000 A 
ATOM     28  C   UNL     1       1.515   7.597  20.693  0.00  0.00    +0.000 A 
ATOM     29  C   UNL     1       1.142   8.911  20.383  0.00  0.00    +0.000 A 
BRANCH  27  30
ATOM     30  C   UNL     1       2.568   5.380  20.035  0.00  0.00    +0.000 A 
ATOM     31  C   UNL     1       3.565   4.724  19.276  0.00  0.00    +0.000 A 
ATOM     32  C   UNL     1       3.886   3.389  19.522  0.00  0.00    +0.000 A 
ATOM     33  C   UNL     1       3.211   2.678  20.514  0.00  0.00    +0.000 A 
ATOM     34  C   UNL     1       2.225   3.308  21.273  0.00  0.00    +0.000 A 
ATOM     35  C   UNL     1       1.909   4.649  21.045  0.00  0.00    +0.000 A 
ENDBRANCH  27  30
ENDBRANCH  22  24
ENDBRANCH   3  22
TORSDOF 5
ENDMDL
MODEL 5
REMARK VINA RESULT:      -8.5      2.808     10.107
REMARK  Name = 
REMARK  5 active torsions:
REMARK  status: ('A' for Active; 'I' for Inactive)
REMARK    1  A    between atoms: C_2  and  C_12
REMARK    2  A    between atoms: N_3  and  C_4
REMARK    3  A    between atoms: C_14  and  C_15
REMARK    4  A    between atoms: C_15  and  C_17
REMARK    5  A    between atoms: C_20  and  C_21
REMARK                            x       y       z     vdW  Elec       q    Type
REMARK                         _______ _______ _______ _____ _____    ______ ____
ROOT
ATOM      1  C   UNL     1       1.373   9.423  19.271  0.00  0.00    +0.000 A 
ATOM      2  C   UNL     1       0.577   9.294  20.397  0.00  0.00    +0.000 A 
ATOM      3  C   UNL     1       0.378  10.569  20.911  0.00  0.00    +0.000 A 
ATOM      4  N   UNL     1       1.003  11.472  20.117  0.00  0.00    +0.000 N 
ATOM      5  C   UNL     1       1.080  12.826  20.221  0.00  0.00    +0.000 A 
ATOM      6  C   UNL     1       1.784  13.538  19.241  0.00  0.00    +0.000 A 
ATOM      7  C   UNL     1       2.389  12.844  18.181  0.00  0.00    +0.000 A 
ATOM      8  C   UNL     1       2.302  11.451  18.112  0.00  0.00    +0.000 A 
ATOM      9  C   UNL     1       1.589  10.783  19.114  0.00  0.00    +0.000 A 
ENDROOT
BRANCH   1  11
ATOM     10  O   UNL     1       2.258   8.501  17.312  0.00  0.00    +0.000 OA
ATOM     11  C   UNL     1       1.951   8.306  18.477  0.00  0.00    +0.000 C 
ATOM     12  N   UNL     1       2.219   7.099  19.052  0.00  0.00    +0.000 N 
ATOM     13  H   UNL     1       1.893   6.917  20.010  0.00  0.00    +0.000 HD
BRANCH  12  14
ATOM     14  C   UNL     1       2.967   6.063  18.349  0.00  0.00    +0.000 C 
ATOM     15  C   UNL     1       4.160   5.545  19.223  0.00  0.00    +0.000 C 
ATOM     16  N   UNL     1       4.062   4.083  19.466  0.00  0.00    +0.000 NA
ATOM     17  C   UNL     1       2.782   3.791  20.160  0.00  0.00    +0.000 C 
ATOM     18  C   UNL     1       1.569   4.156  19.267  0.00  0.00    +0.000 C 
ATOM     19  C   UNL     1       2.080   4.847  17.986  0.00  0.00    +0.000 C 
ATOM     20  C   UNL     1       2.981   3.845  17.228  0.00  0.00    +0.000 C 
ATOM     21  C   UNL     1       4.095   3.346  18.182  0.00  0.00    +0.000 C 
ENDBRANCH  12  14
ENDBRANCH   1  11
BRANCH   3  22
ATOM     22  C   UNL     1      -0.346  10.856  22.180  0.00  0.00    +0.000 C 
ATOM     23  O   UNL     1       0.084  10.411  23.232  0.00  0.00    +0.000 OA
BRANCH  22  24
ATOM     24  C   UNL     1      -1.619  11.625  22.185  0.00  0.00    +0.000 A 
ATOM     25  C   UNL     1      -2.258  11.915  23.398  0.00  0.00    +0.000 A 
ATOM     26  C   UNL     1      -3.460  12.605  23.426  0.00  0.00    +0.000 A 
ATOM     27  C   UNL     1      -4.077  13.029  22.236  0.00  0.00    +0.000 A 
ATOM     28  C   UNL     1      -3.439  12.736  21.011  0.00  0.00    +0.000 A 
ATOM     29  C   UNL     1      -2.225  12.038  20.986  0.00  0.00    +0.000 A 
BRANCH  27  30
ATOM     30  C   UNL     1      -5.394  13.734  22.292  0.00  0.00    +0.000 A 
ATOM     31  C   UNL     1      -5.947  14.140  23.528  0.00  0.00    +0.000 A 
ATOM     32  C   UNL     1      -7.192  14.766  23.581  0.00  0.00    +0.000 A 
ATOM     33  C   UNL     1      -7.916  14.983  22.409  0.00  0.00    +0.000 A 
ATOM     34  C   UNL     1      -7.387  14.590  21.180  0.00  0.00    +0.000 A 
ATOM     35  C   UNL     1      -6.133  13.978  21.117  0.00  0.00    +0.000 A 
ENDBRANCH  27  30
ENDBRANCH  22  24
ENDBRANCH   3  22
TORSDOF 5
ENDMDL
MODEL 6
REMARK VINA RESULT:      -8.4      1.491      2.221
REMARK  Name = 
REMARK  5 active torsions:
REMARK  status: ('A' for Active; 'I' for Inactive)
REMARK    1  A    between atoms: C_2  and  C_12
REMARK    2  A    between atoms: N_3  and  C_4
REMARK    3  A    between atoms: C_14  and  C_15
REMARK    4  A    between atoms: C_15  and  C_17
REMARK    5  A    between atoms: C_20  and  C_21
REMARK                            x       y       z     vdW  Elec       q    Type
REMARK                         _______ _______ _______ _____ _____    ______ ____
ROOT
ATOM      1  C   UNL     1      -2.419  12.414  19.859  0.00  0.00    +0.000 A 
ATOM      2  C   UNL     1      -1.047  12.345  20.041  0.00  0.00    +0.000 A 
ATOM      3  C   UNL     1      -0.544  11.479  19.079  0.00  0.00    +0.000 A 
ATOM      4  N   UNL     1      -1.562  11.041  18.298  0.00  0.00    +0.000 N 
ATOM      5  C   UNL     1      -1.549  10.190  17.237  0.00  0.00    +0.000 A 
ATOM      6  C   UNL     1      -2.757   9.913  16.582  0.00  0.00    +0.000 A 
ATOM      7  C   UNL     1      -3.943  10.514  17.031  0.00  0.00    +0.000 A 
ATOM      8  C   UNL     1      -3.922  11.373  18.133  0.00  0.00    +0.000 A 
ATOM      9  C   UNL     1      -2.693  11.620  18.756  0.00  0.00    +0.000 A 
ENDROOT
BRANCH   1  11
ATOM     10  O   UNL     1      -4.452  12.582  21.002  0.00  0.00    +0.000 OA
ATOM     11  C   UNL     1      -3.384  13.115  20.746  0.00  0.00    +0.000 C 
ATOM     12  N   UNL     1      -3.062  14.299  21.340  0.00  0.00    +0.000 N 
ATOM     13  H   UNL     1      -2.194  14.777  21.065  0.00  0.00    +0.000 HD
BRANCH  12  14
ATOM     14  C   UNL     1      -3.908  14.898  22.366  0.00  0.00    +0.000 C 
ATOM     15  C   UNL     1      -3.498  14.396  23.792  0.00  0.00    +0.000 C 
ATOM     16  N   UNL     1      -3.123  15.526  24.680  0.00  0.00    +0.000 NA
ATOM     17  C   UNL     1      -1.985  16.263  24.074  0.00  0.00    +0.000 C 
ATOM     18  C   UNL     1      -2.393  16.901  22.722  0.00  0.00    +0.000 C 
ATOM     19  C   UNL     1      -3.822  16.444  22.363  0.00  0.00    +0.000 C 
ATOM     20  C   UNL     1      -4.778  16.949  23.468  0.00  0.00    +0.000 C 
ATOM     21  C   UNL     1      -4.267  16.452  24.843  0.00  0.00    +0.000 C 
ENDBRANCH  12  14
ENDBRANCH   1  11
BRANCH   3  22
ATOM     22  C   UNL     1       0.881  11.058  18.995  0.00  0.00    +0.000 C 
ATOM     23  O   UNL     1       1.737  11.884  18.722  0.00  0.00    +0.000 OA
BRANCH  22  24
ATOM     24  C   UNL     1       1.278   9.637  19.178  0.00  0.00    +0.000 A 
ATOM     25  C   UNL     1       1.110   9.017  20.424  0.00  0.00    +0.000 A 
ATOM     26  C   UNL     1       1.500   7.702  20.627  0.00  0.00    +0.000 A 
ATOM     27  C   UNL     1       2.083   6.954  19.590  0.00  0.00    +0.000 A 
ATOM     28  C   UNL     1       2.258   7.575  18.334  0.00  0.00    +0.000 A 
ATOM     29  C   UNL     1       1.863   8.903  18.132  0.00  0.00    +0.000 A 
BRANCH  27  30
ATOM     30  C   UNL     1       2.533   5.552  19.847  0.00  0.00    +0.000 A 
ATOM     31  C   UNL     1       1.854   4.732  20.778  0.00  0.00    +0.000 A 
ATOM     32  C   UNL     1       2.297   3.436  21.043  0.00  0.00    +0.000 A 
ATOM     33  C   UNL     1       3.431   2.939  20.401  0.00  0.00    +0.000 A 
ATOM     34  C   UNL     1       4.114   3.733  19.479  0.00  0.00    +0.000 A 
ATOM     35  C   UNL     1       3.667   5.025  19.195  0.00  0.00    +0.000 A 
ENDBRANCH  27  30
ENDBRANCH  22  24
ENDBRANCH   3  22
TORSDOF 5
ENDMDL
MODEL 7
REMARK VINA RESULT:      -8.4      1.582      2.197
REMARK  Name = 
REMARK  5 active torsions:
REMARK  status: ('A' for Active; 'I' for Inactive)
REMARK    1  A    between atoms: C_2  and  C_12
REMARK    2  A    between atoms: N_3  and  C_4
REMARK    3  A    between atoms: C_14  and  C_15
REMARK    4  A    between atoms: C_15  and  C_17
REMARK    5  A    between atoms: C_20  and  C_21
REMARK                            x       y       z     vdW  Elec       q    Type
REMARK                         _______ _______ _______ _____ _____    ______ ____
ROOT
ATOM      1  C   UNL     1      -2.840  12.565  20.135  0.00  0.00    +0.000 A 
ATOM      2  C   UNL     1      -1.458  12.570  20.240  0.00  0.00    +0.000 A 
ATOM      3  C   UNL     1      -0.957  11.882  19.142  0.00  0.00    +0.000 A 
ATOM      4  N   UNL     1      -1.988  11.485  18.358  0.00  0.00    +0.000 N 
ATOM      5  C   UNL     1      -1.982  10.791  17.187  0.00  0.00    +0.000 A 
ATOM      6  C   UNL     1      -3.205  10.521  16.558  0.00  0.00    +0.000 A 
ATOM      7  C   UNL     1      -4.399  10.969  17.144  0.00  0.00    +0.000 A 
ATOM      8  C   UNL     1      -4.370  11.668  18.353  0.00  0.00    +0.000 A 
ATOM      9  C   UNL     1      -3.125  11.914  18.946  0.00  0.00    +0.000 A 
ENDROOT
BRANCH   1  11
ATOM     10  O   UNL     1      -4.451  12.266  21.803  0.00  0.00    +0.000 OA
ATOM     11  C   UNL     1      -3.795  13.068  21.157  0.00  0.00    +0.000 C 
ATOM     12  N   UNL     1      -3.887  14.398  21.440  0.00  0.00    +0.000 N 
ATOM     13  H   UNL     1      -3.388  15.072  20.846  0.00  0.00    +0.000 HD
BRANCH  12  14
ATOM     14  C   UNL     1      -4.665  14.890  22.572  0.00  0.00    +0.000 C 
ATOM     15  C   UNL     1      -3.785  14.961  23.866  0.00  0.00    +0.000 C 
ATOM     16  N   UNL     1      -3.741  16.338  24.420  0.00  0.00    +0.000 NA
ATOM     17  C   UNL     1      -3.182  17.256  23.396  0.00  0.00    +0.000 C 
ATOM     18  C   UNL     1      -4.102  17.328  22.151  0.00  0.00    +0.000 C 
ATOM     19  C   UNL     1      -5.244  16.303  22.313  0.00  0.00    +0.000 C 
ATOM     20  C   UNL     1      -6.061  16.690  23.566  0.00  0.00    +0.000 C 
ATOM     21  C   UNL     1      -5.105  16.789  24.781  0.00  0.00    +0.000 C 
ENDBRANCH  12  14
ENDBRANCH   1  11
BRANCH   3  22
ATOM     22  C   UNL     1       0.485  11.579  18.932  0.00  0.00    +0.000 C 
ATOM     23  O   UNL     1       1.234  12.459  18.539  0.00  0.00    +0.000 OA
BRANCH  22  24
ATOM     24  C   UNL     1       1.023  10.207  19.133  0.00  0.00    +0.000 A 
ATOM     25  C   UNL     1       1.649   9.537  18.073  0.00  0.00    +0.000 A 
ATOM     26  C   UNL     1       2.131   8.247  18.228  0.00  0.00    +0.000 A 
ATOM     27  C   UNL     1       2.000   7.569  19.452  0.00  0.00    +0.000 A 
ATOM     28  C   UNL     1       1.366   8.238  20.522  0.00  0.00    +0.000 A 
ATOM     29  C   UNL     1       0.880   9.542  20.362  0.00  0.00    +0.000 A 
BRANCH  27  30
ATOM     30  C   UNL     1       2.491   6.163  19.581  0.00  0.00    +0.000 A 
ATOM     31  C   UNL     1       2.022   5.323  20.616  0.00  0.00    +0.000 A 
ATOM     32  C   UNL     1       2.508   4.023  20.756  0.00  0.00    +0.000 A 
ATOM     33  C   UNL     1       3.481   3.542  19.880  0.00  0.00    +0.000 A 
ATOM     34  C   UNL     1       3.957   4.356  18.852  0.00  0.00    +0.000 A 
ATOM     35  C   UNL     1       3.462   5.653  18.694  0.00  0.00    +0.000 A 
ENDBRANCH  27  30
ENDBRANCH  22  24
ENDBRANCH   3  22
TORSDOF 5
ENDMDL
MODEL 8
REMARK VINA RESULT:      -8.4      1.568      2.272
REMARK  Name = 
REMARK  5 active torsions:
REMARK  status: ('A' for Active; 'I' for Inactive)
REMARK    1  A    between atoms: C_2  and  C_12
REMARK    2  A    between atoms: N_3  and  C_4
REMARK    3  A    between atoms: C_14  and  C_15
REMARK    4  A    between atoms: C_15  and  C_17
REMARK    5  A    between atoms: C_20  and  C_21
REMARK                            x       y       z     vdW  Elec       q    Type
REMARK                         _______ _______ _______ _____ _____    ______ ____
ROOT
ATOM      1  C   UNL     1      -2.452  12.475  20.337  0.00  0.00    +0.000 A 
ATOM      2  C   UNL     1      -1.069  12.390  20.360  0.00  0.00    +0.000 A 
ATOM      3  C   UNL     1      -0.678  11.699  19.220  0.00  0.00    +0.000 A 
ATOM      4  N   UNL     1      -1.777  11.386  18.491  0.00  0.00    +0.000 N 
ATOM      5  C   UNL     1      -1.884  10.721  17.308  0.00  0.00    +0.000 A 
ATOM      6  C   UNL     1      -3.156  10.543  16.749  0.00  0.00    +0.000 A 
ATOM      7  C   UNL     1      -4.283  11.052  17.414  0.00  0.00    +0.000 A 
ATOM      8  C   UNL     1      -4.138  11.718  18.633  0.00  0.00    +0.000 A 
ATOM      9  C   UNL     1      -2.848  11.871  19.155  0.00  0.00    +0.000 A 
ENDROOT
BRANCH   1  11
ATOM     10  O   UNL     1      -4.117  12.272  21.967  0.00  0.00    +0.000 OA
ATOM     11  C   UNL     1      -3.311  13.012  21.425  0.00  0.00    +0.000 C 
ATOM     12  N   UNL     1      -3.156  14.288  21.880  0.00  0.00    +0.000 N 
ATOM     13  H   UNL     1      -2.530  14.927  21.374  0.00  0.00    +0.000 HD
BRANCH  12  14
ATOM     14  C   UNL     1      -3.845  14.767  23.073  0.00  0.00    +0.000 C 
ATOM     15  C   UNL     1      -2.866  15.563  24.001  0.00  0.00    +0.000 C 
ATOM     16  N   UNL     1      -3.344  16.951  24.233  0.00  0.00    +0.000 NA
ATOM     17  C   UNL     1      -3.460  17.649  22.929  0.00  0.00    +0.000 C 
ATOM     18  C   UNL     1      -4.528  16.976  22.030  0.00  0.00    +0.000 C 
ATOM     19  C   UNL     1      -5.034  15.696  22.727  0.00  0.00    +0.000 C 
ATOM     20  C   UNL     1      -5.688  16.106  24.067  0.00  0.00    +0.000 C 
ATOM     21  C   UNL     1      -4.670  16.932  24.892  0.00  0.00    +0.000 C 
ENDBRANCH  12  14
ENDBRANCH   1  11
BRANCH   3  22
ATOM     22  C   UNL     1       0.726  11.311  18.917  0.00  0.00    +0.000 C 
ATOM     23  O   UNL     1       1.502  12.149  18.485  0.00  0.00    +0.000 OA
BRANCH  22  24
ATOM     24  C   UNL     1       1.190   9.907  19.073  0.00  0.00    +0.000 A 
ATOM     25  C   UNL     1       1.109   9.276  20.323  0.00  0.00    +0.000 A 
ATOM     26  C   UNL     1       1.562   7.978  20.499  0.00  0.00    +0.000 A 
ATOM     27  C   UNL     1       2.123   7.258  19.431  0.00  0.00    +0.000 A 
ATOM     28  C   UNL     1       2.211   7.890  18.171  0.00  0.00    +0.000 A 
ATOM     29  C   UNL     1       1.752   9.201  17.996  0.00  0.00    +0.000 A 
BRANCH  27  30
ATOM     30  C   UNL     1       2.642   5.874  19.658  0.00  0.00    +0.000 A 
ATOM     31  C   UNL     1       3.935   5.504  19.221  0.00  0.00    +0.000 A 
ATOM     32  C   UNL     1       4.404   4.204  19.402  0.00  0.00    +0.000 A 
ATOM     33  C   UNL     1       3.591   3.244  20.005  0.00  0.00    +0.000 A 
ATOM     34  C   UNL     1       2.312   3.590  20.442  0.00  0.00    +0.000 A 
ATOM     35  C   UNL     1       1.842   4.895  20.281  0.00  0.00    +0.000 A 
ENDBRANCH  27  30
ENDBRANCH  22  24
ENDBRANCH   3  22
TORSDOF 5
ENDMDL
MODEL 9
REMARK VINA RESULT:      -8.4      2.182      2.844
REMARK  Name = 
REMARK  5 active torsions:
REMARK  status: ('A' for Active; 'I' for Inactive)
REMARK    1  A    between atoms: C_2  and  C_12
REMARK    2  A    between atoms: N_3  and  C_4
REMARK    3  A    between atoms: C_14  and  C_15
REMARK    4  A    between atoms: C_15  and  C_17
REMARK    5  A    between atoms: C_20  and  C_21
REMARK                            x       y       z     vdW  Elec       q    Type
REMARK                         _______ _______ _______ _____ _____    ______ ____
ROOT
ATOM      1  C   UNL     1      -0.404  11.775  20.836  0.00  0.00    +0.000 A 
ATOM      2  C   UNL     1       0.860  11.368  20.441  0.00  0.00    +0.000 A 
ATOM      3  C   UNL     1       0.739  10.819  19.170  0.00  0.00    +0.000 A 
ATOM      4  N   UNL     1      -0.552  10.907  18.768  0.00  0.00    +0.000 N 
ATOM      5  C   UNL     1      -1.137  10.508  17.606  0.00  0.00    +0.000 A 
ATOM      6  C   UNL     1      -2.509  10.735  17.431  0.00  0.00    +0.000 A 
ATOM      7  C   UNL     1      -3.243  11.365  18.448  0.00  0.00    +0.000 A 
ATOM      8  C   UNL     1      -2.612  11.750  19.634  0.00  0.00    +0.000 A 
ATOM      9  C   UNL     1      -1.241  11.502  19.766  0.00  0.00    +0.000 A 
ENDROOT
BRANCH   1  11
ATOM     10  O   UNL     1      -0.587  11.592  23.160  0.00  0.00    +0.000 OA
ATOM     11  C   UNL     1      -0.774  12.295  22.179  0.00  0.00    +0.000 C 
ATOM     12  N   UNL     1      -1.237  13.567  22.339  0.00  0.00    +0.000 N 
ATOM     13  H   UNL     1      -1.460  14.126  21.506  0.00  0.00    +0.000 HD
BRANCH  12  14
ATOM     14  C   UNL     1      -1.413  14.160  23.659  0.00  0.00    +0.000 C 
ATOM     15  C   UNL     1      -0.710  15.558  23.742  0.00  0.00    +0.000 C 
ATOM     16  N   UNL     1      -1.674  16.631  24.094  0.00  0.00    +0.000 NA
ATOM     17  C   UNL     1      -2.744  16.680  23.066  0.00  0.00    +0.000 C 
ATOM     18  C   UNL     1      -3.561  15.363  23.050  0.00  0.00    +0.000 C 
ATOM     19  C   UNL     1      -2.906  14.356  24.018  0.00  0.00    +0.000 C 
ATOM     20  C   UNL     1      -2.951  14.960  25.440  0.00  0.00    +0.000 C 
ATOM     21  C   UNL     1      -2.285  16.359  25.415  0.00  0.00    +0.000 C 
ENDBRANCH  12  14
ENDBRANCH   1  11
BRANCH   3  22
ATOM     22  C   UNL     1       1.857  10.175  18.427  0.00  0.00    +0.000 C 
ATOM     23  O   UNL     1       2.536  10.843  17.664  0.00  0.00    +0.000 OA
BRANCH  22  24
ATOM     24  C   UNL     1       2.126   8.718  18.551  0.00  0.00    +0.000 A 
ATOM     25  C   UNL     1       2.619   8.000  17.452  0.00  0.00    +0.000 A 
ATOM     26  C   UNL     1       2.850   6.636  17.535  0.00  0.00    +0.000 A 
ATOM     27  C   UNL     1       2.590   5.930  18.722  0.00  0.00    +0.000 A 
ATOM     28  C   UNL     1       2.090   6.648  19.831  0.00  0.00    +0.000 A 
ATOM     29  C   UNL     1       1.857   8.026  19.744  0.00  0.00    +0.000 A 
BRANCH  27  30
ATOM     30  C   UNL     1       2.809   4.452  18.772  0.00  0.00    +0.000 A 
ATOM     31  C   UNL     1       3.797   3.893  19.614  0.00  0.00    +0.000 A 
ATOM     32  C   UNL     1       4.024   2.517  19.632  0.00  0.00    +0.000 A 
ATOM     33  C   UNL     1       3.284   1.675  18.802  0.00  0.00    +0.000 A 
ATOM     34  C   UNL     1       2.305   2.208  17.964  0.00  0.00    +0.000 A 
ATOM     35  C   UNL     1       2.059   3.583  17.953  0.00  0.00    +0.000 A 
ENDBRANCH  27  30
ENDBRANCH  22  24
ENDBRANCH   3  22
TORSDOF 5
ENDMDL
