MODEL 1
REMARK VINA RESULT:      -8.8      0.000      0.000
REMARK  Name = 
REMARK  8 active torsions:
REMARK  status: ('A' for Active; 'I' for Inactive)
REMARK    1  A    between atoms: C_1  and  C_2
REMARK    2  A    between atoms: C_6  and  C_7
REMARK    3  A    between atoms: C_7  and  C_8
REMARK    4  A    between atoms: C_8  and  N_9
REMARK    5  A    between atoms: C_10  and  C_12
REMARK    6  A    between atoms: C_14  and  S_15
REMARK    7  A    between atoms: S_15  and  N_18
REMARK    8  A    between atoms: N_24  and  C_25
REMARK                            x       y       z     vdW  Elec       q    Type
REMARK                         _______ _______ _______ _____ _____    ______ ____
ROOT
ATOM      1  C   UNL     1       6.252   4.998  18.018  0.00  0.00    +0.000 A 
ATOM      2  C   UNL     1       5.184   4.424  18.701  0.00  0.00    +0.000 A 
ATOM      3  C   UNL     1       4.356   3.757  17.761  0.00  0.00    +0.000 A 
ATOM      4  C   UNL     1       4.901   3.970  16.514  0.00  0.00    +0.000 A 
ATOM      5  N   UNL     1       6.109   4.595  16.697  0.00  0.00    +0.000 N 
ATOM      6  C   UNL     1       7.122   4.700  15.665  0.00  0.00    +0.000 C 
ENDROOT
BRANCH   1   8
ATOM      7  N   UNL     1       7.356   7.124  18.010  0.00  0.00    +0.000 N 
ATOM      8  C   UNL     1       7.331   5.843  18.517  0.00  0.00    +0.000 C 
ATOM      9  O   UNL     1       8.166   5.452  19.323  0.00  0.00    +0.000 OA
ATOM     10  H   UNL     1       6.550   7.462  17.504  0.00  0.00    +0.000 HD
BRANCH   7  11
ATOM     11  C   UNL     1       8.365   8.075  18.436  0.00  0.00    +0.000 C 
BRANCH  11  12
ATOM     12  C   UNL     1       8.261   9.413  17.702  0.00  0.00    +0.000 C 
BRANCH  12  18
ATOM     13  C   UNL     1       9.699  14.232  18.000  0.00  0.00    +0.000 C 
ATOM     14  C   UNL     1       9.612  12.869  18.620  0.00  0.00    +0.000 A 
ATOM     15  C   UNL     1      10.121  12.627  19.900  0.00  0.00    +0.000 A 
ATOM     16  C   UNL     1      10.029  11.354  20.464  0.00  0.00    +0.000 A 
ATOM     17  C   UNL     1       9.431  10.312  19.753  0.00  0.00    +0.000 A 
ATOM     18  C   UNL     1       8.923  10.533  18.467  0.00  0.00    +0.000 A 
ATOM     19  C   UNL     1       9.013  11.817  17.911  0.00  0.00    +0.000 A 
ENDBRANCH  12  18
ENDBRANCH  11  12
ENDBRANCH   7  11
ENDBRANCH   1   8
BRANCH   3  20
ATOM     20  S   UNL     1       2.946   2.838  18.148  0.00  0.00    +0.000 S 
ATOM     21  O   UNL     1       2.223   2.748  16.901  0.00  0.00    +0.000 OA
ATOM     22  O   UNL     1       3.457   1.656  18.818  0.00  0.00    +0.000 OA
BRANCH  20  23
ATOM     23  N   UNL     1       1.991   3.697  19.261  0.00  0.00    +0.000 NA
ATOM     24  C   UNL     1       2.687   4.333  20.399  0.00  0.00    +0.000 C 
ATOM     25  C   UNL     1       2.466   3.401  21.573  0.00  0.00    +0.000 C 
ATOM     26  C   UNL     1       1.090   2.814  21.327  0.00  0.00    +0.000 C 
ATOM     27  C   UNL     1       0.863   2.898  19.821  0.00  0.00    +0.000 C 
ENDBRANCH  20  23
ENDBRANCH   3  20
TORSDOF 6
ENDMDL
MODEL 2
REMARK VINA RESULT:      -8.8      0.831      1.095
REMARK  Name = 
REMARK  8 active torsions:
REMARK  status: ('A' for Active; 'I' for Inactive)
REMARK    1  A    between atoms: C_1  and  C_2
REMARK    2  A    between atoms: C_6  and  C_7
REMARK    3  A    between atoms: C_7  and  C_8
REMARK    4  A    between atoms: C_8  and  N_9
REMARK    5  A    between atoms: C_10  and  C_12
REMARK    6  A    between atoms: C_14  and  S_15
REMARK    7  A    between atoms: S_15  and  N_18
REMARK    8  A    between atoms: N_24  and  C_25
REMARK                            x       y       z     vdW  Elec       q    Type
REMARK                         _______ _______ _______ _____ _____    ______ ____
ROOT
ATOM      1  C   UNL     1       6.264   4.837  18.136  0.00  0.00    +0.000 A 
ATOM      2  C   UNL     1       5.233   4.311  18.908  0.00  0.00    +0.000 A 
ATOM      3  C   UNL     1       4.338   3.619  18.050  0.00  0.00    +0.000 A 
ATOM      4  C   UNL     1       4.808   3.768  16.764  0.00  0.00    +0.000 A 
ATOM      5  N   UNL     1       6.034   4.380  16.846  0.00  0.00    +0.000 N 
ATOM      6  C   UNL     1       6.982   4.423  15.749  0.00  0.00    +0.000 C 
ENDROOT
BRANCH   1   8
ATOM      7  N   UNL     1       7.335   6.978  18.062  0.00  0.00    +0.000 N 
ATOM      8  C   UNL     1       7.384   5.684  18.530  0.00  0.00    +0.000 C 
ATOM      9  O   UNL     1       8.313   5.283  19.221  0.00  0.00    +0.000 OA
ATOM     10  H   UNL     1       6.471   7.318  17.663  0.00  0.00    +0.000 HD
BRANCH   7  11
ATOM     11  C   UNL     1       8.375   7.932  18.395  0.00  0.00    +0.000 C 
BRANCH  11  12
ATOM     12  C   UNL     1       8.168   9.290  17.722  0.00  0.00    +0.000 C 
BRANCH  12  18
ATOM     13  C   UNL     1       9.753  14.068  17.918  0.00  0.00    +0.000 C 
ATOM     14  C   UNL     1       9.631  12.719  18.564  0.00  0.00    +0.000 A 
ATOM     15  C   UNL     1      10.144  12.485  19.844  0.00  0.00    +0.000 A 
ATOM     16  C   UNL     1      10.019  11.226  20.432  0.00  0.00    +0.000 A 
ATOM     17  C   UNL     1       9.383  10.191  19.745  0.00  0.00    +0.000 A 
ATOM     18  C   UNL     1       8.870  10.403  18.460  0.00  0.00    +0.000 A 
ATOM     19  C   UNL     1       8.994  11.674  17.880  0.00  0.00    +0.000 A 
ENDBRANCH  12  18
ENDBRANCH  11  12
ENDBRANCH   7  11
ENDBRANCH   1   8
BRANCH   3  20
ATOM     20  S   UNL     1       2.941   2.742  18.564  0.00  0.00    +0.000 S 
ATOM     21  O   UNL     1       2.575   1.948  17.416  0.00  0.00    +0.000 OA
ATOM     22  O   UNL     1       3.340   2.128  19.817  0.00  0.00    +0.000 OA
BRANCH  20  23
ATOM     23  N   UNL     1       1.674   3.826  18.894  0.00  0.00    +0.000 NA
ATOM     24  C   UNL     1       1.762   5.172  18.289  0.00  0.00    +0.000 C 
ATOM     25  C   UNL     1       2.257   6.076  19.399  0.00  0.00    +0.000 C 
ATOM     26  C   UNL     1       1.655   5.483  20.658  0.00  0.00    +0.000 C 
ATOM     27  C   UNL     1       1.410   4.009  20.350  0.00  0.00    +0.000 C 
ENDBRANCH  20  23
ENDBRANCH   3  20
TORSDOF 6
ENDMDL
MODEL 3
REMARK VINA RESULT:      -8.7      1.595      1.829
REMARK  Name = 
REMARK  8 active torsions:
REMARK  status: ('A' for Active; 'I' for Inactive)
REMARK    1  A    between atoms: C_1  and  C_2
REMARK    2  A    between atoms: C_6  and  C_7
REMARK    3  A    between atoms: C_7  and  C_8
REMARK    4  A    between atoms: C_8  and  N_9
REMARK    5  A    between atoms: C_10  and  C_12
REMARK    6  A    between atoms: C_14  and  S_15
REMARK    7  A    between atoms: S_15  and  N_18
REMARK    8  A    between atoms: N_24  and  C_25
REMARK                            x       y       z     vdW  Elec       q    Type
REMARK                         _______ _______ _______ _____ _____    ______ ____
ROOT
ATOM      1  C   UNL     1       5.911   5.619  18.003  0.00  0.00    +0.000 A 
ATOM      2  C   UNL     1       4.744   5.526  18.756  0.00  0.00    +0.000 A 
ATOM      3  C   UNL     1       3.753   4.882  17.971  0.00  0.00    +0.000 A 
ATOM      4  C   UNL     1       4.310   4.629  16.737  0.00  0.00    +0.000 A 
ATOM      5  N   UNL     1       5.642   4.949  16.817  0.00  0.00    +0.000 N 
ATOM      6  C   UNL     1       6.627   4.530  15.838  0.00  0.00    +0.000 C 
ENDROOT
BRANCH   1   8
ATOM      7  N   UNL     1       7.279   7.585  17.979  0.00  0.00    +0.000 N 
ATOM      8  C   UNL     1       7.182   6.256  18.328  0.00  0.00    +0.000 C 
ATOM      9  O   UNL     1       8.108   5.661  18.865  0.00  0.00    +0.000 OA
ATOM     10  H   UNL     1       6.438   8.081  17.718  0.00  0.00    +0.000 HD
BRANCH   7  11
ATOM     11  C   UNL     1       8.481   8.345  18.262  0.00  0.00    +0.000 C 
BRANCH  11  12
ATOM     12  C   UNL     1       8.368   9.809  17.834  0.00  0.00    +0.000 C 
BRANCH  12  18
ATOM     13  C   UNL     1      12.127  13.157  17.626  0.00  0.00    +0.000 C 
ATOM     14  C   UNL     1      11.190  12.315  18.440  0.00  0.00    +0.000 A 
ATOM     15  C   UNL     1      11.228  12.343  19.838  0.00  0.00    +0.000 A 
ATOM     16  C   UNL     1      10.347  11.557  20.581  0.00  0.00    +0.000 A 
ATOM     17  C   UNL     1       9.424  10.734  19.935  0.00  0.00    +0.000 A 
ATOM     18  C   UNL     1       9.376  10.685  18.536  0.00  0.00    +0.000 A 
ATOM     19  C   UNL     1      10.260  11.485  17.798  0.00  0.00    +0.000 A 
ENDBRANCH  12  18
ENDBRANCH  11  12
ENDBRANCH   7  11
ENDBRANCH   1   8
BRANCH   3  20
ATOM     20  S   UNL     1       2.161   4.482  18.507  0.00  0.00    +0.000 S 
ATOM     21  O   UNL     1       1.895   5.418  19.573  0.00  0.00    +0.000 OA
ATOM     22  O   UNL     1       1.364   4.466  17.293  0.00  0.00    +0.000 OA
BRANCH  20  23
ATOM     23  N   UNL     1       2.152   2.911  19.157  0.00  0.00    +0.000 NA
ATOM     24  C   UNL     1       2.967   2.677  20.367  0.00  0.00    +0.000 C 
ATOM     25  C   UNL     1       4.233   2.008  19.872  0.00  0.00    +0.000 C 
ATOM     26  C   UNL     1       3.776   1.179  18.688  0.00  0.00    +0.000 C 
ATOM     27  C   UNL     1       2.511   1.854  18.168  0.00  0.00    +0.000 C 
ENDBRANCH  20  23
ENDBRANCH   3  20
TORSDOF 6
ENDMDL
MODEL 4
REMARK VINA RESULT:      -8.6      1.133      1.329
REMARK  Name = 
REMARK  8 active torsions:
REMARK  status: ('A' for Active; 'I' for Inactive)
REMARK    1  A    between atoms: C_1  and  C_2
REMARK    2  A    between atoms: C_6  and  C_7
REMARK    3  A    between atoms: C_7  and  C_8
REMARK    4  A    between atoms: C_8  and  N_9
REMARK    5  A    between atoms: C_10  and  C_12
REMARK    6  A    between atoms: C_14  and  S_15
REMARK    7  A    between atoms: S_15  and  N_18
REMARK    8  A    between atoms: N_24  and  C_25
REMARK                            x       y       z     vdW  Elec       q    Type
REMARK                         _______ _______ _______ _____ _____    ______ ____
ROOT
ATOM      1  C   UNL     1       5.522   5.092  18.534  0.00  0.00    +0.000 A 
ATOM      2  C   UNL     1       5.086   3.821  18.896  0.00  0.00    +0.000 A 
ATOM      3  C   UNL     1       3.816   3.597  18.305  0.00  0.00    +0.000 A 
ATOM      4  C   UNL     1       3.472   4.747  17.628  0.00  0.00    +0.000 A 
ATOM      5  N   UNL     1       4.562   5.580  17.658  0.00  0.00    +0.000 N 
ATOM      6  C   UNL     1       4.710   6.737  16.796  0.00  0.00    +0.000 C 
ENDROOT
BRANCH   1   8
ATOM      7  N   UNL     1       7.086   6.858  18.115  0.00  0.00    +0.000 N 
ATOM      8  C   UNL     1       6.722   5.816  18.939  0.00  0.00    +0.000 C 
ATOM      9  O   UNL     1       7.374   5.523  19.934  0.00  0.00    +0.000 OA
ATOM     10  H   UNL     1       6.425   7.184  17.423  0.00  0.00    +0.000 HD
BRANCH   7  11
ATOM     11  C   UNL     1       8.248   7.673  18.412  0.00  0.00    +0.000 C 
BRANCH  11  12
ATOM     12  C   UNL     1       8.291   8.961  17.588  0.00  0.00    +0.000 C 
BRANCH  12  18
ATOM     13  C   UNL     1       9.220  13.897  17.985  0.00  0.00    +0.000 C 
ATOM     14  C   UNL     1       9.237  12.525  18.594  0.00  0.00    +0.000 A 
ATOM     15  C   UNL     1       9.698  12.322  19.898  0.00  0.00    +0.000 A 
ATOM     16  C   UNL     1       9.703  11.041  20.451  0.00  0.00    +0.000 A 
ATOM     17  C   UNL     1       9.252   9.952  19.703  0.00  0.00    +0.000 A 
ATOM     18  C   UNL     1       8.795  10.134  18.393  0.00  0.00    +0.000 A 
ATOM     19  C   UNL     1       8.786  11.426  17.849  0.00  0.00    +0.000 A 
ENDBRANCH  12  18
ENDBRANCH  11  12
ENDBRANCH   7  11
ENDBRANCH   1   8
BRANCH   3  20
ATOM     20  S   UNL     1       2.908   2.132  18.415  0.00  0.00    +0.000 S 
ATOM     21  O   UNL     1       2.052   2.152  17.253  0.00  0.00    +0.000 OA
ATOM     22  O   UNL     1       3.911   1.098  18.603  0.00  0.00    +0.000 OA
BRANCH  20  23
ATOM     23  N   UNL     1       1.930   2.167  19.804  0.00  0.00    +0.000 NA
ATOM     24  C   UNL     1       0.722   3.019  19.758  0.00  0.00    +0.000 C 
ATOM     25  C   UNL     1       1.097   4.281  20.507  0.00  0.00    +0.000 C 
ATOM     26  C   UNL     1       2.055   3.806  21.581  0.00  0.00    +0.000 C 
ATOM     27  C   UNL     1       2.672   2.516  21.049  0.00  0.00    +0.000 C 
ENDBRANCH  20  23
ENDBRANCH   3  20
TORSDOF 6
ENDMDL
MODEL 5
REMARK VINA RESULT:      -8.6      1.107      1.748
REMARK  Name = 
REMARK  8 active torsions:
REMARK  status: ('A' for Active; 'I' for Inactive)
REMARK    1  A    between atoms: C_1  and  C_2
REMARK    2  A    between atoms: C_6  and  C_7
REMARK    3  A    between atoms: C_7  and  C_8
REMARK    4  A    between atoms: C_8  and  N_9
REMARK    5  A    between atoms: C_10  and  C_12
REMARK    6  A    between atoms: C_14  and  S_15
REMARK    7  A    between atoms: S_15  and  N_18
REMARK    8  A    between atoms: N_24  and  C_25
REMARK                            x       y       z     vdW  Elec       q    Type
REMARK                         _______ _______ _______ _____ _____    ______ ____
ROOT
ATOM      1  C   UNL     1       6.341   4.899  18.324  0.00  0.00    +0.000 A 
ATOM      2  C   UNL     1       5.300   4.376  19.085  0.00  0.00    +0.000 A 
ATOM      3  C   UNL     1       4.406   3.697  18.216  0.00  0.00    +0.000 A 
ATOM      4  C   UNL     1       4.886   3.852  16.934  0.00  0.00    +0.000 A 
ATOM      5  N   UNL     1       6.116   4.453  17.029  0.00  0.00    +0.000 N 
ATOM      6  C   UNL     1       7.073   4.496  15.939  0.00  0.00    +0.000 C 
ENDROOT
BRANCH   1   8
ATOM      7  N   UNL     1       7.461   7.014  18.223  0.00  0.00    +0.000 N 
ATOM      8  C   UNL     1       7.465   5.734  18.732  0.00  0.00    +0.000 C 
ATOM      9  O   UNL     1       8.359   5.336  19.468  0.00  0.00    +0.000 OA
ATOM     10  H   UNL     1       6.619   7.359  17.783  0.00  0.00    +0.000 HD
BRANCH   7  11
ATOM     11  C   UNL     1       8.510   7.956  18.563  0.00  0.00    +0.000 C 
BRANCH  11  12
ATOM     12  C   UNL     1       8.278   9.341  17.957  0.00  0.00    +0.000 C 
BRANCH  12  18
ATOM     13  C   UNL     1       9.664  12.249  21.831  0.00  0.00    +0.000 C 
ATOM     14  C   UNL     1       9.883  11.782  20.422  0.00  0.00    +0.000 A 
ATOM     15  C   UNL     1      10.939  12.284  19.654  0.00  0.00    +0.000 A 
ATOM     16  C   UNL     1      11.131  11.836  18.347  0.00  0.00    +0.000 A 
ATOM     17  C   UNL     1      10.270  10.887  17.795  0.00  0.00    +0.000 A 
ATOM     18  C   UNL     1       9.202  10.379  18.545  0.00  0.00    +0.000 A 
ATOM     19  C   UNL     1       9.021  10.829  19.861  0.00  0.00    +0.000 A 
ENDBRANCH  12  18
ENDBRANCH  11  12
ENDBRANCH   7  11
ENDBRANCH   1   8
BRANCH   3  20
ATOM     20  S   UNL     1       2.998   2.828  18.713  0.00  0.00    +0.000 S 
ATOM     21  O   UNL     1       2.667   2.003  17.576  0.00  0.00    +0.000 OA
ATOM     22  O   UNL     1       3.364   2.248  19.993  0.00  0.00    +0.000 OA
BRANCH  20  23
ATOM     23  N   UNL     1       1.719   3.915  18.980  0.00  0.00    +0.000 NA
ATOM     24  C   UNL     1       1.677   5.129  18.137  0.00  0.00    +0.000 C 
ATOM     25  C   UNL     1       2.237   6.236  19.006  0.00  0.00    +0.000 C 
ATOM     26  C   UNL     1       1.796   5.867  20.408  0.00  0.00    +0.000 C 
ATOM     27  C   UNL     1       1.595   4.354  20.399  0.00  0.00    +0.000 C 
ENDBRANCH  20  23
ENDBRANCH   3  20
TORSDOF 6
ENDMDL
MODEL 6
REMARK VINA RESULT:      -8.5      5.232      7.795
REMARK  Name = 
REMARK  8 active torsions:
REMARK  status: ('A' for Active; 'I' for Inactive)
REMARK    1  A    between atoms: C_1  and  C_2
REMARK    2  A    between atoms: C_6  and  C_7
REMARK    3  A    between atoms: C_7  and  C_8
REMARK    4  A    between atoms: C_8  and  N_9
REMARK    5  A    between atoms: C_10  and  C_12
REMARK    6  A    between atoms: C_14  and  S_15
REMARK    7  A    between atoms: S_15  and  N_18
REMARK    8  A    between atoms: N_24  and  C_25
REMARK                            x       y       z     vdW  Elec       q    Type
REMARK                         _______ _______ _______ _____ _____    ______ ____
ROOT
ATOM      1  C   UNL     1       2.943   6.158  18.594  0.00  0.00    +0.000 A 
ATOM      2  C   UNL     1       3.921   6.610  17.714  0.00  0.00    +0.000 A 
ATOM      3  C   UNL     1       4.420   5.496  16.989  0.00  0.00    +0.000 A 
ATOM      4  C   UNL     1       3.776   4.376  17.465  0.00  0.00    +0.000 A 
ATOM      5  N   UNL     1       2.796   4.804  18.326  0.00  0.00    +0.000 N 
ATOM      6  C   UNL     1       1.707   3.963  18.782  0.00  0.00    +0.000 C 
ENDROOT
BRANCH   1   8
ATOM      7  N   UNL     1       1.827   8.175  19.248  0.00  0.00    +0.000 N 
ATOM      8  C   UNL     1       2.185   6.893  19.602  0.00  0.00    +0.000 C 
ATOM      9  O   UNL     1       1.890   6.418  20.691  0.00  0.00    +0.000 OA
ATOM     10  H   UNL     1       1.920   8.457  18.282  0.00  0.00    +0.000 HD
BRANCH   7  11
ATOM     11  C   UNL     1       1.055   9.008  20.149  0.00  0.00    +0.000 C 
BRANCH  11  12
ATOM     12  C   UNL     1       0.972  10.462  19.682  0.00  0.00    +0.000 C 
BRANCH  12  18
ATOM     13  C   UNL     1      -2.627   9.818  16.215  0.00  0.00    +0.000 C 
ATOM     14  C   UNL     1      -2.143  10.490  17.466  0.00  0.00    +0.000 A 
ATOM     15  C   UNL     1      -2.944  11.416  18.141  0.00  0.00    +0.000 A 
ATOM     16  C   UNL     1      -2.481  12.030  19.305  0.00  0.00    +0.000 A 
ATOM     17  C   UNL     1      -1.213  11.725  19.803  0.00  0.00    +0.000 A 
ATOM     18  C   UNL     1      -0.393  10.806  19.137  0.00  0.00    +0.000 A 
ATOM     19  C   UNL     1      -0.870  10.189  17.972  0.00  0.00    +0.000 A 
ENDBRANCH  12  18
ENDBRANCH  11  12
ENDBRANCH   7  11
ENDBRANCH   1   8
BRANCH   3  20
ATOM     20  S   UNL     1       5.602   5.573  15.731  0.00  0.00    +0.000 S 
ATOM     21  O   UNL     1       5.467   4.315  15.036  0.00  0.00    +0.000 OA
ATOM     22  O   UNL     1       5.344   6.839  15.069  0.00  0.00    +0.000 OA
BRANCH  20  23
ATOM     23  N   UNL     1       7.158   5.648  16.411  0.00  0.00    +0.000 NA
ATOM     24  C   UNL     1       7.494   4.642  17.440  0.00  0.00    +0.000 C 
ATOM     25  C   UNL     1       7.343   5.362  18.765  0.00  0.00    +0.000 C 
ATOM     26  C   UNL     1       7.752   6.789  18.460  0.00  0.00    +0.000 C 
ATOM     27  C   UNL     1       7.502   6.987  16.968  0.00  0.00    +0.000 C 
ENDBRANCH  20  23
ENDBRANCH   3  20
TORSDOF 6
ENDMDL
MODEL 7
REMARK VINA RESULT:      -8.4      1.367      1.677
REMARK  Name = 
REMARK  8 active torsions:
REMARK  status: ('A' for Active; 'I' for Inactive)
REMARK    1  A    between atoms: C_1  and  C_2
REMARK    2  A    between atoms: C_6  and  C_7
REMARK    3  A    between atoms: C_7  and  C_8
REMARK    4  A    between atoms: C_8  and  N_9
REMARK    5  A    between atoms: C_10  and  C_12
REMARK    6  A    between atoms: C_14  and  S_15
REMARK    7  A    between atoms: S_15  and  N_18
REMARK    8  A    between atoms: N_24  and  C_25
REMARK                            x       y       z     vdW  Elec       q    Type
REMARK                         _______ _______ _______ _____ _____    ______ ____
ROOT
ATOM      1  C   UNL     1       5.942   5.814  17.714  0.00  0.00    +0.000 A 
ATOM      2  C   UNL     1       4.776   5.720  18.468  0.00  0.00    +0.000 A 
ATOM      3  C   UNL     1       3.867   4.871  17.784  0.00  0.00    +0.000 A 
ATOM      4  C   UNL     1       4.467   4.495  16.604  0.00  0.00    +0.000 A 
ATOM      5  N   UNL     1       5.761   4.953  16.640  0.00  0.00    +0.000 N 
ATOM      6  C   UNL     1       6.799   4.492  15.738  0.00  0.00    +0.000 C 
ENDROOT
BRANCH   1   8
ATOM      7  N   UNL     1       7.133   7.862  17.360  0.00  0.00    +0.000 N 
ATOM      8  C   UNL     1       7.139   6.615  17.944  0.00  0.00    +0.000 C 
ATOM      9  O   UNL     1       8.092   6.215  18.602  0.00  0.00    +0.000 OA
ATOM     10  H   UNL     1       6.264   8.223  16.993  0.00  0.00    +0.000 HD
BRANCH   7  11
ATOM     11  C   UNL     1       8.253   8.768  17.525  0.00  0.00    +0.000 C 
BRANCH  11  12
ATOM     12  C   UNL     1       8.551   9.075  18.994  0.00  0.00    +0.000 C 
BRANCH  12  18
ATOM     13  C   UNL     1      11.034  12.954  16.952  0.00  0.00    +0.000 C 
ATOM     14  C   UNL     1      10.557  12.223  18.172  0.00  0.00    +0.000 A 
ATOM     15  C   UNL     1      10.840  12.703  19.455  0.00  0.00    +0.000 A 
ATOM     16  C   UNL     1      10.386  12.013  20.579  0.00  0.00    +0.000 A 
ATOM     17  C   UNL     1       9.649  10.838  20.432  0.00  0.00    +0.000 A 
ATOM     18  C   UNL     1       9.362  10.337  19.157  0.00  0.00    +0.000 A 
ATOM     19  C   UNL     1       9.816  11.041  18.032  0.00  0.00    +0.000 A 
ENDBRANCH  12  18
ENDBRANCH  11  12
ENDBRANCH   7  11
ENDBRANCH   1   8
BRANCH   3  20
ATOM     20  S   UNL     1       2.311   4.401  18.368  0.00  0.00    +0.000 S 
ATOM     21  O   UNL     1       2.004   5.368  19.394  0.00  0.00    +0.000 OA
ATOM     22  O   UNL     1       1.497   4.278  17.171  0.00  0.00    +0.000 OA
BRANCH  20  23
ATOM     23  N   UNL     1       2.410   2.865  19.090  0.00  0.00    +0.000 NA
ATOM     24  C   UNL     1       1.539   2.610  20.257  0.00  0.00    +0.000 C 
ATOM     25  C   UNL     1       2.437   2.769  21.466  0.00  0.00    +0.000 C 
ATOM     26  C   UNL     1       3.792   2.283  20.989  0.00  0.00    +0.000 C 
ATOM     27  C   UNL     1       3.796   2.475  19.476  0.00  0.00    +0.000 C 
ENDBRANCH  20  23
ENDBRANCH   3  20
TORSDOF 6
ENDMDL
MODEL 8
REMARK VINA RESULT:      -8.4      1.371      1.852
REMARK  Name = 
REMARK  8 active torsions:
REMARK  status: ('A' for Active; 'I' for Inactive)
REMARK    1  A    between atoms: C_1  and  C_2
REMARK    2  A    between atoms: C_6  and  C_7
REMARK    3  A    between atoms: C_7  and  C_8
REMARK    4  A    between atoms: C_8  and  N_9
REMARK    5  A    between atoms: C_10  and  C_12
REMARK    6  A    between atoms: C_14  and  S_15
REMARK    7  A    between atoms: S_15  and  N_18
REMARK    8  A    between atoms: N_24  and  C_25
REMARK                            x       y       z     vdW  Elec       q    Type
REMARK                         _______ _______ _______ _____ _____    ______ ____
ROOT
ATOM      1  C   UNL     1       6.067   5.805  17.468  0.00  0.00    +0.000 A 
ATOM      2  C   UNL     1       5.342   5.302  18.544  0.00  0.00    +0.000 A 
ATOM      3  C   UNL     1       4.972   3.964  18.249  0.00  0.00    +0.000 A 
ATOM      4  C   UNL     1       5.434   3.682  16.982  0.00  0.00    +0.000 A 
ATOM      5  N   UNL     1       6.207   4.744  16.584  0.00  0.00    +0.000 N 
ATOM      6  C   UNL     1       7.119   4.693  15.458  0.00  0.00    +0.000 C 
ENDROOT
BRANCH   1   8
ATOM      7  N   UNL     1       7.707   7.465  18.011  0.00  0.00    +0.000 N 
ATOM      8  C   UNL     1       6.604   7.144  17.251  0.00  0.00    +0.000 C 
ATOM      9  O   UNL     1       6.114   7.939  16.459  0.00  0.00    +0.000 OA
ATOM     10  H   UNL     1       8.189   6.726  18.503  0.00  0.00    +0.000 HD
BRANCH   7  11
ATOM     11  C   UNL     1       8.352   8.757  17.881  0.00  0.00    +0.000 C 
BRANCH  11  12
ATOM     12  C   UNL     1       8.971   9.242  19.193  0.00  0.00    +0.000 C 
BRANCH  12  18
ATOM     13  C   UNL     1      10.014  13.671  21.356  0.00  0.00    +0.000 C 
ATOM     14  C   UNL     1      10.004  12.800  20.135  0.00  0.00    +0.000 A 
ATOM     15  C   UNL     1      10.479  13.274  18.908  0.00  0.00    +0.000 A 
ATOM     16  C   UNL     1      10.466  12.450  17.783  0.00  0.00    +0.000 A 
ATOM     17  C   UNL     1       9.976  11.147  17.872  0.00  0.00    +0.000 A 
ATOM     18  C   UNL     1       9.487  10.656  19.089  0.00  0.00    +0.000 A 
ATOM     19  C   UNL     1       9.511  11.489  20.217  0.00  0.00    +0.000 A 
ENDBRANCH  12  18
ENDBRANCH  11  12
ENDBRANCH   7  11
ENDBRANCH   1   8
BRANCH   3  20
ATOM     20  S   UNL     1       4.120   2.906  19.316  0.00  0.00    +0.000 S 
ATOM     21  O   UNL     1       3.316   2.086  18.441  0.00  0.00    +0.000 OA
ATOM     22  O   UNL     1       5.155   2.331  20.158  0.00  0.00    +0.000 OA
BRANCH  20  23
ATOM     23  N   UNL     1       3.081   3.810  20.311  0.00  0.00    +0.000 NA
ATOM     24  C   UNL     1       2.580   3.154  21.537  0.00  0.00    +0.000 C 
ATOM     25  C   UNL     1       1.174   2.703  21.201  0.00  0.00    +0.000 C 
ATOM     26  C   UNL     1       0.662   3.761  20.244  0.00  0.00    +0.000 C 
ATOM     27  C   UNL     1       1.901   4.368  19.591  0.00  0.00    +0.000 C 
ENDBRANCH  20  23
ENDBRANCH   3  20
TORSDOF 6
ENDMDL
MODEL 9
REMARK VINA RESULT:      -8.3      4.844      7.431
REMARK  Name = 
REMARK  8 active torsions:
REMARK  status: ('A' for Active; 'I' for Inactive)
REMARK    1  A    between atoms: C_1  and  C_2
REMARK    2  A    between atoms: C_6  and  C_7
REMARK    3  A    between atoms: C_7  and  C_8
REMARK    4  A    between atoms: C_8  and  N_9
REMARK    5  A    between atoms: C_10  and  C_12
REMARK    6  A    between atoms: C_14  and  S_15
REMARK    7  A    between atoms: S_15  and  N_18
REMARK    8  A    between atoms: N_24  and  C_25
REMARK                            x       y       z     vdW  Elec       q    Type
REMARK                         _______ _______ _______ _____ _____    ______ ____
ROOT
ATOM      1  C   UNL     1       3.060   5.569  18.825  0.00  0.00    +0.000 A 
ATOM      2  C   UNL     1       3.989   6.213  18.014  0.00  0.00    +0.000 A 
ATOM      3  C   UNL     1       4.409   5.307  17.006  0.00  0.00    +0.000 A 
ATOM      4  C   UNL     1       3.768   4.110  17.239  0.00  0.00    +0.000 A 
ATOM      5  N   UNL     1       2.860   4.323  18.245  0.00  0.00    +0.000 N 
ATOM      6  C   UNL     1       1.781   3.406  18.558  0.00  0.00    +0.000 C 
ENDROOT
BRANCH   1   8
ATOM      7  N   UNL     1       2.259   7.408  20.134  0.00  0.00    +0.000 N 
ATOM      8  C   UNL     1       2.390   6.041  20.032  0.00  0.00    +0.000 C 
ATOM      9  O   UNL     1       1.978   5.286  20.904  0.00  0.00    +0.000 OA
ATOM     10  H   UNL     1       2.436   7.976  19.318  0.00  0.00    +0.000 HD
BRANCH   7  11
ATOM     11  C   UNL     1       1.596   8.010  21.275  0.00  0.00    +0.000 C 
BRANCH  11  12
ATOM     12  C   UNL     1       0.097   8.209  21.048  0.00  0.00    +0.000 C 
BRANCH  12  18
ATOM     13  C   UNL     1      -1.102  12.907  19.676  0.00  0.00    +0.000 C 
ATOM     14  C   UNL     1      -0.945  11.876  20.755  0.00  0.00    +0.000 A 
ATOM     15  C   UNL     1      -1.222  12.183  22.090  0.00  0.00    +0.000 A 
ATOM     16  C   UNL     1      -1.074  11.212  23.081  0.00  0.00    +0.000 A 
ATOM     17  C   UNL     1      -0.644   9.927  22.746  0.00  0.00    +0.000 A 
ATOM     18  C   UNL     1      -0.353   9.602  21.416  0.00  0.00    +0.000 A 
ATOM     19  C   UNL     1      -0.512  10.583  20.426  0.00  0.00    +0.000 A 
ENDBRANCH  12  18
ENDBRANCH  11  12
ENDBRANCH   7  11
ENDBRANCH   1   8
BRANCH   3  20
ATOM     20  S   UNL     1       5.505   5.679  15.724  0.00  0.00    +0.000 S 
ATOM     21  O   UNL     1       5.397   4.557  14.822  0.00  0.00    +0.000 OA
ATOM     22  O   UNL     1       5.139   7.022  15.313  0.00  0.00    +0.000 OA
BRANCH  20  23
ATOM     23  N   UNL     1       7.094   5.732  16.326  0.00  0.00    +0.000 NA
ATOM     24  C   UNL     1       7.535   4.600  17.168  0.00  0.00    +0.000 C 
ATOM     25  C   UNL     1       7.430   5.100  18.594  0.00  0.00    +0.000 C 
ATOM     26  C   UNL     1       7.755   6.577  18.496  0.00  0.00    +0.000 C 
ATOM     27  C   UNL     1       7.409   6.987  17.068  0.00  0.00    +0.000 C 
ENDBRANCH  20  23
ENDBRANCH   3  20
TORSDOF 6
ENDMDL
