MODEL 1
REMARK VINA RESULT:      -8.3      0.000      0.000
REMARK  Name = 
REMARK  6 active torsions:
REMARK  status: ('A' for Active; 'I' for Inactive)
REMARK    1  A    between atoms: C_2  and  C_3
REMARK    2  A    between atoms: C_3  and  C_4
REMARK    3  A    between atoms: C_4  and  C_5
REMARK    4  A    between atoms: C_5  and  C_6
REMARK    5  A    between atoms: C_6  and  N_7
REMARK    6  A    between atoms: N_21  and  C_22
REMARK                            x       y       z     vdW  Elec       q    Type
REMARK                         _______ _______ _______ _____ _____    ______ ____
ROOT
ATOM      1  C   UNL     1       1.625   6.385  20.623  0.00  0.00    +0.000 C 
ENDROOT
BRANCH   1   3
ATOM      2  O   UNL     1       2.410   8.037  19.068  0.00  0.00    +0.000 OA
ATOM      3  C   UNL     1       1.665   7.774  20.013  0.00  0.00    +0.000 C 
ATOM      4  N   UNL     1       0.833   8.725  20.577  0.00  0.00    +0.000 N 
ATOM      5  C   UNL     1      -0.115   8.497  21.684  0.00  0.00    +0.000 C 
ATOM      6  C   UNL     1      -0.066   9.637  22.728  0.00  0.00    +0.000 C 
ATOM      7  N   UNL     1      -0.219  10.923  22.038  0.00  0.00    +0.000 N 
ATOM      8  C   UNL     1       0.789  11.178  20.991  0.00  0.00    +0.000 C 
ATOM      9  C   UNL     1       0.736  10.051  19.948  0.00  0.00    +0.000 C 
BRANCH   7  10
ATOM     10  C   UNL     1      -0.973  11.959  22.546  0.00  0.00    +0.000 A 
ATOM     11  C   UNL     1      -0.575  13.300  22.460  0.00  0.00    +0.000 A 
ATOM     12  C   UNL     1      -1.343  14.328  23.020  0.00  0.00    +0.000 A 
ATOM     13  C   UNL     1      -2.525  14.031  23.692  0.00  0.00    +0.000 A 
ATOM     14  C   UNL     1      -2.933  12.708  23.794  0.00  0.00    +0.000 A 
ATOM     15 CL   UNL     1      -4.375  12.318  24.649  0.00  0.00    +0.000 Cl
ATOM     16  C   UNL     1      -2.170  11.687  23.226  0.00  0.00    +0.000 A 
ENDBRANCH   7  10
ENDBRANCH   1   3
BRANCH   1  17
ATOM     17  C   UNL     1       2.284   5.340  19.722  0.00  0.00    +0.000 C 
BRANCH  17  18
ATOM     18  C   UNL     1       1.447   4.064  19.657  0.00  0.00    +0.000 C 
BRANCH  18  19
ATOM     19  C   UNL     1       2.283   2.879  19.169  0.00  0.00    +0.000 C 
BRANCH  19  20
ATOM     20  N   UNL     1       3.555   3.316  18.606  0.00  0.00    +0.000 N 
ATOM     21  C   UNL     1       4.683   3.264  19.427  0.00  0.00    +0.000 A 
ATOM     22  O   UNL     1       4.666   2.860  20.589  0.00  0.00    +0.000 OA
ATOM     23  N   UNL     1       5.874   3.685  18.886  0.00  0.00    +0.000 N 
ATOM     24  C   UNL     1       5.978   4.115  17.585  0.00  0.00    +0.000 A 
ATOM     25  C   UNL     1       7.133   4.580  16.911  0.00  0.00    +0.000 A 
ATOM     26  C   UNL     1       6.844   4.924  15.604  0.00  0.00    +0.000 A 
ATOM     27  S   UNL     1       5.189   4.667  15.220  0.00  0.00    +0.000 S 
ATOM     28  C   UNL     1       4.868   4.111  16.790  0.00  0.00    +0.000 A 
ATOM     29  C   UNL     1       3.573   3.678  17.248  0.00  0.00    +0.000 A 
ATOM     30  O   UNL     1       2.576   3.610  16.531  0.00  0.00    +0.000 OA
ATOM     31  H   UNL     1       6.686   3.659  19.488  0.00  0.00    +0.000 HD
ENDBRANCH  19  20
ENDBRANCH  18  19
ENDBRANCH  17  18
ENDBRANCH   1  17
TORSDOF 6
ENDMDL
MODEL 2
REMARK VINA RESULT:      -8.1      1.284      1.373
REMARK  Name = 
REMARK  6 active torsions:
REMARK  status: ('A' for Active; 'I' for Inactive)
REMARK    1  A    between atoms: C_2  and  C_3
REMARK    2  A    between atoms: C_3  and  C_4
REMARK    3  A    between atoms: C_4  and  C_5
REMARK    4  A    between atoms: C_5  and  C_6
REMARK    5  A    between atoms: C_6  and  N_7
REMARK    6  A    between atoms: N_21  and  C_22
REMARK                            x       y       z     vdW  Elec       q    Type
REMARK                         _______ _______ _______ _____ _____    ______ ____
ROOT
ATOM      1  C   UNL     1       1.567   6.191  21.128  0.00  0.00    +0.000 C 
ENDROOT
BRANCH   1   3
ATOM      2  O   UNL     1       2.484   7.530  19.359  0.00  0.00    +0.000 OA
ATOM      3  C   UNL     1       1.666   7.443  20.275  0.00  0.00    +0.000 C 
ATOM      4  N   UNL     1       0.799   8.476  20.586  0.00  0.00    +0.000 N 
ATOM      5  C   UNL     1      -0.234   8.452  21.638  0.00  0.00    +0.000 C 
ATOM      6  C   UNL     1      -0.257   9.766  22.453  0.00  0.00    +0.000 C 
ATOM      7  N   UNL     1      -0.346  10.900  21.526  0.00  0.00    +0.000 N 
ATOM      8  C   UNL     1       0.742  10.963  20.532  0.00  0.00    +0.000 C 
ATOM      9  C   UNL     1       0.762   9.661  19.716  0.00  0.00    +0.000 C 
BRANCH   7  10
ATOM     10  C   UNL     1      -1.130  12.007  21.772  0.00  0.00    +0.000 A 
ATOM     11  C   UNL     1      -2.099  12.465  20.869  0.00  0.00    +0.000 A 
ATOM     12  C   UNL     1      -2.854  13.616  21.128  0.00  0.00    +0.000 A 
ATOM     13  C   UNL     1      -2.642  14.343  22.296  0.00  0.00    +0.000 A 
ATOM     14  C   UNL     1      -1.679  13.910  23.199  0.00  0.00    +0.000 A 
ATOM     15 CL   UNL     1      -1.380  14.814  24.634  0.00  0.00    +0.000 Cl
ATOM     16  C   UNL     1      -0.937  12.757  22.943  0.00  0.00    +0.000 A 
ENDBRANCH   7  10
ENDBRANCH   1   3
BRANCH   1  17
ATOM     17  C   UNL     1       0.936   5.024  20.369  0.00  0.00    +0.000 C 
BRANCH  17  18
ATOM     18  C   UNL     1       1.630   3.707  20.709  0.00  0.00    +0.000 C 
BRANCH  18  19
ATOM     19  C   UNL     1       2.137   3.007  19.445  0.00  0.00    +0.000 C 
BRANCH  19  20
ATOM     20  N   UNL     1       3.414   3.556  19.005  0.00  0.00    +0.000 N 
ATOM     21  C   UNL     1       4.579   3.017  19.552  0.00  0.00    +0.000 A 
ATOM     22  O   UNL     1       4.590   2.099  20.371  0.00  0.00    +0.000 OA
ATOM     23  N   UNL     1       5.775   3.548  19.132  0.00  0.00    +0.000 N 
ATOM     24  C   UNL     1       5.845   4.549  18.193  0.00  0.00    +0.000 A 
ATOM     25  C   UNL     1       7.002   5.187  17.683  0.00  0.00    +0.000 A 
ATOM     26  C   UNL     1       6.671   6.148  16.747  0.00  0.00    +0.000 A 
ATOM     27  S   UNL     1       4.973   6.250  16.499  0.00  0.00    +0.000 S 
ATOM     28  C   UNL     1       4.691   5.026  17.639  0.00  0.00    +0.000 A 
ATOM     29  C   UNL     1       3.385   4.533  17.994  0.00  0.00    +0.000 A 
ATOM     30  O   UNL     1       2.341   4.908  17.464  0.00  0.00    +0.000 OA
ATOM     31  H   UNL     1       6.617   3.164  19.541  0.00  0.00    +0.000 HD
ENDBRANCH  19  20
ENDBRANCH  18  19
ENDBRANCH  17  18
ENDBRANCH   1  17
TORSDOF 6
ENDMDL
MODEL 3
REMARK VINA RESULT:      -7.9      1.547      1.712
REMARK  Name = 
REMARK  6 active torsions:
REMARK  status: ('A' for Active; 'I' for Inactive)
REMARK    1  A    between atoms: C_2  and  C_3
REMARK    2  A    between atoms: C_3  and  C_4
REMARK    3  A    between atoms: C_4  and  C_5
REMARK    4  A    between atoms: C_5  and  C_6
REMARK    5  A    between atoms: C_6  and  N_7
REMARK    6  A    between atoms: N_21  and  C_22
REMARK                            x       y       z     vdW  Elec       q    Type
REMARK                         _______ _______ _______ _____ _____    ______ ____
ROOT
ATOM      1  C   UNL     1       1.702   7.617  20.885  0.00  0.00    +0.000 C 
ENDROOT
BRANCH   1   3
ATOM      2  O   UNL     1       1.563   8.937  18.884  0.00  0.00    +0.000 OA
ATOM      3  C   UNL     1       1.140   8.733  20.022  0.00  0.00    +0.000 C 
ATOM      4  N   UNL     1       0.140   9.509  20.583  0.00  0.00    +0.000 N 
ATOM      5  C   UNL     1      -0.454   9.321  21.920  0.00  0.00    +0.000 C 
ATOM      6  C   UNL     1      -0.625  10.663  22.668  0.00  0.00    +0.000 C 
ATOM      7  N   UNL     1      -1.342  11.604  21.800  0.00  0.00    +0.000 N 
ATOM      8  C   UNL     1      -0.693  11.852  20.499  0.00  0.00    +0.000 C 
ATOM      9  C   UNL     1      -0.529  10.520  19.750  0.00  0.00    +0.000 C 
BRANCH   7  10
ATOM     10  C   UNL     1      -2.311  12.466  22.270  0.00  0.00    +0.000 A 
ATOM     11  C   UNL     1      -2.202  13.132  23.498  0.00  0.00    +0.000 A 
ATOM     12  C   UNL     1      -3.219  13.971  23.968  0.00  0.00    +0.000 A 
ATOM     13  C   UNL     1      -4.379  14.150  23.219  0.00  0.00    +0.000 A 
ATOM     14  C   UNL     1      -4.510  13.492  22.004  0.00  0.00    +0.000 A 
ATOM     15 CL   UNL     1      -5.951  13.675  21.079  0.00  0.00    +0.000 Cl
ATOM     16  C   UNL     1      -3.489  12.665  21.534  0.00  0.00    +0.000 A 
ENDBRANCH   7  10
ENDBRANCH   1   3
BRANCH   1  17
ATOM     17  C   UNL     1       1.011   6.280  20.621  0.00  0.00    +0.000 C 
BRANCH  17  18
ATOM     18  C   UNL     1       1.951   5.110  20.903  0.00  0.00    +0.000 C 
BRANCH  18  19
ATOM     19  C   UNL     1       2.096   4.210  19.674  0.00  0.00    +0.000 C 
BRANCH  19  20
ATOM     20  N   UNL     1       3.427   4.317  19.087  0.00  0.00    +0.000 N 
ATOM     21  C   UNL     1       4.382   3.368  19.458  0.00  0.00    +0.000 A 
ATOM     22  O   UNL     1       4.160   2.443  20.239  0.00  0.00    +0.000 OA
ATOM     23  N   UNL     1       5.633   3.484  18.901  0.00  0.00    +0.000 N 
ATOM     24  C   UNL     1       5.944   4.468  17.994  0.00  0.00    +0.000 A 
ATOM     25  C   UNL     1       7.186   4.705  17.356  0.00  0.00    +0.000 A 
ATOM     26  C   UNL     1       7.112   5.789  16.504  0.00  0.00    +0.000 A 
ATOM     27  S   UNL     1       5.542   6.490  16.485  0.00  0.00    +0.000 S 
ATOM     28  C   UNL     1       4.977   5.355  17.612  0.00  0.00    +0.000 A 
ATOM     29  C   UNL     1       3.630   5.317  18.120  0.00  0.00    +0.000 A 
ATOM     30  O   UNL     1       2.732   6.068  17.745  0.00  0.00    +0.000 OA
ATOM     31  H   UNL     1       6.325   2.804  19.183  0.00  0.00    +0.000 HD
ENDBRANCH  19  20
ENDBRANCH  18  19
ENDBRANCH  17  18
ENDBRANCH   1  17
TORSDOF 6
ENDMDL
MODEL 4
REMARK VINA RESULT:      -7.9      4.644     10.329
REMARK  Name = 
REMARK  6 active torsions:
REMARK  status: ('A' for Active; 'I' for Inactive)
REMARK    1  A    between atoms: C_2  and  C_3
REMARK    2  A    between atoms: C_3  and  C_4
REMARK    3  A    between atoms: C_4  and  C_5
REMARK    4  A    between atoms: C_5  and  C_6
REMARK    5  A    between atoms: C_6  and  N_7
REMARK    6  A    between atoms: N_21  and  C_22
REMARK                            x       y       z     vdW  Elec       q    Type
REMARK                         _______ _______ _______ _____ _____    ______ ____
ROOT
ATOM      1  C   UNL     1       1.958   7.878  20.156  0.00  0.00    +0.000 C 
ENDROOT
BRANCH   1   3
ATOM      2  O   UNL     1       1.797   5.521  20.582  0.00  0.00    +0.000 OA
ATOM      3  C   UNL     1       2.193   6.413  19.832  0.00  0.00    +0.000 C 
ATOM      4  N   UNL     1       2.878   6.137  18.661  0.00  0.00    +0.000 N 
ATOM      5  C   UNL     1       3.359   7.133  17.686  0.00  0.00    +0.000 C 
ATOM      6  C   UNL     1       4.795   6.822  17.206  0.00  0.00    +0.000 C 
ATOM      7  N   UNL     1       4.853   5.429  16.747  0.00  0.00    +0.000 N 
ATOM      8  C   UNL     1       4.453   4.435  17.761  0.00  0.00    +0.000 C 
ATOM      9  C   UNL     1       3.022   4.738  18.233  0.00  0.00    +0.000 C 
BRANCH   7  10
ATOM     10  C   UNL     1       5.560   5.038  15.630  0.00  0.00    +0.000 A 
ATOM     11  C   UNL     1       6.928   5.300  15.468  0.00  0.00    +0.000 A 
ATOM     12  C   UNL     1       7.611   4.926  14.305  0.00  0.00    +0.000 A 
ATOM     13  C   UNL     1       6.933   4.290  13.269  0.00  0.00    +0.000 A 
ATOM     14  C   UNL     1       5.576   4.029  13.407  0.00  0.00    +0.000 A 
ATOM     15 CL   UNL     1       4.713   3.273  12.124  0.00  0.00    +0.000 Cl
ATOM     16  C   UNL     1       4.901   4.394  14.572  0.00  0.00    +0.000 A 
ENDBRANCH   7  10
ENDBRANCH   1   3
BRANCH   1  17
ATOM     17  C   UNL     1       0.890   8.067  21.232  0.00  0.00    +0.000 C 
BRANCH  17  18
ATOM     18  C   UNL     1       0.662   9.548  21.527  0.00  0.00    +0.000 C 
BRANCH  18  19
ATOM     19  C   UNL     1       0.872  10.400  20.272  0.00  0.00    +0.000 C 
BRANCH  19  20
ATOM     20  N   UNL     1      -0.397  10.760  19.651  0.00  0.00    +0.000 N 
ATOM     21  C   UNL     1      -1.228  11.650  20.333  0.00  0.00    +0.000 A 
ATOM     22  O   UNL     1      -0.945  12.155  21.419  0.00  0.00    +0.000 OA
ATOM     23  N   UNL     1      -2.424  11.975  19.738  0.00  0.00    +0.000 N 
ATOM     24  C   UNL     1      -2.792  11.480  18.512  0.00  0.00    +0.000 A 
ATOM     25  C   UNL     1      -3.989  11.725  17.796  0.00  0.00    +0.000 A 
ATOM     26  C   UNL     1      -3.999  11.049  16.591  0.00  0.00    +0.000 A 
ATOM     27  S   UNL     1      -2.559  10.143  16.347  0.00  0.00    +0.000 S 
ATOM     28  C   UNL     1      -1.939  10.648  17.844  0.00  0.00    +0.000 A 
ATOM     29  C   UNL     1      -0.656  10.252  18.365  0.00  0.00    +0.000 A 
ATOM     30  O   UNL     1       0.150   9.553  17.754  0.00  0.00    +0.000 OA
ATOM     31  H   UNL     1      -3.029  12.609  20.242  0.00  0.00    +0.000 HD
ENDBRANCH  19  20
ENDBRANCH  18  19
ENDBRANCH  17  18
ENDBRANCH   1  17
TORSDOF 6
ENDMDL
MODEL 5
REMARK VINA RESULT:      -7.8      5.210     10.990
REMARK  Name = 
REMARK  6 active torsions:
REMARK  status: ('A' for Active; 'I' for Inactive)
REMARK    1  A    between atoms: C_2  and  C_3
REMARK    2  A    between atoms: C_3  and  C_4
REMARK    3  A    between atoms: C_4  and  C_5
REMARK    4  A    between atoms: C_5  and  C_6
REMARK    5  A    between atoms: C_6  and  N_7
REMARK    6  A    between atoms: N_21  and  C_22
REMARK                            x       y       z     vdW  Elec       q    Type
REMARK                         _______ _______ _______ _____ _____    ______ ____
ROOT
ATOM      1  C   UNL     1      -0.526  10.231  21.400  0.00  0.00    +0.000 C 
ENDROOT
BRANCH   1   3
ATOM      2  O   UNL     1      -0.312  11.038  19.149  0.00  0.00    +0.000 OA
ATOM      3  C   UNL     1       0.087  10.255  20.011  0.00  0.00    +0.000 C 
ATOM      4  N   UNL     1       1.105   9.350  19.765  0.00  0.00    +0.000 N 
ATOM      5  C   UNL     1       1.672   8.400  20.740  0.00  0.00    +0.000 C 
ATOM      6  C   UNL     1       1.878   6.996  20.125  0.00  0.00    +0.000 C 
ATOM      7  N   UNL     1       2.640   7.130  18.877  0.00  0.00    +0.000 N 
ATOM      8  C   UNL     1       2.019   8.015  17.874  0.00  0.00    +0.000 C 
ATOM      9  C   UNL     1       1.821   9.413  18.482  0.00  0.00    +0.000 C 
BRANCH   7  10
ATOM     10  C   UNL     1       3.630   6.246  18.507  0.00  0.00    +0.000 A 
ATOM     11  C   UNL     1       4.252   5.380  19.417  0.00  0.00    +0.000 A 
ATOM     12  C   UNL     1       5.283   4.519  19.021  0.00  0.00    +0.000 A 
ATOM     13  C   UNL     1       5.723   4.518  17.700  0.00  0.00    +0.000 A 
ATOM     14  C   UNL     1       5.125   5.374  16.785  0.00  0.00    +0.000 A 
ATOM     15 CL   UNL     1       5.678   5.410  15.155  0.00  0.00    +0.000 Cl
ATOM     16  C   UNL     1       4.092   6.222  17.182  0.00  0.00    +0.000 A 
ENDBRANCH   7  10
ENDBRANCH   1   3
BRANCH   1  17
ATOM     17  C   UNL     1      -0.493  11.605  22.068  0.00  0.00    +0.000 C 
BRANCH  17  18
ATOM     18  C   UNL     1      -1.680  11.785  23.013  0.00  0.00    +0.000 C 
BRANCH  18  19
ATOM     19  C   UNL     1      -2.440  13.077  22.706  0.00  0.00    +0.000 C 
BRANCH  19  20
ATOM     20  N   UNL     1      -3.753  12.804  22.135  0.00  0.00    +0.000 N 
ATOM     21  C   UNL     1      -4.837  12.709  23.009  0.00  0.00    +0.000 A 
ATOM     22  O   UNL     1      -4.749  12.855  24.228  0.00  0.00    +0.000 OA
ATOM     23  N   UNL     1      -6.068  12.444  22.458  0.00  0.00    +0.000 N 
ATOM     24  C   UNL     1      -6.252  12.304  21.104  0.00  0.00    +0.000 A 
ATOM     25  C   UNL     1      -7.455  12.024  20.411  0.00  0.00    +0.000 A 
ATOM     26  C   UNL     1      -7.243  11.960  19.047  0.00  0.00    +0.000 A 
ATOM     27  S   UNL     1      -5.599  12.249  18.635  0.00  0.00    +0.000 S 
ATOM     28  C   UNL     1      -5.182  12.449  20.267  0.00  0.00    +0.000 A 
ATOM     29  C   UNL     1      -3.851  12.741  20.734  0.00  0.00    +0.000 A 
ATOM     30  O   UNL     1      -2.888  12.933  19.993  0.00  0.00    +0.000 OA
ATOM     31  H   UNL     1      -6.849  12.362  23.096  0.00  0.00    +0.000 HD
ENDBRANCH  19  20
ENDBRANCH  18  19
ENDBRANCH  17  18
ENDBRANCH   1  17
TORSDOF 6
ENDMDL
MODEL 6
REMARK VINA RESULT:      -7.8      4.868     10.460
REMARK  Name = 
REMARK  6 active torsions:
REMARK  status: ('A' for Active; 'I' for Inactive)
REMARK    1  A    between atoms: C_2  and  C_3
REMARK    2  A    between atoms: C_3  and  C_4
REMARK    3  A    between atoms: C_4  and  C_5
REMARK    4  A    between atoms: C_5  and  C_6
REMARK    5  A    between atoms: C_6  and  N_7
REMARK    6  A    between atoms: N_21  and  C_22
REMARK                            x       y       z     vdW  Elec       q    Type
REMARK                         _______ _______ _______ _____ _____    ______ ____
ROOT
ATOM      1  C   UNL     1       2.655   6.925  20.034  0.00  0.00    +0.000 C 
ENDROOT
BRANCH   1   3
ATOM      2  O   UNL     1       1.996   4.623  19.859  0.00  0.00    +0.000 OA
ATOM      3  C   UNL     1       2.584   5.574  19.344  0.00  0.00    +0.000 C 
ATOM      4  N   UNL     1       3.217   5.469  18.118  0.00  0.00    +0.000 N 
ATOM      5  C   UNL     1       3.914   6.558  17.408  0.00  0.00    +0.000 C 
ATOM      6  C   UNL     1       5.262   6.088  16.815  0.00  0.00    +0.000 C 
ATOM      7  N   UNL     1       5.036   4.876  16.019  0.00  0.00    +0.000 N 
ATOM      8  C   UNL     1       4.418   3.762  16.762  0.00  0.00    +0.000 C 
ATOM      9  C   UNL     1       3.073   4.226  17.346  0.00  0.00    +0.000 C 
BRANCH   7  10
ATOM     10  C   UNL     1       5.667   4.644  14.815  0.00  0.00    +0.000 A 
ATOM     11  C   UNL     1       5.194   3.714  13.878  0.00  0.00    +0.000 A 
ATOM     12  C   UNL     1       5.877   3.471  12.680  0.00  0.00    +0.000 A 
ATOM     13  C   UNL     1       7.061   4.148  12.401  0.00  0.00    +0.000 A 
ATOM     14  C   UNL     1       7.550   5.067  13.320  0.00  0.00    +0.000 A 
ATOM     15 CL   UNL     1       9.029   5.890  13.006  0.00  0.00    +0.000 Cl
ATOM     16  C   UNL     1       6.861   5.314  14.507  0.00  0.00    +0.000 A 
ENDBRANCH   7  10
ENDBRANCH   1   3
BRANCH   1  17
ATOM     17  C   UNL     1       1.299   7.361  20.590  0.00  0.00    +0.000 C 
BRANCH  17  18
ATOM     18  C   UNL     1       1.267   8.867  20.842  0.00  0.00    +0.000 C 
BRANCH  18  19
ATOM     19  C   UNL     1       0.421   9.586  19.789  0.00  0.00    +0.000 C 
BRANCH  19  20
ATOM     20  N   UNL     1       1.082  10.791  19.303  0.00  0.00    +0.000 N 
ATOM     21  C   UNL     1       1.852  10.689  18.142  0.00  0.00    +0.000 A 
ATOM     22  O   UNL     1       1.993   9.647  17.504  0.00  0.00    +0.000 OA
ATOM     23  N   UNL     1       2.474  11.832  17.699  0.00  0.00    +0.000 N 
ATOM     24  C   UNL     1       2.335  13.039  18.338  0.00  0.00    +0.000 A 
ATOM     25  C   UNL     1       2.923  14.281  17.995  0.00  0.00    +0.000 A 
ATOM     26  C   UNL     1       2.544  15.274  18.877  0.00  0.00    +0.000 A 
ATOM     27  S   UNL     1       1.480  14.688  20.093  0.00  0.00    +0.000 S 
ATOM     28  C   UNL     1       1.536  13.121  19.444  0.00  0.00    +0.000 A 
ATOM     29  C   UNL     1       0.827  11.992  19.987  0.00  0.00    +0.000 A 
ATOM     30  O   UNL     1       0.058  12.058  20.945  0.00  0.00    +0.000 OA
ATOM     31  H   UNL     1       3.043  11.751  16.866  0.00  0.00    +0.000 HD
ENDBRANCH  19  20
ENDBRANCH  18  19
ENDBRANCH  17  18
ENDBRANCH   1  17
TORSDOF 6
ENDMDL
MODEL 7
REMARK VINA RESULT:      -7.8      2.115      3.344
REMARK  Name = 
REMARK  6 active torsions:
REMARK  status: ('A' for Active; 'I' for Inactive)
REMARK    1  A    between atoms: C_2  and  C_3
REMARK    2  A    between atoms: C_3  and  C_4
REMARK    3  A    between atoms: C_4  and  C_5
REMARK    4  A    between atoms: C_5  and  C_6
REMARK    5  A    between atoms: C_6  and  N_7
REMARK    6  A    between atoms: N_21  and  C_22
REMARK                            x       y       z     vdW  Elec       q    Type
REMARK                         _______ _______ _______ _____ _____    ______ ____
ROOT
ATOM      1  C   UNL     1       3.046   7.486  17.786  0.00  0.00    +0.000 C 
ENDROOT
BRANCH   1   3
ATOM      2  O   UNL     1       2.539   6.558  19.942  0.00  0.00    +0.000 OA
ATOM      3  C   UNL     1       2.425   7.512  19.172  0.00  0.00    +0.000 C 
ATOM      4  N   UNL     1       1.723   8.653  19.517  0.00  0.00    +0.000 N 
ATOM      5  C   UNL     1       1.562   9.856  18.679  0.00  0.00    +0.000 C 
ATOM      6  C   UNL     1       0.109  10.384  18.702  0.00  0.00    +0.000 C 
ATOM      7  N   UNL     1      -0.319  10.541  20.098  0.00  0.00    +0.000 N 
ATOM      8  C   UNL     1      -0.236   9.309  20.904  0.00  0.00    +0.000 C 
ATOM      9  C   UNL     1       1.210   8.787  20.889  0.00  0.00    +0.000 C 
BRANCH   7  10
ATOM     10  C   UNL     1      -1.076  11.608  20.532  0.00  0.00    +0.000 A 
ATOM     11  C   UNL     1      -1.204  12.795  19.799  0.00  0.00    +0.000 A 
ATOM     12  C   UNL     1      -1.948  13.878  20.284  0.00  0.00    +0.000 A 
ATOM     13  C   UNL     1      -2.572  13.797  21.526  0.00  0.00    +0.000 A 
ATOM     14  C   UNL     1      -2.450  12.632  22.271  0.00  0.00    +0.000 A 
ATOM     15 CL   UNL     1      -3.187  12.525  23.824  0.00  0.00    +0.000 Cl
ATOM     16  C   UNL     1      -1.717  11.552  21.780  0.00  0.00    +0.000 A 
ENDBRANCH   7  10
ENDBRANCH   1   3
BRANCH   1  17
ATOM     17  C   UNL     1       4.354   6.696  17.755  0.00  0.00    +0.000 C 
BRANCH  17  18
ATOM     18  C   UNL     1       4.565   6.036  16.394  0.00  0.00    +0.000 C 
BRANCH  18  19
ATOM     19  C   UNL     1       4.749   4.524  16.536  0.00  0.00    +0.000 C 
BRANCH  19  20
ATOM     20  N   UNL     1       4.251   4.041  17.818  0.00  0.00    +0.000 N 
ATOM     21  C   UNL     1       5.155   3.954  18.878  0.00  0.00    +0.000 A 
ATOM     22  O   UNL     1       6.341   4.272  18.795  0.00  0.00    +0.000 OA
ATOM     23  N   UNL     1       4.673   3.492  20.080  0.00  0.00    +0.000 N 
ATOM     24  C   UNL     1       3.354   3.152  20.260  0.00  0.00    +0.000 A 
ATOM     25  C   UNL     1       2.733   2.658  21.433  0.00  0.00    +0.000 A 
ATOM     26  C   UNL     1       1.386   2.432  21.228  0.00  0.00    +0.000 A 
ATOM     27  S   UNL     1       0.900   2.831  19.628  0.00  0.00    +0.000 S 
ATOM     28  C   UNL     1       2.481   3.292  19.219  0.00  0.00    +0.000 A 
ATOM     29  C   UNL     1       2.873   3.779  17.922  0.00  0.00    +0.000 A 
ATOM     30  O   UNL     1       2.092   3.968  16.992  0.00  0.00    +0.000 OA
ATOM     31  H   UNL     1       5.334   3.417  20.841  0.00  0.00    +0.000 HD
ENDBRANCH  19  20
ENDBRANCH  18  19
ENDBRANCH  17  18
ENDBRANCH   1  17
TORSDOF 6
ENDMDL
MODEL 8
REMARK VINA RESULT:      -7.8      4.494     10.638
REMARK  Name = 
REMARK  6 active torsions:
REMARK  status: ('A' for Active; 'I' for Inactive)
REMARK    1  A    between atoms: C_2  and  C_3
REMARK    2  A    between atoms: C_3  and  C_4
REMARK    3  A    between atoms: C_4  and  C_5
REMARK    4  A    between atoms: C_5  and  C_6
REMARK    5  A    between atoms: C_6  and  N_7
REMARK    6  A    between atoms: N_21  and  C_22
REMARK                            x       y       z     vdW  Elec       q    Type
REMARK                         _______ _______ _______ _____ _____    ______ ____
ROOT
ATOM      1  C   UNL     1       0.980   6.455  20.607  0.00  0.00    +0.000 C 
ENDROOT
BRANCH   1   3
ATOM      2  O   UNL     1       2.224   4.634  21.555  0.00  0.00    +0.000 OA
ATOM      3  C   UNL     1       2.019   5.348  20.574  0.00  0.00    +0.000 C 
ATOM      4  N   UNL     1       2.724   5.193  19.393  0.00  0.00    +0.000 N 
ATOM      5  C   UNL     1       2.526   5.974  18.158  0.00  0.00    +0.000 C 
ATOM      6  C   UNL     1       3.870   6.398  17.523  0.00  0.00    +0.000 C 
ATOM      7  N   UNL     1       4.723   5.213  17.375  0.00  0.00    +0.000 N 
ATOM      8  C   UNL     1       4.986   4.488  18.632  0.00  0.00    +0.000 C 
ATOM      9  C   UNL     1       3.651   4.059  19.260  0.00  0.00    +0.000 C 
BRANCH   7  10
ATOM     10  C   UNL     1       5.513   4.994  16.266  0.00  0.00    +0.000 A 
ATOM     11  C   UNL     1       6.857   5.387  16.204  0.00  0.00    +0.000 A 
ATOM     12  C   UNL     1       7.625   5.187  15.051  0.00  0.00    +0.000 A 
ATOM     13  C   UNL     1       7.055   4.599  13.925  0.00  0.00    +0.000 A 
ATOM     14  C   UNL     1       5.723   4.210  13.964  0.00  0.00    +0.000 A 
ATOM     15 CL   UNL     1       4.992   3.511  12.571  0.00  0.00    +0.000 Cl
ATOM     16  C   UNL     1       4.964   4.402  15.118  0.00  0.00    +0.000 A 
ENDBRANCH   7  10
ENDBRANCH   1   3
BRANCH   1  17
ATOM     17  C   UNL     1       1.590   7.810  20.963  0.00  0.00    +0.000 C 
BRANCH  17  18
ATOM     18  C   UNL     1       0.848   8.948  20.266  0.00  0.00    +0.000 C 
BRANCH  18  19
ATOM     19  C   UNL     1       1.133  10.290  20.943  0.00  0.00    +0.000 C 
BRANCH  19  20
ATOM     20  N   UNL     1      -0.076  10.868  21.517  0.00  0.00    +0.000 N 
ATOM     21  C   UNL     1      -0.400  10.530  22.833  0.00  0.00    +0.000 A 
ATOM     22  O   UNL     1       0.283   9.787  23.536  0.00  0.00    +0.000 OA
ATOM     23  N   UNL     1      -1.546  11.078  23.359  0.00  0.00    +0.000 N 
ATOM     24  C   UNL     1      -2.339  11.945  22.647  0.00  0.00    +0.000 A 
ATOM     25  C   UNL     1      -3.541  12.568  23.063  0.00  0.00    +0.000 A 
ATOM     26  C   UNL     1      -4.053  13.378  22.068  0.00  0.00    +0.000 A 
ATOM     27  S   UNL     1      -3.067  13.376  20.661  0.00  0.00    +0.000 S 
ATOM     28  C   UNL     1      -1.974  12.295  21.378  0.00  0.00    +0.000 A 
ATOM     29  C   UNL     1      -0.787  11.795  20.734  0.00  0.00    +0.000 A 
ATOM     30  O   UNL     1      -0.411  12.144  19.617  0.00  0.00    +0.000 OA
ATOM     31  H   UNL     1      -1.784  10.820  24.307  0.00  0.00    +0.000 HD
ENDBRANCH  19  20
ENDBRANCH  18  19
ENDBRANCH  17  18
ENDBRANCH   1  17
TORSDOF 6
ENDMDL
MODEL 9
REMARK VINA RESULT:      -7.7      2.389      3.603
REMARK  Name = 
REMARK  6 active torsions:
REMARK  status: ('A' for Active; 'I' for Inactive)
REMARK    1  A    between atoms: C_2  and  C_3
REMARK    2  A    between atoms: C_3  and  C_4
REMARK    3  A    between atoms: C_4  and  C_5
REMARK    4  A    between atoms: C_5  and  C_6
REMARK    5  A    between atoms: C_6  and  N_7
REMARK    6  A    between atoms: N_21  and  C_22
REMARK                            x       y       z     vdW  Elec       q    Type
REMARK                         _______ _______ _______ _____ _____    ______ ____
ROOT
ATOM      1  C   UNL     1       3.174   7.208  17.523  0.00  0.00    +0.000 C 
ENDROOT
BRANCH   1   3
ATOM      2  O   UNL     1       2.783   6.437  19.763  0.00  0.00    +0.000 OA
ATOM      3  C   UNL     1       2.608   7.324  18.928  0.00  0.00    +0.000 C 
ATOM      4  N   UNL     1       1.884   8.468  19.213  0.00  0.00    +0.000 N 
ATOM      5  C   UNL     1       1.650   9.597  18.292  0.00  0.00    +0.000 C 
ATOM      6  C   UNL     1       0.183  10.082  18.336  0.00  0.00    +0.000 C 
ATOM      7  N   UNL     1      -0.194  10.335  19.732  0.00  0.00    +0.000 N 
ATOM      8  C   UNL     1      -0.039   9.173  20.627  0.00  0.00    +0.000 C 
ATOM      9  C   UNL     1       1.421   8.694  20.591  0.00  0.00    +0.000 C 
BRANCH   7  10
ATOM     10  C   UNL     1      -0.967  11.410  20.115  0.00  0.00    +0.000 A 
ATOM     11  C   UNL     1      -0.510  12.397  20.999  0.00  0.00    +0.000 A 
ATOM     12  C   UNL     1      -1.332  13.457  21.401  0.00  0.00    +0.000 A 
ATOM     13  C   UNL     1      -2.639  13.544  20.932  0.00  0.00    +0.000 A 
ATOM     14  C   UNL     1      -3.114  12.571  20.062  0.00  0.00    +0.000 A 
ATOM     15 CL   UNL     1      -4.739  12.644  19.498  0.00  0.00    +0.000 Cl
ATOM     16  C   UNL     1      -2.289  11.523  19.656  0.00  0.00    +0.000 A 
ENDBRANCH   7  10
ENDBRANCH   1   3
BRANCH   1  17
ATOM     17  C   UNL     1       4.518   6.481  17.501  0.00  0.00    +0.000 C 
BRANCH  17  18
ATOM     18  C   UNL     1       4.695   5.693  16.205  0.00  0.00    +0.000 C 
BRANCH  18  19
ATOM     19  C   UNL     1       4.876   4.200  16.485  0.00  0.00    +0.000 C 
BRANCH  19  20
ATOM     20  N   UNL     1       4.324   3.828  17.782  0.00  0.00    +0.000 N 
ATOM     21  C   UNL     1       5.179   3.852  18.886  0.00  0.00    +0.000 A 
ATOM     22  O   UNL     1       6.363   4.181  18.828  0.00  0.00    +0.000 OA
ATOM     23  N   UNL     1       4.646   3.493  20.101  0.00  0.00    +0.000 N 
ATOM     24  C   UNL     1       3.324   3.149  20.251  0.00  0.00    +0.000 A 
ATOM     25  C   UNL     1       2.655   2.753  21.435  0.00  0.00    +0.000 A 
ATOM     26  C   UNL     1       1.322   2.488  21.190  0.00  0.00    +0.000 A 
ATOM     27  S   UNL     1       0.907   2.732  19.540  0.00  0.00    +0.000 S 
ATOM     28  C   UNL     1       2.499   3.180  19.163  0.00  0.00    +0.000 A 
ATOM     29  C   UNL     1       2.946   3.554  17.846  0.00  0.00    +0.000 A 
ATOM     30  O   UNL     1       2.207   3.645  16.868  0.00  0.00    +0.000 OA
ATOM     31  H   UNL     1       5.271   3.498  20.896  0.00  0.00    +0.000 HD
ENDBRANCH  19  20
ENDBRANCH  18  19
ENDBRANCH  17  18
ENDBRANCH   1  17
TORSDOF 6
ENDMDL
