MODEL 1
REMARK VINA RESULT:      -8.9      0.000      0.000
REMARK  Name = 
REMARK  15 active torsions:
REMARK  status: ('A' for Active; 'I' for Inactive)
REMARK    1  A    between atoms: C_1  and  O_2
REMARK    2  A    between atoms: O_2  and  C_3
REMARK    3  A    between atoms: C_5  and  C_6
REMARK    4  A    between atoms: C_7  and  C_8
REMARK    5  A    between atoms: C_11  and  N_12
REMARK    6  A    between atoms: N_12  and  C_13
REMARK    7  A    between atoms: C_13  and  C_14
REMARK    8  A    between atoms: C_16  and  N_17
REMARK    9  A    between atoms: N_17  and  C_18
REMARK   10  A    between atoms: C_18  and  C_19
REMARK   11  A    between atoms: C_19  and  C_20
REMARK   12  A    between atoms: C_19  and  C_21
REMARK   13  A    between atoms: C_24  and  O_25
REMARK   14  A    between atoms: C_29  and  O_30
REMARK   15  A    between atoms: O_30  and  C_31
REMARK                            x       y       z     vdW  Elec       q    Type
REMARK                         _______ _______ _______ _____ _____    ______ ____
ROOT
ATOM      1  C   UNL     1       7.606   7.414  17.792  0.00  0.00    +0.000 A 
ATOM      2  C   UNL     1       6.511   7.369  16.932  0.00  0.00    +0.000 A 
ATOM      3  C   UNL     1       5.743   6.208  16.836  0.00  0.00    +0.000 A 
ATOM      4  C   UNL     1       6.074   5.058  17.559  0.00  0.00    +0.000 A 
ATOM      5  C   UNL     1       7.146   5.136  18.459  0.00  0.00    +0.000 A 
ATOM      6  C   UNL     1       7.917   6.300  18.571  0.00  0.00    +0.000 A 
ENDROOT
BRANCH   1   8
ATOM      7  C   UNL     1       8.639   9.205  19.075  0.00  0.00    +0.000 C 
ATOM      8  C   UNL     1       8.390   8.639  17.884  0.00  0.00    +0.000 C 
BRANCH   7  11
ATOM      9  C   UNL     1      10.048  12.290  20.699  0.00  0.00    +0.000 A 
ATOM     10  C   UNL     1       9.299  11.135  20.466  0.00  0.00    +0.000 A 
ATOM     11  C   UNL     1       9.397  10.447  19.252  0.00  0.00    +0.000 A 
ATOM     12  C   UNL     1      10.275  10.933  18.275  0.00  0.00    +0.000 A 
ATOM     13  C   UNL     1      11.031  12.085  18.498  0.00  0.00    +0.000 A 
ATOM     14  C   UNL     1      10.911  12.767  19.710  0.00  0.00    +0.000 A 
BRANCH   9  16
ATOM     15  C   UNL     1       8.791  12.327  22.718  0.00  0.00    +0.000 C 
ATOM     16  O   UNL     1       9.857  12.849  21.934  0.00  0.00    +0.000 OA
ENDBRANCH   9  16
BRANCH  13  17
ATOM     17  O   UNL     1      11.852  12.431  17.459  0.00  0.00    +0.000 OA
ATOM     18  C   UNL     1      11.384  13.439  16.574  0.00  0.00    +0.000 C 
ENDBRANCH  13  17
ENDBRANCH   7  11
ENDBRANCH   1   8
BRANCH   4  19
ATOM     19  N   UNL     1       5.339   3.870  17.514  0.00  0.00    +0.000 N 
ATOM     20  H   UNL     1       5.499   3.335  18.363  0.00  0.00    +0.000 HD
BRANCH  19  21
ATOM     21  C   UNL     1       3.909   3.919  17.182  0.00  0.00    +0.000 C 
BRANCH  21  22
ATOM     22  C   UNL     1       3.057   3.933  18.430  0.00  0.00    +0.000 A 
ATOM     23  C   UNL     1       2.724   5.138  19.073  0.00  0.00    +0.000 A 
ATOM     24  C   UNL     1       1.985   5.164  20.265  0.00  0.00    +0.000 A 
ATOM     25  C   UNL     1       1.485   3.951  20.751  0.00  0.00    +0.000 A 
ATOM     26  C   UNL     1       1.765   2.745  20.107  0.00  0.00    +0.000 A 
ATOM     27  C   UNL     1       2.545   2.742  18.955  0.00  0.00    +0.000 A 
BRANCH  24  28
ATOM     28  N   UNL     1       1.685   6.407  20.844  0.00  0.00    +0.000 N 
ATOM     29  H   UNL     1       0.733   6.409  21.206  0.00  0.00    +0.000 HD
BRANCH  28  30
ATOM     30  C   UNL     1       1.964   7.599  20.047  0.00  0.00    +0.000 C 
BRANCH  30  31
ATOM     31  C   UNL     1       1.209   8.812  20.618  0.00  0.00    +0.000 C 
ATOM     32  C   UNL     1       0.724   9.749  19.508  0.00  0.00    +0.000 C 
ATOM     33  C   UNL     1       0.019   8.331  21.449  0.00  0.00    +0.000 C 
ENDBRANCH  30  31
ENDBRANCH  28  30
ENDBRANCH  24  28
BRANCH  27  34
ATOM     34  O   UNL     1       2.807   1.562  18.316  0.00  0.00    +0.000 OA
ATOM     35  H   UNL     1       2.220   0.877  18.676  0.00  0.00    +0.000 HD
ENDBRANCH  27  34
ENDBRANCH  21  22
ENDBRANCH  19  21
ENDBRANCH   4  19
TORSDOF 11
ENDMDL
MODEL 2
REMARK VINA RESULT:      -8.5      0.899      2.292
REMARK  Name = 
REMARK  15 active torsions:
REMARK  status: ('A' for Active; 'I' for Inactive)
REMARK    1  A    between atoms: C_1  and  O_2
REMARK    2  A    between atoms: O_2  and  C_3
REMARK    3  A    between atoms: C_5  and  C_6
REMARK    4  A    between atoms: C_7  and  C_8
REMARK    5  A    between atoms: C_11  and  N_12
REMARK    6  A    between atoms: N_12  and  C_13
REMARK    7  A    between atoms: C_13  and  C_14
REMARK    8  A    between atoms: C_16  and  N_17
REMARK    9  A    between atoms: N_17  and  C_18
REMARK   10  A    between atoms: C_18  and  C_19
REMARK   11  A    between atoms: C_19  and  C_20
REMARK   12  A    between atoms: C_19  and  C_21
REMARK   13  A    between atoms: C_24  and  O_25
REMARK   14  A    between atoms: C_29  and  O_30
REMARK   15  A    between atoms: O_30  and  C_31
REMARK                            x       y       z     vdW  Elec       q    Type
REMARK                         _______ _______ _______ _____ _____    ______ ____
ROOT
ATOM      1  C   UNL     1       7.708   7.684  17.799  0.00  0.00    +0.000 A 
ATOM      2  C   UNL     1       6.690   7.438  16.880  0.00  0.00    +0.000 A 
ATOM      3  C   UNL     1       6.101   6.175  16.809  0.00  0.00    +0.000 A 
ATOM      4  C   UNL     1       6.540   5.124  17.617  0.00  0.00    +0.000 A 
ATOM      5  C   UNL     1       7.528   5.400  18.573  0.00  0.00    +0.000 A 
ATOM      6  C   UNL     1       8.118   6.667  18.660  0.00  0.00    +0.000 A 
ENDROOT
BRANCH   1   8
ATOM      7  C   UNL     1       8.875   9.452  18.996  0.00  0.00    +0.000 C 
ATOM      8  C   UNL     1       8.305   9.012  17.863  0.00  0.00    +0.000 C 
BRANCH   7  11
ATOM      9  C   UNL     1      10.491  12.729  18.110  0.00  0.00    +0.000 A 
ATOM     10  C   UNL     1       9.966  11.438  18.018  0.00  0.00    +0.000 A 
ATOM     11  C   UNL     1       9.474  10.781  19.151  0.00  0.00    +0.000 A 
ATOM     12  C   UNL     1       9.505  11.449  20.381  0.00  0.00    +0.000 A 
ATOM     13  C   UNL     1      10.024  12.740  20.484  0.00  0.00    +0.000 A 
ATOM     14  C   UNL     1      10.524  13.377  19.346  0.00  0.00    +0.000 A 
BRANCH   9  16
ATOM     15  C   UNL     1      12.332  13.346  16.736  0.00  0.00    +0.000 C 
ATOM     16  O   UNL     1      10.925  13.249  16.920  0.00  0.00    +0.000 OA
ENDBRANCH   9  16
BRANCH  13  17
ATOM     17  O   UNL     1       9.977  13.269  21.745  0.00  0.00    +0.000 OA
ATOM     18  C   UNL     1      10.003  14.685  21.854  0.00  0.00    +0.000 C 
ENDBRANCH  13  17
ENDBRANCH   7  11
ENDBRANCH   1   8
BRANCH   4  19
ATOM     19  N   UNL     1       5.983   3.841  17.600  0.00  0.00    +0.000 N 
ATOM     20  H   UNL     1       6.254   3.338  18.442  0.00  0.00    +0.000 HD
BRANCH  19  21
ATOM     21  C   UNL     1       4.549   3.682  17.328  0.00  0.00    +0.000 C 
BRANCH  21  22
ATOM     22  C   UNL     1       3.724   3.932  18.569  0.00  0.00    +0.000 A 
ATOM     23  C   UNL     1       2.992   5.120  18.732  0.00  0.00    +0.000 A 
ATOM     24  C   UNL     1       2.271   5.394  19.904  0.00  0.00    +0.000 A 
ATOM     25  C   UNL     1       2.205   4.393  20.880  0.00  0.00    +0.000 A 
ATOM     26  C   UNL     1       2.888   3.186  20.723  0.00  0.00    +0.000 A 
ATOM     27  C   UNL     1       3.640   2.962  19.574  0.00  0.00    +0.000 A 
BRANCH  24  28
ATOM     28  N   UNL     1       1.557   6.599  19.988  0.00  0.00    +0.000 N 
ATOM     29  H   UNL     1       1.589   7.094  19.100  0.00  0.00    +0.000 HD
BRANCH  28  30
ATOM     30  C   UNL     1       1.864   7.480  21.112  0.00  0.00    +0.000 C 
BRANCH  30  31
ATOM     31  C   UNL     1       1.145   8.830  20.944  0.00  0.00    +0.000 C 
ATOM     32  C   UNL     1       1.074   9.253  19.474  0.00  0.00    +0.000 C 
ATOM     33  C   UNL     1      -0.265   8.736  21.528  0.00  0.00    +0.000 C 
ENDBRANCH  30  31
ENDBRANCH  28  30
ENDBRANCH  24  28
BRANCH  27  34
ATOM     34  O   UNL     1       4.297   1.774  19.414  0.00  0.00    +0.000 OA
ATOM     35  H   UNL     1       3.752   1.065  19.793  0.00  0.00    +0.000 HD
ENDBRANCH  27  34
ENDBRANCH  21  22
ENDBRANCH  19  21
ENDBRANCH   4  19
TORSDOF 11
ENDMDL
MODEL 3
REMARK VINA RESULT:      -8.5      0.887      1.137
REMARK  Name = 
REMARK  15 active torsions:
REMARK  status: ('A' for Active; 'I' for Inactive)
REMARK    1  A    between atoms: C_1  and  O_2
REMARK    2  A    between atoms: O_2  and  C_3
REMARK    3  A    between atoms: C_5  and  C_6
REMARK    4  A    between atoms: C_7  and  C_8
REMARK    5  A    between atoms: C_11  and  N_12
REMARK    6  A    between atoms: N_12  and  C_13
REMARK    7  A    between atoms: C_13  and  C_14
REMARK    8  A    between atoms: C_16  and  N_17
REMARK    9  A    between atoms: N_17  and  C_18
REMARK   10  A    between atoms: C_18  and  C_19
REMARK   11  A    between atoms: C_19  and  C_20
REMARK   12  A    between atoms: C_19  and  C_21
REMARK   13  A    between atoms: C_24  and  O_25
REMARK   14  A    between atoms: C_29  and  O_30
REMARK   15  A    between atoms: O_30  and  C_31
REMARK                            x       y       z     vdW  Elec       q    Type
REMARK                         _______ _______ _______ _____ _____    ______ ____
ROOT
ATOM      1  C   UNL     1       8.050   7.270  18.465  0.00  0.00    +0.000 A 
ATOM      2  C   UNL     1       7.342   7.430  17.276  0.00  0.00    +0.000 A 
ATOM      3  C   UNL     1       6.648   6.353  16.723  0.00  0.00    +0.000 A 
ATOM      4  C   UNL     1       6.682   5.088  17.317  0.00  0.00    +0.000 A 
ATOM      5  C   UNL     1       7.355   4.955  18.539  0.00  0.00    +0.000 A 
ATOM      6  C   UNL     1       8.045   6.032  19.108  0.00  0.00    +0.000 A 
ENDROOT
BRANCH   1   8
ATOM      7  C   UNL     1       8.768   9.594  18.398  0.00  0.00    +0.000 C 
ATOM      8  C   UNL     1       8.761   8.409  19.030  0.00  0.00    +0.000 C 
BRANCH   7  11
ATOM      9  C   UNL     1      10.018  12.254  20.744  0.00  0.00    +0.000 A 
ATOM     10  C   UNL     1       9.315  11.166  20.221  0.00  0.00    +0.000 A 
ATOM     11  C   UNL     1       9.477  10.780  18.886  0.00  0.00    +0.000 A 
ATOM     12  C   UNL     1      10.371  11.500  18.083  0.00  0.00    +0.000 A 
ATOM     13  C   UNL     1      11.081  12.587  18.596  0.00  0.00    +0.000 A 
ATOM     14  C   UNL     1      10.897  12.967  19.927  0.00  0.00    +0.000 A 
BRANCH   9  16
ATOM     15  C   UNL     1       8.431  12.311  22.515  0.00  0.00    +0.000 C 
ATOM     16  O   UNL     1       9.766  12.508  22.065  0.00  0.00    +0.000 OA
ENDBRANCH   9  16
BRANCH  13  17
ATOM     17  O   UNL     1      11.925  13.183  17.699  0.00  0.00    +0.000 OA
ATOM     18  C   UNL     1      11.425  13.399  16.387  0.00  0.00    +0.000 C 
ENDBRANCH  13  17
ENDBRANCH   7  11
ENDBRANCH   1   8
BRANCH   4  19
ATOM     19  N   UNL     1       6.000   3.974  16.818  0.00  0.00    +0.000 N 
ATOM     20  H   UNL     1       6.223   3.155  17.377  0.00  0.00    +0.000 HD
BRANCH  19  21
ATOM     21  C   UNL     1       4.555   4.065  16.569  0.00  0.00    +0.000 C 
BRANCH  21  22
ATOM     22  C   UNL     1       3.802   4.409  17.833  0.00  0.00    +0.000 A 
ATOM     23  C   UNL     1       3.176   5.657  17.993  0.00  0.00    +0.000 A 
ATOM     24  C   UNL     1       2.526   6.015  19.183  0.00  0.00    +0.000 A 
ATOM     25  C   UNL     1       2.416   5.045  20.185  0.00  0.00    +0.000 A 
ATOM     26  C   UNL     1       2.991   3.782  20.034  0.00  0.00    +0.000 A 
ATOM     27  C   UNL     1       3.678   3.473  18.864  0.00  0.00    +0.000 A 
BRANCH  24  28
ATOM     28  N   UNL     1       1.916   7.277  19.264  0.00  0.00    +0.000 N 
ATOM     29  H   UNL     1       2.315   7.909  18.573  0.00  0.00    +0.000 HD
BRANCH  28  30
ATOM     30  C   UNL     1       1.835   7.897  20.584  0.00  0.00    +0.000 C 
BRANCH  30  31
ATOM     31  C   UNL     1       0.609   8.822  20.666  0.00  0.00    +0.000 C 
ATOM     32  C   UNL     1       0.192   9.081  22.116  0.00  0.00    +0.000 C 
ATOM     33  C   UNL     1       0.920  10.148  19.969  0.00  0.00    +0.000 C 
ENDBRANCH  30  31
ENDBRANCH  28  30
ENDBRANCH  24  28
BRANCH  27  34
ATOM     34  O   UNL     1       4.229   2.231  18.710  0.00  0.00    +0.000 OA
ATOM     35  H   UNL     1       4.140   1.965  17.780  0.00  0.00    +0.000 HD
ENDBRANCH  27  34
ENDBRANCH  21  22
ENDBRANCH  19  21
ENDBRANCH   4  19
TORSDOF 11
ENDMDL
MODEL 4
REMARK VINA RESULT:      -8.4      1.006      1.105
REMARK  Name = 
REMARK  15 active torsions:
REMARK  status: ('A' for Active; 'I' for Inactive)
REMARK    1  A    between atoms: C_1  and  O_2
REMARK    2  A    between atoms: O_2  and  C_3
REMARK    3  A    between atoms: C_5  and  C_6
REMARK    4  A    between atoms: C_7  and  C_8
REMARK    5  A    between atoms: C_11  and  N_12
REMARK    6  A    between atoms: N_12  and  C_13
REMARK    7  A    between atoms: C_13  and  C_14
REMARK    8  A    between atoms: C_16  and  N_17
REMARK    9  A    between atoms: N_17  and  C_18
REMARK   10  A    between atoms: C_18  and  C_19
REMARK   11  A    between atoms: C_19  and  C_20
REMARK   12  A    between atoms: C_19  and  C_21
REMARK   13  A    between atoms: C_24  and  O_25
REMARK   14  A    between atoms: C_29  and  O_30
REMARK   15  A    between atoms: O_30  and  C_31
REMARK                            x       y       z     vdW  Elec       q    Type
REMARK                         _______ _______ _______ _____ _____    ______ ____
ROOT
ATOM      1  C   UNL     1       7.522   7.876  17.839  0.00  0.00    +0.000 A 
ATOM      2  C   UNL     1       6.370   7.624  17.098  0.00  0.00    +0.000 A 
ATOM      3  C   UNL     1       5.811   6.346  17.085  0.00  0.00    +0.000 A 
ATOM      4  C   UNL     1       6.410   5.286  17.771  0.00  0.00    +0.000 A 
ATOM      5  C   UNL     1       7.538   5.566  18.554  0.00  0.00    +0.000 A 
ATOM      6  C   UNL     1       8.100   6.848  18.583  0.00  0.00    +0.000 A 
ENDROOT
BRANCH   1   8
ATOM      7  C   UNL     1       8.806   9.655  18.892  0.00  0.00    +0.000 C 
ATOM      8  C   UNL     1       8.085   9.220  17.846  0.00  0.00    +0.000 C 
BRANCH   7  11
ATOM      9  C   UNL     1      10.092  12.854  20.391  0.00  0.00    +0.000 A 
ATOM     10  C   UNL     1       9.493  11.601  20.246  0.00  0.00    +0.000 A 
ATOM     11  C   UNL     1       9.385  10.998  18.988  0.00  0.00    +0.000 A 
ATOM     12  C   UNL     1       9.903  11.671  17.875  0.00  0.00    +0.000 A 
ATOM     13  C   UNL     1      10.507  12.922  18.009  0.00  0.00    +0.000 A 
ATOM     14  C   UNL     1      10.594  13.516  19.269  0.00  0.00    +0.000 A 
BRANCH   9  16
ATOM     15  C   UNL     1       9.740  14.664  21.895  0.00  0.00    +0.000 C 
ATOM     16  O   UNL     1      10.136  13.314  21.680  0.00  0.00    +0.000 OA
ENDBRANCH   9  16
BRANCH  13  17
ATOM     17  O   UNL     1      10.976  13.450  16.837  0.00  0.00    +0.000 OA
ATOM     18  C   UNL     1      12.328  13.174  16.499  0.00  0.00    +0.000 C 
ENDBRANCH  13  17
ENDBRANCH   7  11
ENDBRANCH   1   8
BRANCH   4  19
ATOM     19  N   UNL     1       5.893   3.987  17.805  0.00  0.00    +0.000 N 
ATOM     20  H   UNL     1       6.223   3.508  18.638  0.00  0.00    +0.000 HD
BRANCH  19  21
ATOM     21  C   UNL     1       4.451   3.780  17.614  0.00  0.00    +0.000 C 
BRANCH  21  22
ATOM     22  C   UNL     1       3.718   3.777  18.935  0.00  0.00    +0.000 A 
ATOM     23  C   UNL     1       2.970   4.890  19.357  0.00  0.00    +0.000 A 
ATOM     24  C   UNL     1       2.334   4.926  20.607  0.00  0.00    +0.000 A 
ATOM     25  C   UNL     1       2.369   3.769  21.393  0.00  0.00    +0.000 A 
ATOM     26  C   UNL     1       3.068   2.635  20.976  0.00  0.00    +0.000 A 
ATOM     27  C   UNL     1       3.736   2.645  19.756  0.00  0.00    +0.000 A 
BRANCH  24  28
ATOM     28  N   UNL     1       1.598   6.069  20.954  0.00  0.00    +0.000 N 
ATOM     29  H   UNL     1       0.599   5.876  20.909  0.00  0.00    +0.000 HD
BRANCH  28  30
ATOM     30  C   UNL     1       1.940   7.316  20.275  0.00  0.00    +0.000 C 
BRANCH  30  31
ATOM     31  C   UNL     1       1.119   8.482  20.852  0.00  0.00    +0.000 C 
ATOM     32  C   UNL     1      -0.330   8.071  21.128  0.00  0.00    +0.000 C 
ATOM     33  C   UNL     1       1.773   8.981  22.142  0.00  0.00    +0.000 C 
ENDBRANCH  30  31
ENDBRANCH  28  30
ENDBRANCH  24  28
BRANCH  27  34
ATOM     34  O   UNL     1       4.409   1.529  19.342  0.00  0.00    +0.000 OA
ATOM     35  H   UNL     1       5.362   1.718  19.357  0.00  0.00    +0.000 HD
ENDBRANCH  27  34
ENDBRANCH  21  22
ENDBRANCH  19  21
ENDBRANCH   4  19
TORSDOF 11
ENDMDL
MODEL 5
REMARK VINA RESULT:      -8.4      1.347      1.864
REMARK  Name = 
REMARK  15 active torsions:
REMARK  status: ('A' for Active; 'I' for Inactive)
REMARK    1  A    between atoms: C_1  and  O_2
REMARK    2  A    between atoms: O_2  and  C_3
REMARK    3  A    between atoms: C_5  and  C_6
REMARK    4  A    between atoms: C_7  and  C_8
REMARK    5  A    between atoms: C_11  and  N_12
REMARK    6  A    between atoms: N_12  and  C_13
REMARK    7  A    between atoms: C_13  and  C_14
REMARK    8  A    between atoms: C_16  and  N_17
REMARK    9  A    between atoms: N_17  and  C_18
REMARK   10  A    between atoms: C_18  and  C_19
REMARK   11  A    between atoms: C_19  and  C_20
REMARK   12  A    between atoms: C_19  and  C_21
REMARK   13  A    between atoms: C_24  and  O_25
REMARK   14  A    between atoms: C_29  and  O_30
REMARK   15  A    between atoms: O_30  and  C_31
REMARK                            x       y       z     vdW  Elec       q    Type
REMARK                         _______ _______ _______ _____ _____    ______ ____
ROOT
ATOM      1  C   UNL     1       7.895   7.858  17.919  0.00  0.00    +0.000 A 
ATOM      2  C   UNL     1       8.107   6.883  18.890  0.00  0.00    +0.000 A 
ATOM      3  C   UNL     1       7.703   5.567  18.663  0.00  0.00    +0.000 A 
ATOM      4  C   UNL     1       7.042   5.206  17.486  0.00  0.00    +0.000 A 
ATOM      5  C   UNL     1       6.883   6.186  16.496  0.00  0.00    +0.000 A 
ATOM      6  C   UNL     1       7.296   7.507  16.710  0.00  0.00    +0.000 A 
ENDROOT
BRANCH   1   8
ATOM      7  C   UNL     1       9.262   9.484  19.107  0.00  0.00    +0.000 C 
ATOM      8  C   UNL     1       8.333   9.225  18.173  0.00  0.00    +0.000 C 
BRANCH   7  11
ATOM      9  C   UNL     1       9.856  12.645  21.054  0.00  0.00    +0.000 A 
ATOM     10  C   UNL     1       9.377  11.391  20.670  0.00  0.00    +0.000 A 
ATOM     11  C   UNL     1       9.738  10.830  19.441  0.00  0.00    +0.000 A 
ATOM     12  C   UNL     1      10.603  11.546  18.604  0.00  0.00    +0.000 A 
ATOM     13  C   UNL     1      11.090  12.799  18.979  0.00  0.00    +0.000 A 
ATOM     14  C   UNL     1      10.709  13.351  20.203  0.00  0.00    +0.000 A 
BRANCH   9  16
ATOM     15  C   UNL     1       8.434  12.269  22.924  0.00  0.00    +0.000 C 
ATOM     16  O   UNL     1       9.428  13.062  22.286  0.00  0.00    +0.000 OA
ENDBRANCH   9  16
BRANCH  13  17
ATOM     17  O   UNL     1      11.933  13.373  18.066  0.00  0.00    +0.000 OA
ATOM     18  C   UNL     1      11.557  13.291  16.698  0.00  0.00    +0.000 C 
ENDBRANCH  13  17
ENDBRANCH   7  11
ENDBRANCH   1   8
BRANCH   4  19
ATOM     19  N   UNL     1       6.623   3.904  17.195  0.00  0.00    +0.000 N 
ATOM     20  H   UNL     1       6.966   3.265  17.907  0.00  0.00    +0.000 HD
BRANCH  19  21
ATOM     21  C   UNL     1       5.206   3.653  16.899  0.00  0.00    +0.000 C 
BRANCH  21  22
ATOM     22  C   UNL     1       4.307   4.345  17.896  0.00  0.00    +0.000 A 
ATOM     23  C   UNL     1       3.508   5.440  17.522  0.00  0.00    +0.000 A 
ATOM     24  C   UNL     1       2.714   6.131  18.450  0.00  0.00    +0.000 A 
ATOM     25  C   UNL     1       2.649   5.631  19.755  0.00  0.00    +0.000 A 
ATOM     26  C   UNL     1       3.398   4.519  20.141  0.00  0.00    +0.000 A 
ATOM     27  C   UNL     1       4.219   3.885  19.214  0.00  0.00    +0.000 A 
BRANCH  24  28
ATOM     28  N   UNL     1       1.937   7.209  17.999  0.00  0.00    +0.000 N 
ATOM     29  H   UNL     1       1.530   6.998  17.091  0.00  0.00    +0.000 HD
BRANCH  28  30
ATOM     30  C   UNL     1       2.554   8.533  18.022  0.00  0.00    +0.000 C 
BRANCH  30  31
ATOM     31  C   UNL     1       1.484   9.617  18.236  0.00  0.00    +0.000 C 
ATOM     32  C   UNL     1       0.842   9.511  19.622  0.00  0.00    +0.000 C 
ATOM     33  C   UNL     1       2.112  11.000  18.058  0.00  0.00    +0.000 C 
ENDBRANCH  30  31
ENDBRANCH  28  30
ENDBRANCH  24  28
BRANCH  27  34
ATOM     34  O   UNL     1       4.943   2.786  19.588  0.00  0.00    +0.000 OA
ATOM     35  H   UNL     1       5.742   3.085  20.054  0.00  0.00    +0.000 HD
ENDBRANCH  27  34
ENDBRANCH  21  22
ENDBRANCH  19  21
ENDBRANCH   4  19
TORSDOF 11
ENDMDL
MODEL 6
REMARK VINA RESULT:      -8.4      1.285      2.594
REMARK  Name = 
REMARK  15 active torsions:
REMARK  status: ('A' for Active; 'I' for Inactive)
REMARK    1  A    between atoms: C_1  and  O_2
REMARK    2  A    between atoms: O_2  and  C_3
REMARK    3  A    between atoms: C_5  and  C_6
REMARK    4  A    between atoms: C_7  and  C_8
REMARK    5  A    between atoms: C_11  and  N_12
REMARK    6  A    between atoms: N_12  and  C_13
REMARK    7  A    between atoms: C_13  and  C_14
REMARK    8  A    between atoms: C_16  and  N_17
REMARK    9  A    between atoms: N_17  and  C_18
REMARK   10  A    between atoms: C_18  and  C_19
REMARK   11  A    between atoms: C_19  and  C_20
REMARK   12  A    between atoms: C_19  and  C_21
REMARK   13  A    between atoms: C_24  and  O_25
REMARK   14  A    between atoms: C_29  and  O_30
REMARK   15  A    between atoms: O_30  and  C_31
REMARK                            x       y       z     vdW  Elec       q    Type
REMARK                         _______ _______ _______ _____ _____    ______ ____
ROOT
ATOM      1  C   UNL     1       8.022   8.092  18.050  0.00  0.00    +0.000 A 
ATOM      2  C   UNL     1       7.176   7.725  17.006  0.00  0.00    +0.000 A 
ATOM      3  C   UNL     1       6.672   6.426  16.936  0.00  0.00    +0.000 A 
ATOM      4  C   UNL     1       7.034   5.457  17.876  0.00  0.00    +0.000 A 
ATOM      5  C   UNL     1       7.843   5.855  18.949  0.00  0.00    +0.000 A 
ATOM      6  C   UNL     1       8.345   7.159  19.035  0.00  0.00    +0.000 A 
ENDROOT
BRANCH   1   8
ATOM      7  C   UNL     1       9.235   9.879  19.171  0.00  0.00    +0.000 C 
ATOM      8  C   UNL     1       8.530   9.457  18.109  0.00  0.00    +0.000 C 
BRANCH   7  11
ATOM      9  C   UNL     1      10.796  13.184  18.291  0.00  0.00    +0.000 A 
ATOM     10  C   UNL     1      10.338  11.868  18.211  0.00  0.00    +0.000 A 
ATOM     11  C   UNL     1       9.760  11.240  19.319  0.00  0.00    +0.000 A 
ATOM     12  C   UNL     1       9.637  11.963  20.512  0.00  0.00    +0.000 A 
ATOM     13  C   UNL     1      10.089  13.280  20.602  0.00  0.00    +0.000 A 
ATOM     14  C   UNL     1      10.676  13.888  19.491  0.00  0.00    +0.000 A 
BRANCH   9  16
ATOM     15  C   UNL     1      11.260  15.077  16.927  0.00  0.00    +0.000 C 
ATOM     16  O   UNL     1      11.328  13.670  17.126  0.00  0.00    +0.000 OA
ENDBRANCH   9  16
BRANCH  13  17
ATOM     17  O   UNL     1       9.891  13.862  21.825  0.00  0.00    +0.000 OA
ATOM     18  C   UNL     1      10.378  15.186  21.998  0.00  0.00    +0.000 C 
ENDBRANCH  13  17
ENDBRANCH   7  11
ENDBRANCH   1   8
BRANCH   4  19
ATOM     19  N   UNL     1       6.555   4.143  17.866  0.00  0.00    +0.000 N 
ATOM     20  H   UNL     1       6.753   3.699  18.759  0.00  0.00    +0.000 HD
BRANCH  19  21
ATOM     21  C   UNL     1       5.173   3.883  17.442  0.00  0.00    +0.000 C 
BRANCH  21  22
ATOM     22  C   UNL     1       4.190   4.231  18.534  0.00  0.00    +0.000 A 
ATOM     23  C   UNL     1       3.607   5.508  18.612  0.00  0.00    +0.000 A 
ATOM     24  C   UNL     1       2.739   5.866  19.654  0.00  0.00    +0.000 A 
ATOM     25  C   UNL     1       2.374   4.875  20.571  0.00  0.00    +0.000 A 
ATOM     26  C   UNL     1       2.904   3.586  20.490  0.00  0.00    +0.000 A 
ATOM     27  C   UNL     1       3.805   3.273  19.478  0.00  0.00    +0.000 A 
BRANCH  24  28
ATOM     28  N   UNL     1       2.189   7.158  19.658  0.00  0.00    +0.000 N 
ATOM     29  H   UNL     1       1.252   7.144  20.055  0.00  0.00    +0.000 HD
BRANCH  28  30
ATOM     30  C   UNL     1       2.237   7.908  18.406  0.00  0.00    +0.000 C 
BRANCH  30  31
ATOM     31  C   UNL     1       1.317   9.138  18.485  0.00  0.00    +0.000 C 
ATOM     32  C   UNL     1       0.789   9.359  19.905  0.00  0.00    +0.000 C 
ATOM     33  C   UNL     1       2.077  10.379  18.013  0.00  0.00    +0.000 C 
ENDBRANCH  30  31
ENDBRANCH  28  30
ENDBRANCH  24  28
BRANCH  27  34
ATOM     34  O   UNL     1       4.314   2.007  19.391  0.00  0.00    +0.000 OA
ATOM     35  H   UNL     1       3.643   1.429  18.990  0.00  0.00    +0.000 HD
ENDBRANCH  27  34
ENDBRANCH  21  22
ENDBRANCH  19  21
ENDBRANCH   4  19
TORSDOF 11
ENDMDL
MODEL 7
REMARK VINA RESULT:      -8.0      0.803      1.277
REMARK  Name = 
REMARK  15 active torsions:
REMARK  status: ('A' for Active; 'I' for Inactive)
REMARK    1  A    between atoms: C_1  and  O_2
REMARK    2  A    between atoms: O_2  and  C_3
REMARK    3  A    between atoms: C_5  and  C_6
REMARK    4  A    between atoms: C_7  and  C_8
REMARK    5  A    between atoms: C_11  and  N_12
REMARK    6  A    between atoms: N_12  and  C_13
REMARK    7  A    between atoms: C_13  and  C_14
REMARK    8  A    between atoms: C_16  and  N_17
REMARK    9  A    between atoms: N_17  and  C_18
REMARK   10  A    between atoms: C_18  and  C_19
REMARK   11  A    between atoms: C_19  and  C_20
REMARK   12  A    between atoms: C_19  and  C_21
REMARK   13  A    between atoms: C_24  and  O_25
REMARK   14  A    between atoms: C_29  and  O_30
REMARK   15  A    between atoms: O_30  and  C_31
REMARK                            x       y       z     vdW  Elec       q    Type
REMARK                         _______ _______ _______ _____ _____    ______ ____
ROOT
ATOM      1  C   UNL     1       7.458   7.465  17.787  0.00  0.00    +0.000 A 
ATOM      2  C   UNL     1       7.871   6.436  18.631  0.00  0.00    +0.000 A 
ATOM      3  C   UNL     1       7.203   5.211  18.621  0.00  0.00    +0.000 A 
ATOM      4  C   UNL     1       6.088   5.000  17.806  0.00  0.00    +0.000 A 
ATOM      5  C   UNL     1       5.717   6.025  16.925  0.00  0.00    +0.000 A 
ATOM      6  C   UNL     1       6.387   7.255  16.919  0.00  0.00    +0.000 A 
ENDROOT
BRANCH   1   8
ATOM      7  C   UNL     1       8.710   9.200  18.946  0.00  0.00    +0.000 C 
ATOM      8  C   UNL     1       8.174   8.734  17.807  0.00  0.00    +0.000 C 
BRANCH   7  11
ATOM      9  C   UNL     1      10.144  12.333  20.450  0.00  0.00    +0.000 A 
ATOM     10  C   UNL     1       9.429  11.145  20.284  0.00  0.00    +0.000 A 
ATOM     11  C   UNL     1       9.423  10.476  19.056  0.00  0.00    +0.000 A 
ATOM     12  C   UNL     1      10.161  11.014  17.995  0.00  0.00    +0.000 A 
ATOM     13  C   UNL     1      10.882  12.199  18.150  0.00  0.00    +0.000 A 
ATOM     14  C   UNL     1      10.866  12.862  19.378  0.00  0.00    +0.000 A 
BRANCH   9  16
ATOM     15  C   UNL     1       8.878  12.610  22.445  0.00  0.00    +0.000 C 
ATOM     16  O   UNL     1      10.066  12.870  21.707  0.00  0.00    +0.000 OA
ENDBRANCH   9  16
BRANCH  13  17
ATOM     17  O   UNL     1      11.564  12.595  17.031  0.00  0.00    +0.000 OA
ATOM     18  C   UNL     1      11.388  13.940  16.610  0.00  0.00    +0.000 C 
ENDBRANCH  13  17
ENDBRANCH   7  11
ENDBRANCH   1   8
BRANCH   4  19
ATOM     19  N   UNL     1       5.384   3.793  17.743  0.00  0.00    +0.000 N 
ATOM     20  H   UNL     1       5.914   3.115  17.202  0.00  0.00    +0.000 HD
BRANCH  19  21
ATOM     21  C   UNL     1       4.870   3.194  18.982  0.00  0.00    +0.000 C 
BRANCH  21  22
ATOM     22  C   UNL     1       3.589   3.864  19.423  0.00  0.00    +0.000 A 
ATOM     23  C   UNL     1       3.550   5.236  19.727  0.00  0.00    +0.000 A 
ATOM     24  C   UNL     1       2.384   5.860  20.196  0.00  0.00    +0.000 A 
ATOM     25  C   UNL     1       1.212   5.098  20.252  0.00  0.00    +0.000 A 
ATOM     26  C   UNL     1       1.215   3.744  19.913  0.00  0.00    +0.000 A 
ATOM     27  C   UNL     1       2.397   3.137  19.503  0.00  0.00    +0.000 A 
BRANCH  24  28
ATOM     28  N   UNL     1       2.421   7.236  20.469  0.00  0.00    +0.000 N 
ATOM     29  H   UNL     1       2.942   7.414  21.326  0.00  0.00    +0.000 HD
BRANCH  28  30
ATOM     30  C   UNL     1       1.151   7.956  20.447  0.00  0.00    +0.000 C 
BRANCH  30  31
ATOM     31  C   UNL     1       0.743   8.365  21.873  0.00  0.00    +0.000 C 
ATOM     32  C   UNL     1       1.739   9.357  22.482  0.00  0.00    +0.000 C 
ATOM     33  C   UNL     1      -0.657   8.979  21.850  0.00  0.00    +0.000 C 
ENDBRANCH  30  31
ENDBRANCH  28  30
ENDBRANCH  24  28
BRANCH  27  34
ATOM     34  O   UNL     1       2.396   1.814  19.159  0.00  0.00    +0.000 OA
ATOM     35  H   UNL     1       2.279   1.743  18.197  0.00  0.00    +0.000 HD
ENDBRANCH  27  34
ENDBRANCH  21  22
ENDBRANCH  19  21
ENDBRANCH   4  19
TORSDOF 11
ENDMDL
MODEL 8
REMARK VINA RESULT:      -8.0      5.455      9.762
REMARK  Name = 
REMARK  15 active torsions:
REMARK  status: ('A' for Active; 'I' for Inactive)
REMARK    1  A    between atoms: C_1  and  O_2
REMARK    2  A    between atoms: O_2  and  C_3
REMARK    3  A    between atoms: C_5  and  C_6
REMARK    4  A    between atoms: C_7  and  C_8
REMARK    5  A    between atoms: C_11  and  N_12
REMARK    6  A    between atoms: N_12  and  C_13
REMARK    7  A    between atoms: C_13  and  C_14
REMARK    8  A    between atoms: C_16  and  N_17
REMARK    9  A    between atoms: N_17  and  C_18
REMARK   10  A    between atoms: C_18  and  C_19
REMARK   11  A    between atoms: C_19  and  C_20
REMARK   12  A    between atoms: C_19  and  C_21
REMARK   13  A    between atoms: C_24  and  O_25
REMARK   14  A    between atoms: C_29  and  O_30
REMARK   15  A    between atoms: O_30  and  C_31
REMARK                            x       y       z     vdW  Elec       q    Type
REMARK                         _______ _______ _______ _____ _____    ______ ____
ROOT
ATOM      1  C   UNL     1       0.725   8.898  21.249  0.00  0.00    +0.000 A 
ATOM      2  C   UNL     1       0.766  10.103  20.551  0.00  0.00    +0.000 A 
ATOM      3  C   UNL     1       0.157  11.241  21.081  0.00  0.00    +0.000 A 
ATOM      4  C   UNL     1      -0.539  11.193  22.291  0.00  0.00    +0.000 A 
ATOM      5  C   UNL     1      -0.527   9.988  23.007  0.00  0.00    +0.000 A 
ATOM      6  C   UNL     1       0.091   8.843  22.490  0.00  0.00    +0.000 A 
ENDROOT
BRANCH   1   8
ATOM      7  C   UNL     1       2.063   7.809  19.533  0.00  0.00    +0.000 C 
ATOM      8  C   UNL     1       1.375   7.723  20.682  0.00  0.00    +0.000 C 
BRANCH   7  11
ATOM      9  C   UNL     1       2.908   4.262  18.614  0.00  0.00    +0.000 A 
ATOM     10  C   UNL     1       2.348   5.374  19.248  0.00  0.00    +0.000 A 
ATOM     11  C   UNL     1       2.723   6.672  18.884  0.00  0.00    +0.000 A 
ATOM     12  C   UNL     1       3.663   6.837  17.860  0.00  0.00    +0.000 A 
ATOM     13  C   UNL     1       4.226   5.734  17.218  0.00  0.00    +0.000 A 
ATOM     14  C   UNL     1       3.852   4.445  17.602  0.00  0.00    +0.000 A 
BRANCH   9  16
ATOM     15  C   UNL     1       1.111   2.706  18.698  0.00  0.00    +0.000 C 
ATOM     16  O   UNL     1       2.439   3.058  19.066  0.00  0.00    +0.000 OA
ENDBRANCH   9  16
BRANCH  13  17
ATOM     17  O   UNL     1       5.119   6.051  16.230  0.00  0.00    +0.000 OA
ATOM     18  C   UNL     1       6.497   5.851  16.516  0.00  0.00    +0.000 C 
ENDBRANCH  13  17
ENDBRANCH   7  11
ENDBRANCH   1   8
BRANCH   4  19
ATOM     19  N   UNL     1      -1.160  12.300  22.878  0.00  0.00    +0.000 N 
ATOM     20  H   UNL     1      -0.578  12.662  23.629  0.00  0.00    +0.000 HD
BRANCH  19  21
ATOM     21  C   UNL     1      -1.655  13.387  22.023  0.00  0.00    +0.000 C 
BRANCH  21  22
ATOM     22  C   UNL     1      -2.944  12.999  21.336  0.00  0.00    +0.000 A 
ATOM     23  C   UNL     1      -2.957  12.574  19.996  0.00  0.00    +0.000 A 
ATOM     24  C   UNL     1      -4.151  12.269  19.326  0.00  0.00    +0.000 A 
ATOM     25  C   UNL     1      -5.340  12.291  20.064  0.00  0.00    +0.000 A 
ATOM     26  C   UNL     1      -5.348  12.666  21.408  0.00  0.00    +0.000 A 
ATOM     27  C   UNL     1      -4.156  13.016  22.034  0.00  0.00    +0.000 A 
BRANCH  24  28
ATOM     28  N   UNL     1      -4.083  11.843  17.990  0.00  0.00    +0.000 N 
ATOM     29  H   UNL     1      -4.781  12.324  17.427  0.00  0.00    +0.000 HD
BRANCH  28  30
ATOM     30  C   UNL     1      -4.090  10.402  17.746  0.00  0.00    +0.000 C 
BRANCH  30  31
ATOM     31  C   UNL     1      -2.942  10.015  16.799  0.00  0.00    +0.000 C 
ATOM     32  C   UNL     1      -2.934  10.882  15.537  0.00  0.00    +0.000 C 
ATOM     33  C   UNL     1      -1.606  10.149  17.531  0.00  0.00    +0.000 C 
ENDBRANCH  30  31
ENDBRANCH  28  30
ENDBRANCH  24  28
BRANCH  27  34
ATOM     34  O   UNL     1      -4.162  13.371  23.354  0.00  0.00    +0.000 OA
ATOM     35  H   UNL     1      -4.343  12.579  23.888  0.00  0.00    +0.000 HD
ENDBRANCH  27  34
ENDBRANCH  21  22
ENDBRANCH  19  21
ENDBRANCH   4  19
TORSDOF 11
ENDMDL
MODEL 9
REMARK VINA RESULT:      -7.9      1.241      2.723
REMARK  Name = 
REMARK  15 active torsions:
REMARK  status: ('A' for Active; 'I' for Inactive)
REMARK    1  A    between atoms: C_1  and  O_2
REMARK    2  A    between atoms: O_2  and  C_3
REMARK    3  A    between atoms: C_5  and  C_6
REMARK    4  A    between atoms: C_7  and  C_8
REMARK    5  A    between atoms: C_11  and  N_12
REMARK    6  A    between atoms: N_12  and  C_13
REMARK    7  A    between atoms: C_13  and  C_14
REMARK    8  A    between atoms: C_16  and  N_17
REMARK    9  A    between atoms: N_17  and  C_18
REMARK   10  A    between atoms: C_18  and  C_19
REMARK   11  A    between atoms: C_19  and  C_20
REMARK   12  A    between atoms: C_19  and  C_21
REMARK   13  A    between atoms: C_24  and  O_25
REMARK   14  A    between atoms: C_29  and  O_30
REMARK   15  A    between atoms: O_30  and  C_31
REMARK                            x       y       z     vdW  Elec       q    Type
REMARK                         _______ _______ _______ _____ _____    ______ ____
ROOT
ATOM      1  C   UNL     1       7.651   7.046  18.126  0.00  0.00    +0.000 A 
ATOM      2  C   UNL     1       6.776   7.406  17.104  0.00  0.00    +0.000 A 
ATOM      3  C   UNL     1       5.941   6.448  16.526  0.00  0.00    +0.000 A 
ATOM      4  C   UNL     1       5.992   5.109  16.923  0.00  0.00    +0.000 A 
ATOM      5  C   UNL     1       6.839   4.773  17.987  0.00  0.00    +0.000 A 
ATOM      6  C   UNL     1       7.673   5.728  18.581  0.00  0.00    +0.000 A 
ENDROOT
BRANCH   1   8
ATOM      7  C   UNL     1       8.506   9.321  18.252  0.00  0.00    +0.000 C 
ATOM      8  C   UNL     1       8.508   8.063  18.721  0.00  0.00    +0.000 C 
BRANCH   7  11
ATOM      9  C   UNL     1      11.038  12.098  18.358  0.00  0.00    +0.000 A 
ATOM     10  C   UNL     1      10.254  11.031  17.916  0.00  0.00    +0.000 A 
ATOM     11  C   UNL     1       9.354  10.394  18.777  0.00  0.00    +0.000 A 
ATOM     12  C   UNL     1       9.245  10.857  20.095  0.00  0.00    +0.000 A 
ATOM     13  C   UNL     1      10.022  11.925  20.547  0.00  0.00    +0.000 A 
ATOM     14  C   UNL     1      10.925  12.540  19.678  0.00  0.00    +0.000 A 
BRANCH   9  16
ATOM     15  C   UNL     1      11.525  13.917  16.904  0.00  0.00    +0.000 C 
ATOM     16  O   UNL     1      11.864  12.629  17.403  0.00  0.00    +0.000 OA
ENDBRANCH   9  16
BRANCH  13  17
ATOM     17  O   UNL     1       9.798  12.273  21.852  0.00  0.00    +0.000 OA
ATOM     18  C   UNL     1       8.504  12.009  22.377  0.00  0.00    +0.000 C 
ENDBRANCH  13  17
ENDBRANCH   7  11
ENDBRANCH   1   8
BRANCH   4  19
ATOM     19  N   UNL     1       5.175   4.107  16.391  0.00  0.00    +0.000 N 
ATOM     20  H   UNL     1       5.746   3.423  15.899  0.00  0.00    +0.000 HD
BRANCH  19  21
ATOM     21  C   UNL     1       4.189   3.446  17.256  0.00  0.00    +0.000 C 
BRANCH  21  22
ATOM     22  C   UNL     1       3.552   4.429  18.211  0.00  0.00    +0.000 A 
ATOM     23  C   UNL     1       3.079   5.676  17.766  0.00  0.00    +0.000 A 
ATOM     24  C   UNL     1       2.540   6.624  18.650  0.00  0.00    +0.000 A 
ATOM     25  C   UNL     1       2.382   6.253  19.989  0.00  0.00    +0.000 A 
ATOM     26  C   UNL     1       2.804   5.004  20.447  0.00  0.00    +0.000 A 
ATOM     27  C   UNL     1       3.384   4.103  19.560  0.00  0.00    +0.000 A 
BRANCH  24  28
ATOM     28  N   UNL     1       2.080   7.843  18.129  0.00  0.00    +0.000 N 
ATOM     29  H   UNL     1       2.816   8.301  17.595  0.00  0.00    +0.000 HD
BRANCH  28  30
ATOM     30  C   UNL     1       1.431   8.764  19.058  0.00  0.00    +0.000 C 
BRANCH  30  31
ATOM     31  C   UNL     1       0.903   9.998  18.307  0.00  0.00    +0.000 C 
ATOM     32  C   UNL     1      -0.309  10.613  19.012  0.00  0.00    +0.000 C 
ATOM     33  C   UNL     1       2.017  11.039  18.182  0.00  0.00    +0.000 C 
ENDBRANCH  30  31
ENDBRANCH  28  30
ENDBRANCH  24  28
BRANCH  27  34
ATOM     34  O   UNL     1       3.784   2.874  20.007  0.00  0.00    +0.000 OA
ATOM     35  H   UNL     1       3.830   2.268  19.248  0.00  0.00    +0.000 HD
ENDBRANCH  27  34
ENDBRANCH  21  22
ENDBRANCH  19  21
ENDBRANCH   4  19
TORSDOF 11
ENDMDL
