MODEL 1
REMARK VINA RESULT:      -7.9      0.000      0.000
REMARK  Name = 
REMARK  5 active torsions:
REMARK  status: ('A' for Active; 'I' for Inactive)
REMARK    1  A    between atoms: C_1  and  C_2
REMARK    2  A    between atoms: C_5  and  S_6
REMARK    3  A    between atoms: S_6  and  O_9
REMARK    4  A    between atoms: O_9  and  N_10
REMARK    5  A    between atoms: C_21  and  C_22
REMARK                            x       y       z     vdW  Elec       q    Type
REMARK                         _______ _______ _______ _____ _____    ______ ____
ROOT
ATOM      1  O   UNL     1       3.667   2.443  17.901  0.00  0.00    +0.000 OA
ENDROOT
BRANCH   1   2
ATOM      2  N   UNL     1       4.627   3.454  17.932  0.00  0.00    +0.000 N 
ATOM      3  C   UNL     1       5.107   4.051  16.812  0.00  0.00    +0.000 C 
ATOM      4  O   UNL     1       4.862   3.847  15.640  0.00  0.00    +0.000 OA
ATOM      5  C   UNL     1       6.084   5.032  17.292  0.00  0.00    +0.000 A 
ATOM      6  C   UNL     1       6.824   5.973  16.602  0.00  0.00    +0.000 A 
ATOM      7  C   UNL     1       7.690   6.779  17.349  0.00  0.00    +0.000 A 
ATOM      8  C   UNL     1       7.795   6.627  18.748  0.00  0.00    +0.000 A 
ATOM      9  C   UNL     1       7.036   5.668  19.426  0.00  0.00    +0.000 A 
ATOM     10  C   UNL     1       6.187   4.885  18.668  0.00  0.00    +0.000 A 
ATOM     11  C   UNL     1       5.271   3.813  19.069  0.00  0.00    +0.000 C 
ATOM     12  O   UNL     1       5.184   3.371  20.197  0.00  0.00    +0.000 OA
ENDBRANCH   1   2
BRANCH   1  13
ATOM     13  S   UNL     1       2.169   3.078  17.692  0.00  0.00    +0.000 S 
ATOM     14  O   UNL     1       1.215   2.137  18.250  0.00  0.00    +0.000 OA
ATOM     15  O   UNL     1       2.057   3.506  16.309  0.00  0.00    +0.000 OA
BRANCH  13  20
ATOM     16  C   UNL     1       1.765   8.118  21.101  0.00  0.00    +0.000 C 
ATOM     17  C   UNL     1       1.876   6.893  20.241  0.00  0.00    +0.000 A 
ATOM     18  C   UNL     1       2.206   6.971  18.884  0.00  0.00    +0.000 A 
ATOM     19  C   UNL     1       2.299   5.812  18.102  0.00  0.00    +0.000 A 
ATOM     20  C   UNL     1       2.061   4.557  18.681  0.00  0.00    +0.000 A 
ATOM     21  C   UNL     1       1.727   4.454  20.048  0.00  0.00    +0.000 A 
ATOM     22  C   UNL     1       1.439   3.165  20.767  0.00  0.00    +0.000 C 
ATOM     23  C   UNL     1       1.642   5.634  20.809  0.00  0.00    +0.000 A 
ENDBRANCH  13  20
ENDBRANCH   1  13
TORSDOF 3
ENDMDL
MODEL 2
REMARK VINA RESULT:      -7.9      2.060      5.716
REMARK  Name = 
REMARK  5 active torsions:
REMARK  status: ('A' for Active; 'I' for Inactive)
REMARK    1  A    between atoms: C_1  and  C_2
REMARK    2  A    between atoms: C_5  and  S_6
REMARK    3  A    between atoms: S_6  and  O_9
REMARK    4  A    between atoms: O_9  and  N_10
REMARK    5  A    between atoms: C_21  and  C_22
REMARK                            x       y       z     vdW  Elec       q    Type
REMARK                         _______ _______ _______ _____ _____    ______ ____
ROOT
ATOM      1  O   UNL     1       3.149   4.346  18.733  0.00  0.00    +0.000 OA
ENDROOT
BRANCH   1   2
ATOM      2  N   UNL     1       2.606   5.567  19.129  0.00  0.00    +0.000 N 
ATOM      3  C   UNL     1       2.672   6.687  18.364  0.00  0.00    +0.000 C 
ATOM      4  O   UNL     1       3.192   6.877  17.283  0.00  0.00    +0.000 OA
ATOM      5  C   UNL     1       1.996   7.724  19.149  0.00  0.00    +0.000 A 
ATOM      6  C   UNL     1       1.701   9.037  18.834  0.00  0.00    +0.000 A 
ATOM      7  C   UNL     1       1.038   9.794  19.807  0.00  0.00    +0.000 A 
ATOM      8  C   UNL     1       0.693   9.229  21.053  0.00  0.00    +0.000 A 
ATOM      9  C   UNL     1       1.003   7.898  21.350  0.00  0.00    +0.000 A 
ATOM     10  C   UNL     1       1.654   7.170  20.374  0.00  0.00    +0.000 A 
ATOM     11  C   UNL     1       2.107   5.775  20.371  0.00  0.00    +0.000 C 
ATOM     12  O   UNL     1       2.043   5.031  21.330  0.00  0.00    +0.000 OA
ENDBRANCH   1   2
BRANCH   1  13
ATOM     13  S   UNL     1       4.775   4.340  18.950  0.00  0.00    +0.000 S 
ATOM     14  O   UNL     1       5.140   3.041  19.482  0.00  0.00    +0.000 OA
ATOM     15  O   UNL     1       5.131   5.554  19.663  0.00  0.00    +0.000 OA
BRANCH  13  20
ATOM     16  C   UNL     1       7.417   4.799  13.473  0.00  0.00    +0.000 C 
ATOM     17  C   UNL     1       6.744   4.674  14.809  0.00  0.00    +0.000 A 
ATOM     18  C   UNL     1       5.411   4.272  14.928  0.00  0.00    +0.000 A 
ATOM     19  C   UNL     1       4.805   4.166  16.188  0.00  0.00    +0.000 A 
ATOM     20  C   UNL     1       5.540   4.464  17.344  0.00  0.00    +0.000 A 
ATOM     21  C   UNL     1       6.887   4.871  17.248  0.00  0.00    +0.000 A 
ATOM     22  C   UNL     1       7.763   5.227  18.417  0.00  0.00    +0.000 C 
ATOM     23  C   UNL     1       7.470   4.967  15.971  0.00  0.00    +0.000 A 
ENDBRANCH  13  20
ENDBRANCH   1  13
TORSDOF 3
ENDMDL
MODEL 3
REMARK VINA RESULT:      -7.9      2.064      5.990
REMARK  Name = 
REMARK  5 active torsions:
REMARK  status: ('A' for Active; 'I' for Inactive)
REMARK    1  A    between atoms: C_1  and  C_2
REMARK    2  A    between atoms: C_5  and  S_6
REMARK    3  A    between atoms: S_6  and  O_9
REMARK    4  A    between atoms: O_9  and  N_10
REMARK    5  A    between atoms: C_21  and  C_22
REMARK                            x       y       z     vdW  Elec       q    Type
REMARK                         _______ _______ _______ _____ _____    ______ ____
ROOT
ATOM      1  O   UNL     1       3.201   4.354  18.784  0.00  0.00    +0.000 OA
ENDROOT
BRANCH   1   2
ATOM      2  N   UNL     1       2.665   5.571  19.201  0.00  0.00    +0.000 N 
ATOM      3  C   UNL     1       2.028   5.729  20.389  0.00  0.00    +0.000 C 
ATOM      4  O   UNL     1       1.774   4.926  21.264  0.00  0.00    +0.000 OA
ATOM      5  C   UNL     1       1.624   7.138  20.419  0.00  0.00    +0.000 A 
ATOM      6  C   UNL     1       1.010   7.874  21.415  0.00  0.00    +0.000 A 
ATOM      7  C   UNL     1       0.745   9.221  21.144  0.00  0.00    +0.000 A 
ATOM      8  C   UNL     1       1.094   9.792  19.902  0.00  0.00    +0.000 A 
ATOM      9  C   UNL     1       1.715   9.028  18.909  0.00  0.00    +0.000 A 
ATOM     10  C   UNL     1       1.969   7.702  19.199  0.00  0.00    +0.000 A 
ATOM     11  C   UNL     1       2.599   6.655  18.390  0.00  0.00    +0.000 C 
ATOM     12  O   UNL     1       2.937   6.793  17.230  0.00  0.00    +0.000 OA
ENDBRANCH   1   2
BRANCH   1  13
ATOM     13  S   UNL     1       4.830   4.347  18.973  0.00  0.00    +0.000 S 
ATOM     14  O   UNL     1       5.203   3.049  19.503  0.00  0.00    +0.000 OA
ATOM     15  O   UNL     1       5.201   5.562  19.676  0.00  0.00    +0.000 OA
BRANCH  13  20
ATOM     16  C   UNL     1       7.379   4.782  13.450  0.00  0.00    +0.000 C 
ATOM     17  C   UNL     1       6.728   4.663  14.798  0.00  0.00    +0.000 A 
ATOM     18  C   UNL     1       5.388   4.293  14.940  0.00  0.00    +0.000 A 
ATOM     19  C   UNL     1       4.803   4.193  16.210  0.00  0.00    +0.000 A 
ATOM     20  C   UNL     1       5.567   4.464  17.354  0.00  0.00    +0.000 A 
ATOM     21  C   UNL     1       6.922   4.838  17.235  0.00  0.00    +0.000 A 
ATOM     22  C   UNL     1       7.829   5.163  18.390  0.00  0.00    +0.000 C 
ATOM     23  C   UNL     1       7.483   4.929  15.947  0.00  0.00    +0.000 A 
ENDBRANCH  13  20
ENDBRANCH   1  13
TORSDOF 3
ENDMDL
MODEL 4
REMARK VINA RESULT:      -7.6      2.684      4.460
REMARK  Name = 
REMARK  5 active torsions:
REMARK  status: ('A' for Active; 'I' for Inactive)
REMARK    1  A    between atoms: C_1  and  C_2
REMARK    2  A    between atoms: C_5  and  S_6
REMARK    3  A    between atoms: S_6  and  O_9
REMARK    4  A    between atoms: O_9  and  N_10
REMARK    5  A    between atoms: C_21  and  C_22
REMARK                            x       y       z     vdW  Elec       q    Type
REMARK                         _______ _______ _______ _____ _____    ______ ____
ROOT
ATOM      1  O   UNL     1       5.420   5.979  17.576  0.00  0.00    +0.000 OA
ENDROOT
BRANCH   1   2
ATOM      2  N   UNL     1       5.704   5.465  16.312  0.00  0.00    +0.000 N 
ATOM      3  C   UNL     1       4.920   4.542  15.699  0.00  0.00    +0.000 C 
ATOM      4  O   UNL     1       3.911   3.982  16.078  0.00  0.00    +0.000 OA
ATOM      5  C   UNL     1       5.577   4.278  14.415  0.00  0.00    +0.000 A 
ATOM      6  C   UNL     1       5.186   3.484  13.354  0.00  0.00    +0.000 A 
ATOM      7  C   UNL     1       6.040   3.431  12.246  0.00  0.00    +0.000 A 
ATOM      8  C   UNL     1       7.247   4.161  12.226  0.00  0.00    +0.000 A 
ATOM      9  C   UNL     1       7.622   4.959  13.312  0.00  0.00    +0.000 A 
ATOM     10  C   UNL     1       6.763   4.998  14.393  0.00  0.00    +0.000 A 
ATOM     11  C   UNL     1       6.863   5.727  15.661  0.00  0.00    +0.000 C 
ATOM     12  O   UNL     1       7.827   6.383  16.002  0.00  0.00    +0.000 OA
ENDBRANCH   1   2
BRANCH   1  13
ATOM     13  S   UNL     1       5.966   4.967  18.746  0.00  0.00    +0.000 S 
ATOM     14  O   UNL     1       6.652   5.775  19.737  0.00  0.00    +0.000 OA
ATOM     15  O   UNL     1       6.650   3.864  18.095  0.00  0.00    +0.000 OA
BRANCH  13  20
ATOM     16  C   UNL     1       1.102   2.593  21.555  0.00  0.00    +0.000 C 
ATOM     17  C   UNL     1       2.311   3.151  20.862  0.00  0.00    +0.000 A 
ATOM     18  C   UNL     1       3.452   2.378  20.632  0.00  0.00    +0.000 A 
ATOM     19  C   UNL     1       4.569   2.924  19.985  0.00  0.00    +0.000 A 
ATOM     20  C   UNL     1       4.546   4.261  19.562  0.00  0.00    +0.000 A 
ATOM     21  C   UNL     1       3.406   5.060  19.783  0.00  0.00    +0.000 A 
ATOM     22  C   UNL     1       3.277   6.504  19.384  0.00  0.00    +0.000 C 
ATOM     23  C   UNL     1       2.298   4.485  20.433  0.00  0.00    +0.000 A 
ENDBRANCH  13  20
ENDBRANCH   1  13
TORSDOF 3
ENDMDL
MODEL 5
REMARK VINA RESULT:      -7.4      2.743      4.301
REMARK  Name = 
REMARK  5 active torsions:
REMARK  status: ('A' for Active; 'I' for Inactive)
REMARK    1  A    between atoms: C_1  and  C_2
REMARK    2  A    between atoms: C_5  and  S_6
REMARK    3  A    between atoms: S_6  and  O_9
REMARK    4  A    between atoms: O_9  and  N_10
REMARK    5  A    between atoms: C_21  and  C_22
REMARK                            x       y       z     vdW  Elec       q    Type
REMARK                         _______ _______ _______ _____ _____    ______ ____
ROOT
ATOM      1  O   UNL     1       6.277   4.444  17.737  0.00  0.00    +0.000 OA
ENDROOT
BRANCH   1   2
ATOM      2  N   UNL     1       6.469   4.416  16.357  0.00  0.00    +0.000 N 
ATOM      3  C   UNL     1       7.197   5.349  15.694  0.00  0.00    +0.000 C 
ATOM      4  O   UNL     1       7.769   6.342  16.099  0.00  0.00    +0.000 OA
ATOM      5  C   UNL     1       7.135   4.951  14.285  0.00  0.00    +0.000 A 
ATOM      6  C   UNL     1       7.753   5.490  13.172  0.00  0.00    +0.000 A 
ATOM      7  C   UNL     1       7.492   4.881  11.939  0.00  0.00    +0.000 A 
ATOM      8  C   UNL     1       6.632   3.767  11.848  0.00  0.00    +0.000 A 
ATOM      9  C   UNL     1       6.017   3.239  12.988  0.00  0.00    +0.000 A 
ATOM     10  C   UNL     1       6.290   3.854  14.194  0.00  0.00    +0.000 A 
ATOM     11  C   UNL     1       5.817   3.546  15.547  0.00  0.00    +0.000 C 
ATOM     12  O   UNL     1       4.989   2.696  15.808  0.00  0.00    +0.000 OA
ENDBRANCH   1   2
BRANCH   1  13
ATOM     13  S   UNL     1       5.055   5.465  18.129  0.00  0.00    +0.000 S 
ATOM     14  O   UNL     1       4.297   5.723  16.919  0.00  0.00    +0.000 OA
ATOM     15  O   UNL     1       5.621   6.563  18.891  0.00  0.00    +0.000 OA
BRANCH  13  20
ATOM     16  C   UNL     1       1.297   2.556  21.950  0.00  0.00    +0.000 C 
ATOM     17  C   UNL     1       2.234   3.247  21.003  0.00  0.00    +0.000 A 
ATOM     18  C   UNL     1       3.340   2.593  20.452  0.00  0.00    +0.000 A 
ATOM     19  C   UNL     1       4.202   3.262  19.573  0.00  0.00    +0.000 A 
ATOM     20  C   UNL     1       3.958   4.603  19.239  0.00  0.00    +0.000 A 
ATOM     21  C   UNL     1       2.848   5.282  19.784  0.00  0.00    +0.000 A 
ATOM     22  C   UNL     1       2.499   6.718  19.506  0.00  0.00    +0.000 C 
ATOM     23  C   UNL     1       1.998   4.585  20.662  0.00  0.00    +0.000 A 
ENDBRANCH  13  20
ENDBRANCH   1  13
TORSDOF 3
ENDMDL
MODEL 6
REMARK VINA RESULT:      -7.3      2.116      5.656
REMARK  Name = 
REMARK  5 active torsions:
REMARK  status: ('A' for Active; 'I' for Inactive)
REMARK    1  A    between atoms: C_1  and  C_2
REMARK    2  A    between atoms: C_5  and  S_6
REMARK    3  A    between atoms: S_6  and  O_9
REMARK    4  A    between atoms: O_9  and  N_10
REMARK    5  A    between atoms: C_21  and  C_22
REMARK                            x       y       z     vdW  Elec       q    Type
REMARK                         _______ _______ _______ _____ _____    ______ ____
ROOT
ATOM      1  O   UNL     1       5.243   5.091  16.626  0.00  0.00    +0.000 OA
ENDROOT
BRANCH   1   2
ATOM      2  N   UNL     1       4.236   4.726  17.518  0.00  0.00    +0.000 N 
ATOM      3  C   UNL     1       3.750   3.462  17.606  0.00  0.00    +0.000 C 
ATOM      4  O   UNL     1       4.025   2.462  16.974  0.00  0.00    +0.000 OA
ATOM      5  C   UNL     1       2.718   3.522  18.646  0.00  0.00    +0.000 A 
ATOM      6  C   UNL     1       1.947   2.520  19.203  0.00  0.00    +0.000 A 
ATOM      7  C   UNL     1       1.030   2.894  20.192  0.00  0.00    +0.000 A 
ATOM      8  C   UNL     1       0.906   4.241  20.592  0.00  0.00    +0.000 A 
ATOM      9  C   UNL     1       1.696   5.239  20.013  0.00  0.00    +0.000 A 
ATOM     10  C   UNL     1       2.596   4.846  19.042  0.00  0.00    +0.000 A 
ATOM     11  C   UNL     1       3.554   5.633  18.260  0.00  0.00    +0.000 C 
ATOM     12  O   UNL     1       3.641   6.844  18.297  0.00  0.00    +0.000 OA
ENDBRANCH   1   2
BRANCH   1  13
ATOM     13  S   UNL     1       6.721   4.841  17.292  0.00  0.00    +0.000 S 
ATOM     14  O   UNL     1       7.582   4.306  16.254  0.00  0.00    +0.000 OA
ATOM     15  O   UNL     1       6.531   4.116  18.535  0.00  0.00    +0.000 OA
BRANCH  13  20
ATOM     16  C   UNL     1       9.013  10.266  18.870  0.00  0.00    +0.000 C 
ATOM     17  C   UNL     1       8.442   8.942  18.456  0.00  0.00    +0.000 A 
ATOM     18  C   UNL     1       7.688   8.796  17.288  0.00  0.00    +0.000 A 
ATOM     19  C   UNL     1       7.163   7.549  16.925  0.00  0.00    +0.000 A 
ATOM     20  C   UNL     1       7.393   6.431  17.740  0.00  0.00    +0.000 A 
ATOM     21  C   UNL     1       8.150   6.554  18.923  0.00  0.00    +0.000 A 
ATOM     22  C   UNL     1       8.447   5.428  19.875  0.00  0.00    +0.000 C 
ATOM     23  C   UNL     1       8.667   7.818  19.262  0.00  0.00    +0.000 A 
ENDBRANCH  13  20
ENDBRANCH   1  13
TORSDOF 3
ENDMDL
MODEL 7
REMARK VINA RESULT:      -7.3      2.698      4.486
REMARK  Name = 
REMARK  5 active torsions:
REMARK  status: ('A' for Active; 'I' for Inactive)
REMARK    1  A    between atoms: C_1  and  C_2
REMARK    2  A    between atoms: C_5  and  S_6
REMARK    3  A    between atoms: S_6  and  O_9
REMARK    4  A    between atoms: O_9  and  N_10
REMARK    5  A    between atoms: C_21  and  C_22
REMARK                            x       y       z     vdW  Elec       q    Type
REMARK                         _______ _______ _______ _____ _____    ______ ____
ROOT
ATOM      1  O   UNL     1       5.684   5.940  17.677  0.00  0.00    +0.000 OA
ENDROOT
BRANCH   1   2
ATOM      2  N   UNL     1       5.906   5.423  16.402  0.00  0.00    +0.000 N 
ATOM      3  C   UNL     1       6.972   5.774  15.639  0.00  0.00    +0.000 C 
ATOM      4  O   UNL     1       7.872   6.562  15.850  0.00  0.00    +0.000 OA
ATOM      5  C   UNL     1       6.815   5.016  14.394  0.00  0.00    +0.000 A 
ATOM      6  C   UNL     1       7.642   4.923  13.291  0.00  0.00    +0.000 A 
ATOM      7  C   UNL     1       7.213   4.106  12.238  0.00  0.00    +0.000 A 
ATOM      8  C   UNL     1       5.986   3.413  12.312  0.00  0.00    +0.000 A 
ATOM      9  C   UNL     1       5.166   3.522  13.439  0.00  0.00    +0.000 A 
ATOM     10  C   UNL     1       5.610   4.332  14.466  0.00  0.00    +0.000 A 
ATOM     11  C   UNL     1       4.998   4.649  15.760  0.00  0.00    +0.000 C 
ATOM     12  O   UNL     1       3.891   4.284  16.104  0.00  0.00    +0.000 OA
ENDBRANCH   1   2
BRANCH   1  13
ATOM     13  S   UNL     1       6.136   4.858  18.824  0.00  0.00    +0.000 S 
ATOM     14  O   UNL     1       6.827   5.591  19.869  0.00  0.00    +0.000 OA
ATOM     15  O   UNL     1       6.785   3.746  18.154  0.00  0.00    +0.000 OA
BRANCH  13  20
ATOM     16  C   UNL     1       1.059   2.640  21.372  0.00  0.00    +0.000 C 
ATOM     17  C   UNL     1       2.319   3.160  20.744  0.00  0.00    +0.000 A 
ATOM     18  C   UNL     1       3.452   2.355  20.587  0.00  0.00    +0.000 A 
ATOM     19  C   UNL     1       4.617   2.865  20.001  0.00  0.00    +0.000 A 
ATOM     20  C   UNL     1       4.654   4.197  19.564  0.00  0.00    +0.000 A 
ATOM     21  C   UNL     1       3.524   5.028  19.712  0.00  0.00    +0.000 A 
ATOM     22  C   UNL     1       3.456   6.470  19.292  0.00  0.00    +0.000 C 
ATOM     23  C   UNL     1       2.366   4.488  20.303  0.00  0.00    +0.000 A 
ENDBRANCH  13  20
ENDBRANCH   1  13
TORSDOF 3
ENDMDL
MODEL 8
REMARK VINA RESULT:      -7.2      0.150      1.830
REMARK  Name = 
REMARK  5 active torsions:
REMARK  status: ('A' for Active; 'I' for Inactive)
REMARK    1  A    between atoms: C_1  and  C_2
REMARK    2  A    between atoms: C_5  and  S_6
REMARK    3  A    between atoms: S_6  and  O_9
REMARK    4  A    between atoms: O_9  and  N_10
REMARK    5  A    between atoms: C_21  and  C_22
REMARK                            x       y       z     vdW  Elec       q    Type
REMARK                         _______ _______ _______ _____ _____    ______ ____
ROOT
ATOM      1  O   UNL     1       3.731   2.360  18.044  0.00  0.00    +0.000 OA
ENDROOT
BRANCH   1   2
ATOM      2  N   UNL     1       4.678   3.383  18.028  0.00  0.00    +0.000 N 
ATOM      3  C   UNL     1       5.247   3.880  19.156  0.00  0.00    +0.000 C 
ATOM      4  O   UNL     1       5.062   3.602  20.324  0.00  0.00    +0.000 OA
ATOM      5  C   UNL     1       6.162   4.926  18.691  0.00  0.00    +0.000 A 
ATOM      6  C   UNL     1       7.056   5.713  19.393  0.00  0.00    +0.000 A 
ATOM      7  C   UNL     1       7.803   6.642  18.660  0.00  0.00    +0.000 A 
ATOM      8  C   UNL     1       7.640   6.762  17.264  0.00  0.00    +0.000 A 
ATOM      9  C   UNL     1       6.729   5.956  16.574  0.00  0.00    +0.000 A 
ATOM     10  C   UNL     1       6.005   5.044  17.317  0.00  0.00    +0.000 A 
ATOM     11  C   UNL     1       4.993   4.069  16.902  0.00  0.00    +0.000 C 
ATOM     12  O   UNL     1       4.553   3.974  15.773  0.00  0.00    +0.000 OA
ENDBRANCH   1   2
BRANCH   1  13
ATOM     13  S   UNL     1       2.224   2.967  17.819  0.00  0.00    +0.000 S 
ATOM     14  O   UNL     1       1.285   2.036  18.416  0.00  0.00    +0.000 OA
ATOM     15  O   UNL     1       2.101   3.341  16.422  0.00  0.00    +0.000 OA
BRANCH  13  20
ATOM     16  C   UNL     1       1.768   8.125  21.038  0.00  0.00    +0.000 C 
ATOM     17  C   UNL     1       1.891   6.871  20.224  0.00  0.00    +0.000 A 
ATOM     18  C   UNL     1       2.213   6.902  18.864  0.00  0.00    +0.000 A 
ATOM     19  C   UNL     1       2.318   5.716  18.125  0.00  0.00    +0.000 A 
ATOM     20  C   UNL     1       2.100   4.481  18.752  0.00  0.00    +0.000 A 
ATOM     21  C   UNL     1       1.775   4.425  20.124  0.00  0.00    +0.000 A 
ATOM     22  C   UNL     1       1.510   3.160  20.893  0.00  0.00    +0.000 C 
ATOM     23  C   UNL     1       1.678   5.631  20.841  0.00  0.00    +0.000 A 
ENDBRANCH  13  20
ENDBRANCH   1  13
TORSDOF 3
ENDMDL
MODEL 9
REMARK VINA RESULT:      -7.2      2.734      4.239
REMARK  Name = 
REMARK  5 active torsions:
REMARK  status: ('A' for Active; 'I' for Inactive)
REMARK    1  A    between atoms: C_1  and  C_2
REMARK    2  A    between atoms: C_5  and  S_6
REMARK    3  A    between atoms: S_6  and  O_9
REMARK    4  A    between atoms: O_9  and  N_10
REMARK    5  A    between atoms: C_21  and  C_22
REMARK                            x       y       z     vdW  Elec       q    Type
REMARK                         _______ _______ _______ _____ _____    ______ ____
ROOT
ATOM      1  O   UNL     1       6.114   4.548  17.744  0.00  0.00    +0.000 OA
ENDROOT
BRANCH   1   2
ATOM      2  N   UNL     1       6.333   4.509  16.368  0.00  0.00    +0.000 N 
ATOM      3  C   UNL     1       5.876   3.506  15.576  0.00  0.00    +0.000 C 
ATOM      4  O   UNL     1       5.259   2.497  15.854  0.00  0.00    +0.000 OA
ATOM      5  C   UNL     1       6.329   3.852  14.226  0.00  0.00    +0.000 A 
ATOM      6  C   UNL     1       6.089   3.232  13.014  0.00  0.00    +0.000 A 
ATOM      7  C   UNL     1       6.670   3.806  11.876  0.00  0.00    +0.000 A 
ATOM      8  C   UNL     1       7.465   4.967  11.977  0.00  0.00    +0.000 A 
ATOM      9  C   UNL     1       7.694   5.577  13.215  0.00  0.00    +0.000 A 
ATOM     10  C   UNL     1       7.109   4.995  14.322  0.00  0.00    +0.000 A 
ATOM     11  C   UNL     1       7.151   5.385  15.735  0.00  0.00    +0.000 C 
ATOM     12  O   UNL     1       7.824   6.294  16.176  0.00  0.00    +0.000 OA
ENDBRANCH   1   2
BRANCH   1  13
ATOM     13  S   UNL     1       4.835   5.512  18.097  0.00  0.00    +0.000 S 
ATOM     14  O   UNL     1       4.062   5.674  16.880  0.00  0.00    +0.000 OA
ATOM     15  O   UNL     1       5.338   6.674  18.808  0.00  0.00    +0.000 OA
BRANCH  13  20
ATOM     16  C   UNL     1       1.264   2.558  22.059  0.00  0.00    +0.000 C 
ATOM     17  C   UNL     1       2.155   3.260  21.077  0.00  0.00    +0.000 A 
ATOM     18  C   UNL     1       3.226   2.610  20.456  0.00  0.00    +0.000 A 
ATOM     19  C   UNL     1       4.045   3.289  19.545  0.00  0.00    +0.000 A 
ATOM     20  C   UNL     1       3.793   4.637  19.249  0.00  0.00    +0.000 A 
ATOM     21  C   UNL     1       2.718   5.313  19.863  0.00  0.00    +0.000 A 
ATOM     22  C   UNL     1       2.365   6.756  19.629  0.00  0.00    +0.000 C 
ATOM     23  C   UNL     1       1.911   4.605  20.772  0.00  0.00    +0.000 A 
ENDBRANCH  13  20
ENDBRANCH   1  13
TORSDOF 3
ENDMDL
