MODEL 1
REMARK VINA RESULT:      -5.9      0.000      0.000
REMARK  Name = 
REMARK  6 active torsions:
REMARK  status: ('A' for Active; 'I' for Inactive)
REMARK    1  A    between atoms: C_1  and  C_2
REMARK    2  A    between atoms: C_2  and  C_3
REMARK    3  A    between atoms: C_3  and  C_4
REMARK    4  A    between atoms: C_4  and  C_5
REMARK    5  A    between atoms: C_10  and  O_11
REMARK    6  A    between atoms: O_11  and  C_12
REMARK                            x       y       z     vdW  Elec       q    Type
REMARK                         _______ _______ _______ _____ _____    ______ ____
ROOT
ATOM      1  C   UNL     1       4.604   4.033  16.895  0.00  0.00    +0.000 C 
ATOM      2  C   UNL     1       4.992   4.430  15.677  0.00  0.00    +0.000 C 
ATOM      3  C   UNL     1       6.361   4.909  15.411  0.00  0.00    +0.000 C 
ATOM      4  O   UNL     1       6.703   5.244  14.286  0.00  0.00    +0.000 OA
ATOM      5  C   UNL     1       7.283   4.976  16.549  0.00  0.00    +0.000 C 
ATOM      6  C   UNL     1       6.952   4.588  17.783  0.00  0.00    +0.000 C 
ATOM      7  C   UNL     1       5.574   4.035  18.033  0.00  0.00    +0.000 C 
ATOM      8  O   UNL     1       5.230   3.584  19.120  0.00  0.00    +0.000 OA
ENDROOT
BRANCH   6   9
ATOM      9  O   UNL     1       7.929   4.712  18.765  0.00  0.00    +0.000 OA
ATOM     10  C   UNL     1       7.961   5.905  19.540  0.00  0.00    +0.000 C 
ENDBRANCH   6   9
BRANCH   1  11
ATOM     11  C   UNL     1       3.211   3.523  17.175  0.00  0.00    +0.000 C 
BRANCH  11  12
ATOM     12  C   UNL     1       2.295   4.600  17.767  0.00  0.00    +0.000 C 
BRANCH  12  14
ATOM     13  C   UNL     1       1.174   2.566  18.721  0.00  0.00    +0.000 C 
ATOM     14  C   UNL     1       1.443   4.051  18.912  0.00  0.00    +0.000 C 
ENDBRANCH  12  14
ENDBRANCH  11  12
ENDBRANCH   1  11
TORSDOF 4
ENDMDL
MODEL 2
REMARK VINA RESULT:      -5.9      1.423      1.569
REMARK  Name = 
REMARK  6 active torsions:
REMARK  status: ('A' for Active; 'I' for Inactive)
REMARK    1  A    between atoms: C_1  and  C_2
REMARK    2  A    between atoms: C_2  and  C_3
REMARK    3  A    between atoms: C_3  and  C_4
REMARK    4  A    between atoms: C_4  and  C_5
REMARK    5  A    between atoms: C_10  and  O_11
REMARK    6  A    between atoms: O_11  and  C_12
REMARK                            x       y       z     vdW  Elec       q    Type
REMARK                         _______ _______ _______ _____ _____    ______ ____
ROOT
ATOM      1  C   UNL     1       3.943   3.570  17.845  0.00  0.00    +0.000 C 
ATOM      2  C   UNL     1       4.000   4.344  16.755  0.00  0.00    +0.000 C 
ATOM      3  C   UNL     1       4.983   5.435  16.622  0.00  0.00    +0.000 C 
ATOM      4  O   UNL     1       5.035   6.114  15.607  0.00  0.00    +0.000 OA
ATOM      5  C   UNL     1       5.881   5.673  17.755  0.00  0.00    +0.000 C 
ATOM      6  C   UNL     1       5.872   4.929  18.865  0.00  0.00    +0.000 C 
ATOM      7  C   UNL     1       4.912   3.774  18.965  0.00  0.00    +0.000 C 
ATOM      8  O   UNL     1       4.906   3.001  19.917  0.00  0.00    +0.000 OA
ENDROOT
BRANCH   6   9
ATOM      9  O   UNL     1       6.779   5.274  19.861  0.00  0.00    +0.000 OA
ATOM     10  C   UNL     1       8.061   5.753  19.472  0.00  0.00    +0.000 C 
ENDBRANCH   6   9
BRANCH   1  11
ATOM     11  C   UNL     1       2.953   2.440  17.984  0.00  0.00    +0.000 C 
BRANCH  11  12
ATOM     12  C   UNL     1       1.525   2.932  18.247  0.00  0.00    +0.000 C 
BRANCH  12  14
ATOM     13  C   UNL     1       1.212   2.978  20.738  0.00  0.00    +0.000 C 
ATOM     14  C   UNL     1       1.452   3.817  19.492  0.00  0.00    +0.000 C 
ENDBRANCH  12  14
ENDBRANCH  11  12
ENDBRANCH   1  11
TORSDOF 4
ENDMDL
MODEL 3
REMARK VINA RESULT:      -5.9      2.511      4.562
REMARK  Name = 
REMARK  6 active torsions:
REMARK  status: ('A' for Active; 'I' for Inactive)
REMARK    1  A    between atoms: C_1  and  C_2
REMARK    2  A    between atoms: C_2  and  C_3
REMARK    3  A    between atoms: C_3  and  C_4
REMARK    4  A    between atoms: C_4  and  C_5
REMARK    5  A    between atoms: C_10  and  O_11
REMARK    6  A    between atoms: O_11  and  C_12
REMARK                            x       y       z     vdW  Elec       q    Type
REMARK                         _______ _______ _______ _____ _____    ______ ____
ROOT
ATOM      1  C   UNL     1       6.060   4.079  14.747  0.00  0.00    +0.000 C 
ATOM      2  C   UNL     1       5.072   3.652  15.543  0.00  0.00    +0.000 C 
ATOM      3  C   UNL     1       4.938   4.112  16.937  0.00  0.00    +0.000 C 
ATOM      4  O   UNL     1       4.014   3.730  17.640  0.00  0.00    +0.000 OA
ATOM      5  C   UNL     1       5.961   5.032  17.443  0.00  0.00    +0.000 C 
ATOM      6  C   UNL     1       6.965   5.495  16.693  0.00  0.00    +0.000 C 
ATOM      7  C   UNL     1       7.055   5.075  15.250  0.00  0.00    +0.000 C 
ATOM      8  O   UNL     1       7.900   5.524  14.483  0.00  0.00    +0.000 OA
ENDROOT
BRANCH   6   9
ATOM      9  O   UNL     1       7.864   6.360  17.308  0.00  0.00    +0.000 OA
ATOM     10  C   UNL     1       7.460   7.706  17.533  0.00  0.00    +0.000 C 
ENDBRANCH   6   9
BRANCH   1  11
ATOM     11  C   UNL     1       6.196   3.629  13.313  0.00  0.00    +0.000 C 
BRANCH  11  12
ATOM     12  C   UNL     1       4.959   3.959  12.470  0.00  0.00    +0.000 C 
BRANCH  12  14
ATOM     13  C   UNL     1       3.438   3.215  10.616  0.00  0.00    +0.000 C 
ATOM     14  C   UNL     1       4.651   2.853  11.460  0.00  0.00    +0.000 C 
ENDBRANCH  12  14
ENDBRANCH  11  12
ENDBRANCH   1  11
TORSDOF 4
ENDMDL
MODEL 4
REMARK VINA RESULT:      -5.8      2.035      3.449
REMARK  Name = 
REMARK  6 active torsions:
REMARK  status: ('A' for Active; 'I' for Inactive)
REMARK    1  A    between atoms: C_1  and  C_2
REMARK    2  A    between atoms: C_2  and  C_3
REMARK    3  A    between atoms: C_3  and  C_4
REMARK    4  A    between atoms: C_4  and  C_5
REMARK    5  A    between atoms: C_10  and  O_11
REMARK    6  A    between atoms: O_11  and  C_12
REMARK                            x       y       z     vdW  Elec       q    Type
REMARK                         _______ _______ _______ _____ _____    ______ ____
ROOT
ATOM      1  C   UNL     1       5.748   5.221  17.528  0.00  0.00    +0.000 C 
ATOM      2  C   UNL     1       6.265   4.813  18.694  0.00  0.00    +0.000 C 
ATOM      3  C   UNL     1       7.334   5.562  19.379  0.00  0.00    +0.000 C 
ATOM      4  O   UNL     1       7.776   5.186  20.455  0.00  0.00    +0.000 OA
ATOM      5  C   UNL     1       7.848   6.762  18.713  0.00  0.00    +0.000 C 
ATOM      6  C   UNL     1       7.366   7.218  17.553  0.00  0.00    +0.000 C 
ATOM      7  C   UNL     1       6.228   6.487  16.894  0.00  0.00    +0.000 C 
ATOM      8  O   UNL     1       5.683   6.895  15.874  0.00  0.00    +0.000 OA
ENDROOT
BRANCH   6   9
ATOM      9  O   UNL     1       7.955   8.368  17.036  0.00  0.00    +0.000 OA
ATOM     10  C   UNL     1       8.273   9.426  17.933  0.00  0.00    +0.000 C 
ENDBRANCH   6   9
BRANCH   1  11
ATOM     11  C   UNL     1       4.641   4.472  16.828  0.00  0.00    +0.000 C 
BRANCH  11  12
ATOM     12  C   UNL     1       3.713   3.739  17.803  0.00  0.00    +0.000 C 
BRANCH  12  14
ATOM     13  C   UNL     1       2.346   5.808  18.191  0.00  0.00    +0.000 C 
ATOM     14  C   UNL     1       2.306   4.337  17.805  0.00  0.00    +0.000 C 
ENDBRANCH  12  14
ENDBRANCH  11  12
ENDBRANCH   1  11
TORSDOF 4
ENDMDL
MODEL 5
REMARK VINA RESULT:      -5.8      2.130      3.119
REMARK  Name = 
REMARK  6 active torsions:
REMARK  status: ('A' for Active; 'I' for Inactive)
REMARK    1  A    between atoms: C_1  and  C_2
REMARK    2  A    between atoms: C_2  and  C_3
REMARK    3  A    between atoms: C_3  and  C_4
REMARK    4  A    between atoms: C_4  and  C_5
REMARK    5  A    between atoms: C_10  and  O_11
REMARK    6  A    between atoms: O_11  and  C_12
REMARK                            x       y       z     vdW  Elec       q    Type
REMARK                         _______ _______ _______ _____ _____    ______ ____
ROOT
ATOM      1  C   UNL     1       2.514   4.479  18.014  0.00  0.00    +0.000 C 
ATOM      2  C   UNL     1       2.349   5.807  18.053  0.00  0.00    +0.000 C 
ATOM      3  C   UNL     1       3.470   6.741  17.843  0.00  0.00    +0.000 C 
ATOM      4  O   UNL     1       3.293   7.951  17.858  0.00  0.00    +0.000 OA
ATOM      5  C   UNL     1       4.798   6.159  17.629  0.00  0.00    +0.000 C 
ATOM      6  C   UNL     1       5.021   4.843  17.576  0.00  0.00    +0.000 C 
ATOM      7  C   UNL     1       3.860   3.897  17.722  0.00  0.00    +0.000 C 
ATOM      8  O   UNL     1       3.978   2.682  17.601  0.00  0.00    +0.000 OA
ENDROOT
BRANCH   6   9
ATOM      9  O   UNL     1       6.335   4.435  17.370  0.00  0.00    +0.000 OA
ATOM     10  C   UNL     1       6.908   4.625  16.082  0.00  0.00    +0.000 C 
ENDBRANCH   6   9
BRANCH   1  11
ATOM     11  C   UNL     1       1.370   3.515  18.209  0.00  0.00    +0.000 C 
BRANCH  11  12
ATOM     12  C   UNL     1       0.827   3.523  19.642  0.00  0.00    +0.000 C 
BRANCH  12  14
ATOM     13  C   UNL     1       2.184   3.340  21.747  0.00  0.00    +0.000 C 
ATOM     14  C   UNL     1       1.620   2.585  20.553  0.00  0.00    +0.000 C 
ENDBRANCH  12  14
ENDBRANCH  11  12
ENDBRANCH   1  11
TORSDOF 4
ENDMDL
MODEL 6
REMARK VINA RESULT:      -5.8      1.151      1.408
REMARK  Name = 
REMARK  6 active torsions:
REMARK  status: ('A' for Active; 'I' for Inactive)
REMARK    1  A    between atoms: C_1  and  C_2
REMARK    2  A    between atoms: C_2  and  C_3
REMARK    3  A    between atoms: C_3  and  C_4
REMARK    4  A    between atoms: C_4  and  C_5
REMARK    5  A    between atoms: C_10  and  O_11
REMARK    6  A    between atoms: O_11  and  C_12
REMARK                            x       y       z     vdW  Elec       q    Type
REMARK                         _______ _______ _______ _____ _____    ______ ____
ROOT
ATOM      1  C   UNL     1       3.805   4.364  17.536  0.00  0.00    +0.000 C 
ATOM      2  C   UNL     1       4.316   3.994  16.356  0.00  0.00    +0.000 C 
ATOM      3  C   UNL     1       5.767   4.005  16.094  0.00  0.00    +0.000 C 
ATOM      4  O   UNL     1       6.216   3.640  15.018  0.00  0.00    +0.000 OA
ATOM      5  C   UNL     1       6.640   4.481  17.171  0.00  0.00    +0.000 C 
ATOM      6  C   UNL     1       6.187   4.857  18.370  0.00  0.00    +0.000 C 
ATOM      7  C   UNL     1       4.711   4.777  18.652  0.00  0.00    +0.000 C 
ATOM      8  O   UNL     1       4.234   5.027  19.754  0.00  0.00    +0.000 OA
ENDROOT
BRANCH   6   9
ATOM      9  O   UNL     1       7.132   5.290  19.293  0.00  0.00    +0.000 OA
ATOM     10  C   UNL     1       7.993   6.362  18.927  0.00  0.00    +0.000 C 
ENDBRANCH   6   9
BRANCH   1  11
ATOM     11  C   UNL     1       2.324   4.339  17.820  0.00  0.00    +0.000 C 
BRANCH  11  12
ATOM     12  C   UNL     1       1.796   2.924  18.085  0.00  0.00    +0.000 C 
BRANCH  12  14
ATOM     13  C   UNL     1       0.925   3.854  20.248  0.00  0.00    +0.000 C 
ATOM     14  C   UNL     1       1.595   2.664  19.578  0.00  0.00    +0.000 C 
ENDBRANCH  12  14
ENDBRANCH  11  12
ENDBRANCH   1  11
TORSDOF 4
ENDMDL
MODEL 7
REMARK VINA RESULT:      -5.8      2.254      4.881
REMARK  Name = 
REMARK  6 active torsions:
REMARK  status: ('A' for Active; 'I' for Inactive)
REMARK    1  A    between atoms: C_1  and  C_2
REMARK    2  A    between atoms: C_2  and  C_3
REMARK    3  A    between atoms: C_3  and  C_4
REMARK    4  A    between atoms: C_4  and  C_5
REMARK    5  A    between atoms: C_10  and  O_11
REMARK    6  A    between atoms: O_11  and  C_12
REMARK                            x       y       z     vdW  Elec       q    Type
REMARK                         _______ _______ _______ _____ _____    ______ ____
ROOT
ATOM      1  C   UNL     1       4.351   3.985  17.739  0.00  0.00    +0.000 C 
ATOM      2  C   UNL     1       3.187   4.197  17.113  0.00  0.00    +0.000 C 
ATOM      3  C   UNL     1       1.890   3.969  17.777  0.00  0.00    +0.000 C 
ATOM      4  O   UNL     1       0.838   4.192  17.195  0.00  0.00    +0.000 OA
ATOM      5  C   UNL     1       1.918   3.458  19.150  0.00  0.00    +0.000 C 
ATOM      6  C   UNL     1       3.049   3.235  19.825  0.00  0.00    +0.000 C 
ATOM      7  C   UNL     1       4.368   3.534  19.165  0.00  0.00    +0.000 C 
ATOM      8  O   UNL     1       5.440   3.431  19.752  0.00  0.00    +0.000 OA
ENDROOT
BRANCH   6   9
ATOM      9  O   UNL     1       2.922   2.745  21.121  0.00  0.00    +0.000 OA
ATOM     10  C   UNL     1       1.619   2.650  21.683  0.00  0.00    +0.000 C 
ENDBRANCH   6   9
BRANCH   1  11
ATOM     11  C   UNL     1       5.684   4.231  17.076  0.00  0.00    +0.000 C 
BRANCH  11  12
ATOM     12  C   UNL     1       5.717   5.544  16.286  0.00  0.00    +0.000 C 
BRANCH  12  14
ATOM     13  C   UNL     1       6.295   3.964  14.422  0.00  0.00    +0.000 C 
ATOM     14  C   UNL     1       5.659   5.299  14.778  0.00  0.00    +0.000 C 
ENDBRANCH  12  14
ENDBRANCH  11  12
ENDBRANCH   1  11
TORSDOF 4
ENDMDL
MODEL 8
REMARK VINA RESULT:      -5.7      0.841      1.384
REMARK  Name = 
REMARK  6 active torsions:
REMARK  status: ('A' for Active; 'I' for Inactive)
REMARK    1  A    between atoms: C_1  and  C_2
REMARK    2  A    between atoms: C_2  and  C_3
REMARK    3  A    between atoms: C_3  and  C_4
REMARK    4  A    between atoms: C_4  and  C_5
REMARK    5  A    between atoms: C_10  and  O_11
REMARK    6  A    between atoms: O_11  and  C_12
REMARK                            x       y       z     vdW  Elec       q    Type
REMARK                         _______ _______ _______ _____ _____    ______ ____
ROOT
ATOM      1  C   UNL     1       4.464   3.885  17.208  0.00  0.00    +0.000 C 
ATOM      2  C   UNL     1       4.725   4.097  15.912  0.00  0.00    +0.000 C 
ATOM      3  C   UNL     1       6.060   4.508  15.441  0.00  0.00    +0.000 C 
ATOM      4  O   UNL     1       6.284   4.673  14.251  0.00  0.00    +0.000 OA
ATOM      5  C   UNL     1       7.096   4.720  16.457  0.00  0.00    +0.000 C 
ATOM      6  C   UNL     1       6.894   4.518  17.762  0.00  0.00    +0.000 C 
ATOM      7  C   UNL     1       5.548   4.032  18.228  0.00  0.00    +0.000 C 
ATOM      8  O   UNL     1       5.317   3.747  19.398  0.00  0.00    +0.000 OA
ENDROOT
BRANCH   6   9
ATOM      9  O   UNL     1       7.968   4.762  18.611  0.00  0.00    +0.000 OA
ATOM     10  C   UNL     1       8.068   6.043  19.222  0.00  0.00    +0.000 C 
ENDBRANCH   6   9
BRANCH   1  11
ATOM     11  C   UNL     1       3.106   3.446  17.699  0.00  0.00    +0.000 C 
BRANCH  11  12
ATOM     12  C   UNL     1       2.078   4.582  17.688  0.00  0.00    +0.000 C 
BRANCH  12  14
ATOM     13  C   UNL     1       2.692   6.952  18.244  0.00  0.00    +0.000 C 
ATOM     14  C   UNL     1       2.331   5.588  18.811  0.00  0.00    +0.000 C 
ENDBRANCH  12  14
ENDBRANCH  11  12
ENDBRANCH   1  11
TORSDOF 4
ENDMDL
MODEL 9
REMARK VINA RESULT:      -5.7      2.314      3.295
REMARK  Name = 
REMARK  6 active torsions:
REMARK  status: ('A' for Active; 'I' for Inactive)
REMARK    1  A    between atoms: C_1  and  C_2
REMARK    2  A    between atoms: C_2  and  C_3
REMARK    3  A    between atoms: C_3  and  C_4
REMARK    4  A    between atoms: C_4  and  C_5
REMARK    5  A    between atoms: C_10  and  O_11
REMARK    6  A    between atoms: O_11  and  C_12
REMARK                            x       y       z     vdW  Elec       q    Type
REMARK                         _______ _______ _______ _____ _____    ______ ____
ROOT
ATOM      1  C   UNL     1       3.091   4.497  17.598  0.00  0.00    +0.000 C 
ATOM      2  C   UNL     1       2.392   5.508  18.129  0.00  0.00    +0.000 C 
ATOM      3  C   UNL     1       2.874   6.901  18.081  0.00  0.00    +0.000 C 
ATOM      4  O   UNL     1       2.209   7.813  18.550  0.00  0.00    +0.000 OA
ATOM      5  C   UNL     1       4.180   7.139  17.462  0.00  0.00    +0.000 C 
ATOM      6  C   UNL     1       4.918   6.171  16.912  0.00  0.00    +0.000 C 
ATOM      7  C   UNL     1       4.388   4.762  16.903  0.00  0.00    +0.000 C 
ATOM      8  O   UNL     1       4.972   3.839  16.344  0.00  0.00    +0.000 OA
ENDROOT
BRANCH   6   9
ATOM      9  O   UNL     1       6.140   6.544  16.363  0.00  0.00    +0.000 OA
ATOM     10  C   UNL     1       7.240   6.749  17.242  0.00  0.00    +0.000 C 
ENDBRANCH   6   9
BRANCH   1  11
ATOM     11  C   UNL     1       2.599   3.071  17.625  0.00  0.00    +0.000 C 
BRANCH  11  12
ATOM     12  C   UNL     1       1.312   2.905  18.441  0.00  0.00    +0.000 C 
BRANCH  12  14
ATOM     13  C   UNL     1       1.262   3.219  20.932  0.00  0.00    +0.000 C 
ATOM     14  C   UNL     1       1.583   2.255  19.799  0.00  0.00    +0.000 C 
ENDBRANCH  12  14
ENDBRANCH  11  12
ENDBRANCH   1  11
TORSDOF 4
ENDMDL
