MODEL 1
REMARK VINA RESULT:      -7.7      0.000      0.000
REMARK  Name = 
REMARK  6 active torsions:
REMARK  status: ('A' for Active; 'I' for Inactive)
REMARK    1  A    between atoms: C_1  and  C_2
REMARK    2  A    between atoms: C_5  and  C_6
REMARK    3  A    between atoms: N_8  and  C_9
REMARK    4  A    between atoms: C_14  and  C_15
REMARK    5  A    between atoms: N_17  and  C_18
REMARK    6  A    between atoms: C_21  and  C_22
REMARK                            x       y       z     vdW  Elec       q    Type
REMARK                         _______ _______ _______ _____ _____    ______ ____
ROOT
ATOM      1  C   UNL     1       3.986   3.631  18.114  0.00  0.00    +0.000 A 
ATOM      2  C   UNL     1       4.181   2.506  18.913  0.00  0.00    +0.000 A 
ATOM      3  C   UNL     1       3.574   2.396  20.167  0.00  0.00    +0.000 A 
ATOM      4  C   UNL     1       2.754   3.416  20.650  0.00  0.00    +0.000 A 
ATOM      5 CL   UNL     1       2.076   3.163  22.221  0.00  0.00    +0.000 Cl
ATOM      6  C   UNL     1       2.551   4.568  19.878  0.00  0.00    +0.000 A 
ATOM      7  C   UNL     1       3.201   4.673  18.621  0.00  0.00    +0.000 A 
ENDROOT
BRANCH   1  10
ATOM      8  C   UNL     1       5.527   4.642  16.454  0.00  0.00    +0.000 C 
ATOM      9  O   UNL     1       6.084   5.437  17.208  0.00  0.00    +0.000 OA
ATOM     10  N   UNL     1       4.526   3.752  16.807  0.00  0.00    +0.000 N 
ATOM     11  H   UNL     1       4.292   3.026  16.143  0.00  0.00    +0.000 HD
BRANCH   8  16
ATOM     12  C   UNL     1       7.471   4.027  11.027  0.00  0.00    +0.000 C 
ATOM     13  C   UNL     1       6.961   4.235  12.424  0.00  0.00    +0.000 A 
ATOM     14  C   UNL     1       5.762   3.646  12.831  0.00  0.00    +0.000 A 
ATOM     15  C   UNL     1       5.307   3.817  14.138  0.00  0.00    +0.000 A 
ATOM     16  C   UNL     1       6.035   4.588  15.055  0.00  0.00    +0.000 A 
ATOM     17  C   UNL     1       7.231   5.188  14.655  0.00  0.00    +0.000 A 
ATOM     18  C   UNL     1       7.690   5.008  13.341  0.00  0.00    +0.000 A 
ENDBRANCH   8  16
ENDBRANCH   1  10
BRANCH   6  19
ATOM     19  C   UNL     1       1.689   5.727  20.270  0.00  0.00    +0.000 C 
ATOM     20  O   UNL     1       0.543   5.477  20.629  0.00  0.00    +0.000 OA
ATOM     21  N   UNL     1       2.253   6.990  20.215  0.00  0.00    +0.000 N 
ATOM     22  H   UNL     1       3.169   7.070  19.785  0.00  0.00    +0.000 HD
BRANCH  21  23
ATOM     23  C   UNL     1       1.626   8.208  20.565  0.00  0.00    +0.000 A 
ATOM     24  C   UNL     1       1.161   9.134  19.637  0.00  0.00    +0.000 A 
ATOM     25  C   UNL     1       0.582  10.324  20.073  0.00  0.00    +0.000 A 
ATOM     26  C   UNL     1       0.486  10.564  21.436  0.00  0.00    +0.000 A 
ATOM     27  N   UNL     1       0.901   9.679  22.377  0.00  0.00    +0.000 NA
ATOM     28  C   UNL     1       1.449   8.525  21.914  0.00  0.00    +0.000 A 
BRANCH  26  29
ATOM     29  C   UNL     1      -0.064  11.820  21.941  0.00  0.00    +0.000 A 
ATOM     30  N   UNL     1       0.352  13.049  21.679  0.00  0.00    +0.000 NA
ATOM     31  C   UNL     1      -0.462  13.884  22.400  0.00  0.00    +0.000 A 
ATOM     32  C   UNL     1      -1.385  13.165  23.117  0.00  0.00    +0.000 A 
ATOM     33  N   UNL     1      -1.125  11.859  22.815  0.00  0.00    +0.000 N 
ATOM     34  H   UNL     1      -1.595  11.031  23.156  0.00  0.00    +0.000 HD
ENDBRANCH  26  29
ENDBRANCH  21  23
ENDBRANCH   6  19
TORSDOF 5
ENDMDL
MODEL 2
REMARK VINA RESULT:      -7.6      0.891      1.443
REMARK  Name = 
REMARK  6 active torsions:
REMARK  status: ('A' for Active; 'I' for Inactive)
REMARK    1  A    between atoms: C_1  and  C_2
REMARK    2  A    between atoms: C_5  and  C_6
REMARK    3  A    between atoms: N_8  and  C_9
REMARK    4  A    between atoms: C_14  and  C_15
REMARK    5  A    between atoms: N_17  and  C_18
REMARK    6  A    between atoms: C_21  and  C_22
REMARK                            x       y       z     vdW  Elec       q    Type
REMARK                         _______ _______ _______ _____ _____    ______ ____
ROOT
ATOM      1  C   UNL     1       4.074   3.646  17.950  0.00  0.00    +0.000 A 
ATOM      2  C   UNL     1       4.282   2.498  18.713  0.00  0.00    +0.000 A 
ATOM      3  C   UNL     1       3.686   2.346  19.968  0.00  0.00    +0.000 A 
ATOM      4  C   UNL     1       2.864   3.346  20.488  0.00  0.00    +0.000 A 
ATOM      5 CL   UNL     1       2.201   3.041  22.056  0.00  0.00    +0.000 Cl
ATOM      6  C   UNL     1       2.649   4.520  19.753  0.00  0.00    +0.000 A 
ATOM      7  C   UNL     1       3.287   4.667  18.495  0.00  0.00    +0.000 A 
ENDROOT
BRANCH   1  10
ATOM      8  C   UNL     1       5.909   4.180  16.370  0.00  0.00    +0.000 C 
ATOM      9  O   UNL     1       6.783   4.410  17.202  0.00  0.00    +0.000 OA
ATOM     10  N   UNL     1       4.603   3.810  16.644  0.00  0.00    +0.000 N 
ATOM     11  H   UNL     1       4.044   3.464  15.874  0.00  0.00    +0.000 HD
BRANCH   8  16
ATOM     12  C   UNL     1       7.496   4.789  10.827  0.00  0.00    +0.000 C 
ATOM     13  C   UNL     1       7.101   4.584  12.261  0.00  0.00    +0.000 A 
ATOM     14  C   UNL     1       7.747   5.292  13.277  0.00  0.00    +0.000 A 
ATOM     15  C   UNL     1       7.357   5.120  14.605  0.00  0.00    +0.000 A 
ATOM     16  C   UNL     1       6.325   4.232  14.940  0.00  0.00    +0.000 A 
ATOM     17  C   UNL     1       5.679   3.514  13.931  0.00  0.00    +0.000 A 
ATOM     18  C   UNL     1       6.069   3.694  12.596  0.00  0.00    +0.000 A 
ENDBRANCH   8  16
ENDBRANCH   1  10
BRANCH   6  19
ATOM     19  C   UNL     1       1.783   5.660  20.187  0.00  0.00    +0.000 C 
ATOM     20  O   UNL     1       0.665   5.386  20.610  0.00  0.00    +0.000 OA
ATOM     21  N   UNL     1       2.314   6.936  20.096  0.00  0.00    +0.000 N 
ATOM     22  H   UNL     1       3.202   7.034  19.616  0.00  0.00    +0.000 HD
BRANCH  21  23
ATOM     23  C   UNL     1       1.679   8.141  20.475  0.00  0.00    +0.000 A 
ATOM     24  C   UNL     1       1.415   8.494  21.795  0.00  0.00    +0.000 A 
ATOM     25  C   UNL     1       0.756   9.690  22.076  0.00  0.00    +0.000 A 
ATOM     26  C   UNL     1       0.370  10.507  21.023  0.00  0.00    +0.000 A 
ATOM     27  N   UNL     1       0.629  10.216  19.724  0.00  0.00    +0.000 NA
ATOM     28  C   UNL     1       1.284   9.048  19.490  0.00  0.00    +0.000 A 
BRANCH  26  29
ATOM     29  C   UNL     1      -0.371  11.743  21.264  0.00  0.00    +0.000 A 
ATOM     30  N   UNL     1      -0.358  12.496  22.351  0.00  0.00    +0.000 NA
ATOM     31  C   UNL     1      -1.226  13.529  22.107  0.00  0.00    +0.000 A 
ATOM     32  C   UNL     1      -1.784  13.410  20.858  0.00  0.00    +0.000 A 
ATOM     33  N   UNL     1      -1.230  12.277  20.332  0.00  0.00    +0.000 N 
ATOM     34  H   UNL     1      -1.400  11.858  19.427  0.00  0.00    +0.000 HD
ENDBRANCH  26  29
ENDBRANCH  21  23
ENDBRANCH   6  19
TORSDOF 5
ENDMDL
MODEL 3
REMARK VINA RESULT:      -7.4      4.228      7.058
REMARK  Name = 
REMARK  6 active torsions:
REMARK  status: ('A' for Active; 'I' for Inactive)
REMARK    1  A    between atoms: C_1  and  C_2
REMARK    2  A    between atoms: C_5  and  C_6
REMARK    3  A    between atoms: N_8  and  C_9
REMARK    4  A    between atoms: C_14  and  C_15
REMARK    5  A    between atoms: N_17  and  C_18
REMARK    6  A    between atoms: C_21  and  C_22
REMARK                            x       y       z     vdW  Elec       q    Type
REMARK                         _______ _______ _______ _____ _____    ______ ____
ROOT
ATOM      1  C   UNL     1       1.659   9.478  18.276  0.00  0.00    +0.000 A 
ATOM      2  C   UNL     1       2.591  10.449  17.912  0.00  0.00    +0.000 A 
ATOM      3  C   UNL     1       2.315  11.810  18.067  0.00  0.00    +0.000 A 
ATOM      4  C   UNL     1       1.093  12.230  18.594  0.00  0.00    +0.000 A 
ATOM      5 CL   UNL     1       0.872  13.941  18.721  0.00  0.00    +0.000 Cl
ATOM      6  C   UNL     1       0.129  11.280  18.954  0.00  0.00    +0.000 A 
ATOM      7  C   UNL     1       0.416   9.905  18.760  0.00  0.00    +0.000 A 
ENDROOT
BRANCH   1  10
ATOM      8  C   UNL     1       2.127   7.268  19.298  0.00  0.00    +0.000 C 
ATOM      9  O   UNL     1       2.100   7.620  20.475  0.00  0.00    +0.000 OA
ATOM     10  N   UNL     1       1.925   8.086  18.200  0.00  0.00    +0.000 N 
ATOM     11  H   UNL     1       1.782   7.639  17.303  0.00  0.00    +0.000 HD
BRANCH   8  16
ATOM     12  C   UNL     1       3.246   1.638  18.478  0.00  0.00    +0.000 C 
ATOM     13  C   UNL     1       2.908   3.087  18.682  0.00  0.00    +0.000 A 
ATOM     14  C   UNL     1       3.083   3.682  19.933  0.00  0.00    +0.000 A 
ATOM     15  C   UNL     1       2.795   5.034  20.111  0.00  0.00    +0.000 A 
ATOM     16  C   UNL     1       2.319   5.812  19.046  0.00  0.00    +0.000 A 
ATOM     17  C   UNL     1       2.133   5.224  17.793  0.00  0.00    +0.000 A 
ATOM     18  C   UNL     1       2.429   3.864  17.616  0.00  0.00    +0.000 A 
ENDBRANCH   8  16
ENDBRANCH   1  10
BRANCH   6  19
ATOM     19  C   UNL     1      -1.212  11.593  19.540  0.00  0.00    +0.000 C 
ATOM     20  O   UNL     1      -2.199  11.251  18.897  0.00  0.00    +0.000 OA
ATOM     21  N   UNL     1      -1.239  12.228  20.770  0.00  0.00    +0.000 N 
ATOM     22  H   UNL     1      -0.354  12.565  21.137  0.00  0.00    +0.000 HD
BRANCH  21  23
ATOM     23  C   UNL     1      -2.391  12.588  21.506  0.00  0.00    +0.000 A 
ATOM     24  C   UNL     1      -2.648  12.153  22.802  0.00  0.00    +0.000 A 
ATOM     25  C   UNL     1      -3.826  12.533  23.443  0.00  0.00    +0.000 A 
ATOM     26  C   UNL     1      -4.727  13.342  22.765  0.00  0.00    +0.000 A 
ATOM     27  N   UNL     1      -4.507  13.812  21.512  0.00  0.00    +0.000 NA
ATOM     28  C   UNL     1      -3.342  13.430  20.925  0.00  0.00    +0.000 A 
BRANCH  26  29
ATOM     29  C   UNL     1      -6.000  13.723  23.374  0.00  0.00    +0.000 A 
ATOM     30  N   UNL     1      -6.806  12.969  24.102  0.00  0.00    +0.000 NA
ATOM     31  C   UNL     1      -7.878  13.763  24.424  0.00  0.00    +0.000 A 
ATOM     32  C   UNL     1      -7.733  15.017  23.885  0.00  0.00    +0.000 A 
ATOM     33  N   UNL     1      -6.537  14.980  23.226  0.00  0.00    +0.000 N 
ATOM     34  H   UNL     1      -6.090  15.718  22.697  0.00  0.00    +0.000 HD
ENDBRANCH  26  29
ENDBRANCH  21  23
ENDBRANCH   6  19
TORSDOF 5
ENDMDL
MODEL 4
REMARK VINA RESULT:      -7.4      0.698      1.157
REMARK  Name = 
REMARK  6 active torsions:
REMARK  status: ('A' for Active; 'I' for Inactive)
REMARK    1  A    between atoms: C_1  and  C_2
REMARK    2  A    between atoms: C_5  and  C_6
REMARK    3  A    between atoms: N_8  and  C_9
REMARK    4  A    between atoms: C_14  and  C_15
REMARK    5  A    between atoms: N_17  and  C_18
REMARK    6  A    between atoms: C_21  and  C_22
REMARK                            x       y       z     vdW  Elec       q    Type
REMARK                         _______ _______ _______ _____ _____    ______ ____
ROOT
ATOM      1  C   UNL     1       3.927   3.757  18.043  0.00  0.00    +0.000 A 
ATOM      2  C   UNL     1       4.125   2.595  18.790  0.00  0.00    +0.000 A 
ATOM      3  C   UNL     1       3.525   2.429  20.040  0.00  0.00    +0.000 A 
ATOM      4  C   UNL     1       2.709   3.427  20.574  0.00  0.00    +0.000 A 
ATOM      5 CL   UNL     1       2.040   3.103  22.135  0.00  0.00    +0.000 Cl
ATOM      6  C   UNL     1       2.504   4.613  19.856  0.00  0.00    +0.000 A 
ATOM      7  C   UNL     1       3.146   4.775  18.602  0.00  0.00    +0.000 A 
ENDROOT
BRANCH   1  10
ATOM      8  C   UNL     1       5.761   4.334  16.476  0.00  0.00    +0.000 C 
ATOM      9  O   UNL     1       6.625   4.579  17.315  0.00  0.00    +0.000 OA
ATOM     10  N   UNL     1       4.461   3.937  16.741  0.00  0.00    +0.000 N 
ATOM     11  H   UNL     1       3.914   3.583  15.966  0.00  0.00    +0.000 HD
BRANCH   8  16
ATOM     12  C   UNL     1       7.404   4.190  10.918  0.00  0.00    +0.000 C 
ATOM     13  C   UNL     1       6.968   4.275  12.353  0.00  0.00    +0.000 A 
ATOM     14  C   UNL     1       5.844   3.572  12.790  0.00  0.00    +0.000 A 
ATOM     15  C   UNL     1       5.460   3.631  14.129  0.00  0.00    +0.000 A 
ATOM     16  C   UNL     1       6.184   4.402  15.050  0.00  0.00    +0.000 A 
ATOM     17  C   UNL     1       7.304   5.116  14.619  0.00  0.00    +0.000 A 
ATOM     18  C   UNL     1       7.692   5.049  13.273  0.00  0.00    +0.000 A 
ENDBRANCH   8  16
ENDBRANCH   1  10
BRANCH   6  19
ATOM     19  C   UNL     1       1.645   5.753  20.306  0.00  0.00    +0.000 C 
ATOM     20  O   UNL     1       0.531   5.479  20.740  0.00  0.00    +0.000 OA
ATOM     21  N   UNL     1       2.177   7.028  20.214  0.00  0.00    +0.000 N 
ATOM     22  H   UNL     1       3.060   7.128  19.724  0.00  0.00    +0.000 HD
BRANCH  21  23
ATOM     23  C   UNL     1       1.549   8.232  20.607  0.00  0.00    +0.000 A 
ATOM     24  C   UNL     1       1.207   8.535  21.921  0.00  0.00    +0.000 A 
ATOM     25  C   UNL     1       0.561   9.734  22.214  0.00  0.00    +0.000 A 
ATOM     26  C   UNL     1       0.265  10.608  21.176  0.00  0.00    +0.000 A 
ATOM     27  N   UNL     1       0.602  10.367  19.884  0.00  0.00    +0.000 NA
ATOM     28  C   UNL     1       1.241   9.193  19.640  0.00  0.00    +0.000 A 
BRANCH  26  29
ATOM     29  C   UNL     1      -0.459  11.852  21.425  0.00  0.00    +0.000 A 
ATOM     30  N   UNL     1      -1.762  12.012  21.584  0.00  0.00    +0.000 NA
ATOM     31  C   UNL     1      -1.958  13.357  21.768  0.00  0.00    +0.000 A 
ATOM     32  C   UNL     1      -0.765  14.034  21.718  0.00  0.00    +0.000 A 
ATOM     33  N   UNL     1       0.178  13.069  21.504  0.00  0.00    +0.000 N 
ATOM     34  H   UNL     1       1.178  13.181  21.403  0.00  0.00    +0.000 HD
ENDBRANCH  26  29
ENDBRANCH  21  23
ENDBRANCH   6  19
TORSDOF 5
ENDMDL
MODEL 5
REMARK VINA RESULT:      -7.3      4.073     11.839
REMARK  Name = 
REMARK  6 active torsions:
REMARK  status: ('A' for Active; 'I' for Inactive)
REMARK    1  A    between atoms: C_1  and  C_2
REMARK    2  A    between atoms: C_5  and  C_6
REMARK    3  A    between atoms: N_8  and  C_9
REMARK    4  A    between atoms: C_14  and  C_15
REMARK    5  A    between atoms: N_17  and  C_18
REMARK    6  A    between atoms: C_21  and  C_22
REMARK                            x       y       z     vdW  Elec       q    Type
REMARK                         _______ _______ _______ _____ _____    ______ ____
ROOT
ATOM      1  C   UNL     1      -0.840  12.834  20.551  0.00  0.00    +0.000 A 
ATOM      2  C   UNL     1      -0.065  13.904  20.105  0.00  0.00    +0.000 A 
ATOM      3  C   UNL     1       1.040  13.700  19.276  0.00  0.00    +0.000 A 
ATOM      4  C   UNL     1       1.396  12.412  18.873  0.00  0.00    +0.000 A 
ATOM      5 CL   UNL     1       2.793  12.295  17.859  0.00  0.00    +0.000 Cl
ATOM      6  C   UNL     1       0.648  11.314  19.317  0.00  0.00    +0.000 A 
ATOM      7  C   UNL     1      -0.452  11.541  20.183  0.00  0.00    +0.000 A 
ENDROOT
BRANCH   1  10
ATOM      8  C   UNL     1      -3.301  12.863  20.855  0.00  0.00    +0.000 C 
ATOM      9  O   UNL     1      -3.614  12.572  19.704  0.00  0.00    +0.000 OA
ATOM     10  N   UNL     1      -2.010  13.004  21.336  0.00  0.00    +0.000 N 
ATOM     11  H   UNL     1      -1.888  13.054  22.340  0.00  0.00    +0.000 HD
BRANCH   8  16
ATOM     12  C   UNL     1      -7.809  13.675  24.410  0.00  0.00    +0.000 C 
ATOM     13  C   UNL     1      -6.631  13.423  23.514  0.00  0.00    +0.000 A 
ATOM     14  C   UNL     1      -6.822  13.154  22.157  0.00  0.00    +0.000 A 
ATOM     15  C   UNL     1      -5.724  12.950  21.323  0.00  0.00    +0.000 A 
ATOM     16  C   UNL     1      -4.418  12.999  21.832  0.00  0.00    +0.000 A 
ATOM     17  C   UNL     1      -4.217  13.259  23.189  0.00  0.00    +0.000 A 
ATOM     18  C   UNL     1      -5.324  13.471  24.025  0.00  0.00    +0.000 A 
ENDBRANCH   8  16
ENDBRANCH   1  10
BRANCH   6  19
ATOM     19  C   UNL     1       0.912   9.888  18.951  0.00  0.00    +0.000 C 
ATOM     20  O   UNL     1       0.644   9.544  17.805  0.00  0.00    +0.000 OA
ATOM     21  N   UNL     1       1.455   9.068  19.926  0.00  0.00    +0.000 N 
ATOM     22  H   UNL     1       1.515   9.444  20.867  0.00  0.00    +0.000 HD
BRANCH  21  23
ATOM     23  C   UNL     1       1.804   7.706  19.782  0.00  0.00    +0.000 A 
ATOM     24  C   UNL     1       1.521   6.729  20.732  0.00  0.00    +0.000 A 
ATOM     25  C   UNL     1       1.930   5.414  20.521  0.00  0.00    +0.000 A 
ATOM     26  C   UNL     1       2.621   5.104  19.358  0.00  0.00    +0.000 A 
ATOM     27  N   UNL     1       2.896   6.017  18.393  0.00  0.00    +0.000 NA
ATOM     28  C   UNL     1       2.471   7.286  18.629  0.00  0.00    +0.000 A 
BRANCH  26  29
ATOM     29  C   UNL     1       3.118   3.752  19.116  0.00  0.00    +0.000 A 
ATOM     30  N   UNL     1       3.578   2.888  20.006  0.00  0.00    +0.000 NA
ATOM     31  C   UNL     1       3.942   1.772  19.296  0.00  0.00    +0.000 A 
ATOM     32  C   UNL     1       3.709   1.951  17.955  0.00  0.00    +0.000 A 
ATOM     33  N   UNL     1       3.182   3.208  17.855  0.00  0.00    +0.000 N 
ATOM     34  H   UNL     1       2.888   3.700  17.021  0.00  0.00    +0.000 HD
ENDBRANCH  26  29
ENDBRANCH  21  23
ENDBRANCH   6  19
TORSDOF 5
ENDMDL
MODEL 6
REMARK VINA RESULT:      -7.3      3.135      4.266
REMARK  Name = 
REMARK  6 active torsions:
REMARK  status: ('A' for Active; 'I' for Inactive)
REMARK    1  A    between atoms: C_1  and  C_2
REMARK    2  A    between atoms: C_5  and  C_6
REMARK    3  A    between atoms: N_8  and  C_9
REMARK    4  A    between atoms: C_14  and  C_15
REMARK    5  A    between atoms: N_17  and  C_18
REMARK    6  A    between atoms: C_21  and  C_22
REMARK                            x       y       z     vdW  Elec       q    Type
REMARK                         _______ _______ _______ _____ _____    ______ ____
ROOT
ATOM      1  C   UNL     1       3.003   6.646  18.257  0.00  0.00    +0.000 A 
ATOM      2  C   UNL     1       2.874   6.012  19.493  0.00  0.00    +0.000 A 
ATOM      3  C   UNL     1       2.178   6.614  20.544  0.00  0.00    +0.000 A 
ATOM      4  C   UNL     1       1.593   7.871  20.381  0.00  0.00    +0.000 A 
ATOM      5 CL   UNL     1       0.773   8.510  21.763  0.00  0.00    +0.000 Cl
ATOM      6  C   UNL     1       1.719   8.541  19.156  0.00  0.00    +0.000 A 
ATOM      7  C   UNL     1       2.456   7.926  18.112  0.00  0.00    +0.000 A 
ENDROOT
BRANCH   1  10
ATOM      8  C   UNL     1       5.002   6.103  16.893  0.00  0.00    +0.000 C 
ATOM      9  O   UNL     1       5.838   6.676  17.587  0.00  0.00    +0.000 OA
ATOM     10  N   UNL     1       3.641   6.041  17.144  0.00  0.00    +0.000 N 
ATOM     11  H   UNL     1       3.096   5.380  16.604  0.00  0.00    +0.000 HD
BRANCH   8  16
ATOM     12  C   UNL     1       7.152   3.515  12.171  0.00  0.00    +0.000 C 
ATOM     13  C   UNL     1       6.591   4.141  13.416  0.00  0.00    +0.000 A 
ATOM     14  C   UNL     1       7.377   4.999  14.188  0.00  0.00    +0.000 A 
ATOM     15  C   UNL     1       6.843   5.601  15.326  0.00  0.00    +0.000 A 
ATOM     16  C   UNL     1       5.521   5.348  15.719  0.00  0.00    +0.000 A 
ATOM     17  C   UNL     1       4.730   4.483  14.958  0.00  0.00    +0.000 A 
ATOM     18  C   UNL     1       5.268   3.885  13.809  0.00  0.00    +0.000 A 
ENDBRANCH   8  16
ENDBRANCH   1  10
BRANCH   6  19
ATOM     19  C   UNL     1       1.132   9.881  18.845  0.00  0.00    +0.000 C 
ATOM     20  O   UNL     1       0.214   9.916  18.032  0.00  0.00    +0.000 OA
ATOM     21  N   UNL     1       1.656  10.978  19.507  0.00  0.00    +0.000 N 
ATOM     22  H   UNL     1       2.494  10.828  20.061  0.00  0.00    +0.000 HD
BRANCH  21  23
ATOM     23  C   UNL     1       1.231  12.320  19.380  0.00  0.00    +0.000 A 
ATOM     24  C   UNL     1       0.020  12.798  19.869  0.00  0.00    +0.000 A 
ATOM     25  C   UNL     1      -0.333  14.132  19.671  0.00  0.00    +0.000 A 
ATOM     26  C   UNL     1       0.540  14.961  18.980  0.00  0.00    +0.000 A 
ATOM     27  N   UNL     1       1.742  14.546  18.509  0.00  0.00    +0.000 NA
ATOM     28  C   UNL     1       2.056  13.243  18.732  0.00  0.00    +0.000 A 
BRANCH  26  29
ATOM     29  C   UNL     1       0.192  16.353  18.701  0.00  0.00    +0.000 A 
ATOM     30  N   UNL     1       0.991  17.406  18.720  0.00  0.00    +0.000 NA
ATOM     31  C   UNL     1       0.202  18.485  18.414  0.00  0.00    +0.000 A 
ATOM     32  C   UNL     1      -1.098  18.094  18.208  0.00  0.00    +0.000 A 
ATOM     33  N   UNL     1      -1.090  16.740  18.388  0.00  0.00    +0.000 N 
ATOM     34  H   UNL     1      -1.867  16.095  18.325  0.00  0.00    +0.000 HD
ENDBRANCH  26  29
ENDBRANCH  21  23
ENDBRANCH   6  19
TORSDOF 5
ENDMDL
MODEL 7
REMARK VINA RESULT:      -7.2      5.509      9.784
REMARK  Name = 
REMARK  6 active torsions:
REMARK  status: ('A' for Active; 'I' for Inactive)
REMARK    1  A    between atoms: C_1  and  C_2
REMARK    2  A    between atoms: C_5  and  C_6
REMARK    3  A    between atoms: N_8  and  C_9
REMARK    4  A    between atoms: C_14  and  C_15
REMARK    5  A    between atoms: N_17  and  C_18
REMARK    6  A    between atoms: C_21  and  C_22
REMARK                            x       y       z     vdW  Elec       q    Type
REMARK                         _______ _______ _______ _____ _____    ______ ____
ROOT
ATOM      1  C   UNL     1       2.222  13.555  18.376  0.00  0.00    +0.000 A 
ATOM      2  C   UNL     1       1.098  14.269  18.792  0.00  0.00    +0.000 A 
ATOM      3  C   UNL     1      -0.096  13.617  19.108  0.00  0.00    +0.000 A 
ATOM      4  C   UNL     1      -0.193  12.228  19.014  0.00  0.00    +0.000 A 
ATOM      5 CL   UNL     1      -1.730  11.547  19.419  0.00  0.00    +0.000 Cl
ATOM      6  C   UNL     1       0.913  11.483  18.583  0.00  0.00    +0.000 A 
ATOM      7  C   UNL     1       2.107  12.166  18.238  0.00  0.00    +0.000 A 
ENDROOT
BRANCH   1  10
ATOM      8  C   UNL     1       4.196  14.900  19.041  0.00  0.00    +0.000 C 
ATOM      9  O   UNL     1       3.867  15.113  20.206  0.00  0.00    +0.000 OA
ATOM     10  N   UNL     1       3.473  14.170  18.113  0.00  0.00    +0.000 N 
ATOM     11  H   UNL     1       3.943  13.909  17.255  0.00  0.00    +0.000 HD
BRANCH   8  16
ATOM     12  C   UNL     1       9.553  16.576  17.589  0.00  0.00    +0.000 C 
ATOM     13  C   UNL     1       8.147  16.176  17.934  0.00  0.00    +0.000 A 
ATOM     14  C   UNL     1       7.676  14.903  17.606  0.00  0.00    +0.000 A 
ATOM     15  C   UNL     1       6.380  14.525  17.953  0.00  0.00    +0.000 A 
ATOM     16  C   UNL     1       5.530  15.416  18.625  0.00  0.00    +0.000 A 
ATOM     17  C   UNL     1       5.989  16.694  18.950  0.00  0.00    +0.000 A 
ATOM     18  C   UNL     1       7.296  17.068  18.604  0.00  0.00    +0.000 A 
ENDBRANCH   8  16
ENDBRANCH   1  10
BRANCH   6  19
ATOM     19  C   UNL     1       0.948   9.993  18.451  0.00  0.00    +0.000 C 
ATOM     20  O   UNL     1       0.179   9.483  17.644  0.00  0.00    +0.000 OA
ATOM     21  N   UNL     1       1.857   9.304  19.236  0.00  0.00    +0.000 N 
ATOM     22  H   UNL     1       2.348   9.832  19.949  0.00  0.00    +0.000 HD
BRANCH  21  23
ATOM     23  C   UNL     1       2.070   7.906  19.247  0.00  0.00    +0.000 A 
ATOM     24  C   UNL     1       1.742   7.081  20.317  0.00  0.00    +0.000 A 
ATOM     25  C   UNL     1       2.016   5.716  20.254  0.00  0.00    +0.000 A 
ATOM     26  C   UNL     1       2.620   5.205  19.114  0.00  0.00    +0.000 A 
ATOM     27  N   UNL     1       2.934   5.966  18.036  0.00  0.00    +0.000 NA
ATOM     28  C   UNL     1       2.641   7.290  18.130  0.00  0.00    +0.000 A 
BRANCH  26  29
ATOM     29  C   UNL     1       2.977   3.791  19.021  0.00  0.00    +0.000 A 
ATOM     30  N   UNL     1       2.349   2.841  18.348  0.00  0.00    +0.000 NA
ATOM     31  C   UNL     1       3.047   1.685  18.587  0.00  0.00    +0.000 A 
ATOM     32  C   UNL     1       4.113   1.923  19.419  0.00  0.00    +0.000 A 
ATOM     33  N   UNL     1       4.060   3.262  19.683  0.00  0.00    +0.000 N 
ATOM     34  H   UNL     1       4.678   3.811  20.266  0.00  0.00    +0.000 HD
ENDBRANCH  26  29
ENDBRANCH  21  23
ENDBRANCH   6  19
TORSDOF 5
ENDMDL
MODEL 8
REMARK VINA RESULT:      -7.2      3.217      4.761
REMARK  Name = 
REMARK  6 active torsions:
REMARK  status: ('A' for Active; 'I' for Inactive)
REMARK    1  A    between atoms: C_1  and  C_2
REMARK    2  A    between atoms: C_5  and  C_6
REMARK    3  A    between atoms: N_8  and  C_9
REMARK    4  A    between atoms: C_14  and  C_15
REMARK    5  A    between atoms: N_17  and  C_18
REMARK    6  A    between atoms: C_21  and  C_22
REMARK                            x       y       z     vdW  Elec       q    Type
REMARK                         _______ _______ _______ _____ _____    ______ ____
ROOT
ATOM      1  C   UNL     1       2.422   7.262  19.115  0.00  0.00    +0.000 A 
ATOM      2  C   UNL     1       2.219   6.585  20.318  0.00  0.00    +0.000 A 
ATOM      3  C   UNL     1       1.375   7.101  21.304  0.00  0.00    +0.000 A 
ATOM      4  C   UNL     1       0.712   8.313  21.107  0.00  0.00    +0.000 A 
ATOM      5 CL   UNL     1      -0.292   8.847  22.410  0.00  0.00    +0.000 Cl
ATOM      6  C   UNL     1       0.908   9.026  19.916  0.00  0.00    +0.000 A 
ATOM      7  C   UNL     1       1.792   8.500  18.941  0.00  0.00    +0.000 A 
ENDROOT
BRANCH   1  10
ATOM      8  C   UNL     1       4.179   5.758  18.220  0.00  0.00    +0.000 C 
ATOM      9  O   UNL     1       4.478   5.205  19.275  0.00  0.00    +0.000 OA
ATOM     10  N   UNL     1       3.215   6.740  18.061  0.00  0.00    +0.000 N 
ATOM     11  H   UNL     1       2.935   6.971  17.116  0.00  0.00    +0.000 HD
BRANCH   8  16
ATOM     12  C   UNL     1       6.568   4.010  13.235  0.00  0.00    +0.000 C 
ATOM     13  C   UNL     1       5.992   4.453  14.549  0.00  0.00    +0.000 A 
ATOM     14  C   UNL     1       5.625   5.786  14.743  0.00  0.00    +0.000 A 
ATOM     15  C   UNL     1       5.063   6.187  15.954  0.00  0.00    +0.000 A 
ATOM     16  C   UNL     1       4.870   5.267  16.995  0.00  0.00    +0.000 A 
ATOM     17  C   UNL     1       5.243   3.933  16.813  0.00  0.00    +0.000 A 
ATOM     18  C   UNL     1       5.802   3.531  15.591  0.00  0.00    +0.000 A 
ENDBRANCH   8  16
ENDBRANCH   1  10
BRANCH   6  19
ATOM     19  C   UNL     1       0.251  10.325  19.573  0.00  0.00    +0.000 C 
ATOM     20  O   UNL     1      -0.822  10.272  18.980  0.00  0.00    +0.000 OA
ATOM     21  N   UNL     1       0.892  11.488  19.965  0.00  0.00    +0.000 N 
ATOM     22  H   UNL     1       1.831  11.396  20.339  0.00  0.00    +0.000 HD
BRANCH  21  23
ATOM     23  C   UNL     1       0.433  12.811  19.765  0.00  0.00    +0.000 A 
ATOM     24  C   UNL     1      -0.048  13.625  20.785  0.00  0.00    +0.000 A 
ATOM     25  C   UNL     1      -0.510  14.907  20.493  0.00  0.00    +0.000 A 
ATOM     26  C   UNL     1      -0.483  15.346  19.177  0.00  0.00    +0.000 A 
ATOM     27  N   UNL     1       0.001  14.597  18.154  0.00  0.00    +0.000 NA
ATOM     28  C   UNL     1       0.453  13.358  18.480  0.00  0.00    +0.000 A 
BRANCH  26  29
ATOM     29  C   UNL     1      -1.006  16.661  18.812  0.00  0.00    +0.000 A 
ATOM     30  N   UNL     1      -0.459  17.553  18.003  0.00  0.00    +0.000 NA
ATOM     31  C   UNL     1      -1.309  18.629  17.997  0.00  0.00    +0.000 A 
ATOM     32  C   UNL     1      -2.389  18.400  18.813  0.00  0.00    +0.000 A 
ATOM     33  N   UNL     1      -2.188  17.148  19.320  0.00  0.00    +0.000 N 
ATOM     34  H   UNL     1      -2.769  16.632  19.967  0.00  0.00    +0.000 HD
ENDBRANCH  26  29
ENDBRANCH  21  23
ENDBRANCH   6  19
TORSDOF 5
ENDMDL
MODEL 9
REMARK VINA RESULT:      -7.2      4.303     11.928
REMARK  Name = 
REMARK  6 active torsions:
REMARK  status: ('A' for Active; 'I' for Inactive)
REMARK    1  A    between atoms: C_1  and  C_2
REMARK    2  A    between atoms: C_5  and  C_6
REMARK    3  A    between atoms: N_8  and  C_9
REMARK    4  A    between atoms: C_14  and  C_15
REMARK    5  A    between atoms: N_17  and  C_18
REMARK    6  A    between atoms: C_21  and  C_22
REMARK                            x       y       z     vdW  Elec       q    Type
REMARK                         _______ _______ _______ _____ _____    ______ ____
ROOT
ATOM      1  C   UNL     1      -1.109  13.247  20.298  0.00  0.00    +0.000 A 
ATOM      2  C   UNL     1      -0.260  14.262  19.859  0.00  0.00    +0.000 A 
ATOM      3  C   UNL     1       0.866  13.977  19.083  0.00  0.00    +0.000 A 
ATOM      4  C   UNL     1       1.168  12.662  18.727  0.00  0.00    +0.000 A 
ATOM      5 CL   UNL     1       2.597  12.443  17.778  0.00  0.00    +0.000 Cl
ATOM      6  C   UNL     1       0.344  11.617  19.167  0.00  0.00    +0.000 A 
ATOM      7  C   UNL     1      -0.777  11.925  19.979  0.00  0.00    +0.000 A 
ENDROOT
BRANCH   1  10
ATOM      8  C   UNL     1      -3.552  13.032  20.667  0.00  0.00    +0.000 C 
ATOM      9  O   UNL     1      -3.808  12.340  19.685  0.00  0.00    +0.000 OA
ATOM     10  N   UNL     1      -2.299  13.500  21.028  0.00  0.00    +0.000 N 
ATOM     11  H   UNL     1      -2.196  13.891  21.956  0.00  0.00    +0.000 HD
BRANCH   8  16
ATOM     12  C   UNL     1      -7.913  13.800  24.410  0.00  0.00    +0.000 C 
ATOM     13  C   UNL     1      -6.785  13.649  23.431  0.00  0.00    +0.000 A 
ATOM     14  C   UNL     1      -5.518  13.260  23.871  0.00  0.00    +0.000 A 
ATOM     15  C   UNL     1      -4.480  13.094  22.955  0.00  0.00    +0.000 A 
ATOM     16  C   UNL     1      -4.687  13.323  21.587  0.00  0.00    +0.000 A 
ATOM     17  C   UNL     1      -5.949  13.721  21.138  0.00  0.00    +0.000 A 
ATOM     18  C   UNL     1      -6.993  13.881  22.062  0.00  0.00    +0.000 A 
ENDBRANCH   8  16
ENDBRANCH   1  10
BRANCH   6  19
ATOM     19  C   UNL     1       0.545  10.170  18.848  0.00  0.00    +0.000 C 
ATOM     20  O   UNL     1      -0.226   9.660  18.041  0.00  0.00    +0.000 OA
ATOM     21  N   UNL     1       1.595   9.518  19.472  0.00  0.00    +0.000 N 
ATOM     22  H   UNL     1       2.080  10.021  20.208  0.00  0.00    +0.000 HD
BRANCH  21  23
ATOM     23  C   UNL     1       1.974   8.168  19.293  0.00  0.00    +0.000 A 
ATOM     24  C   UNL     1       2.580   7.681  18.139  0.00  0.00    +0.000 A 
ATOM     25  C   UNL     1       2.892   6.326  18.036  0.00  0.00    +0.000 A 
ATOM     26  C   UNL     1       2.584   5.484  19.095  0.00  0.00    +0.000 A 
ATOM     27  N   UNL     1       2.017   5.919  20.248  0.00  0.00    +0.000 NA
ATOM     28  C   UNL     1       1.739   7.247  20.317  0.00  0.00    +0.000 A 
BRANCH  26  29
ATOM     29  C   UNL     1       2.841   4.048  19.013  0.00  0.00    +0.000 A 
ATOM     30  N   UNL     1       2.029   3.104  18.568  0.00  0.00    +0.000 NA
ATOM     31  C   UNL     1       2.709   1.922  18.711  0.00  0.00    +0.000 A 
ATOM     32  C   UNL     1       3.951   2.138  19.253  0.00  0.00    +0.000 A 
ATOM     33  N   UNL     1       4.025   3.489  19.436  0.00  0.00    +0.000 N 
ATOM     34  H   UNL     1       4.788   4.029  19.821  0.00  0.00    +0.000 HD
ENDBRANCH  26  29
ENDBRANCH  21  23
ENDBRANCH   6  19
TORSDOF 5
ENDMDL
