MODEL 1
REMARK VINA RESULT:      -7.3      0.000      0.000
REMARK  Name = 
REMARK  10 active torsions:
REMARK  status: ('A' for Active; 'I' for Inactive)
REMARK    1  A    between atoms: C_1  and  C_2
REMARK    2  A    between atoms: C_2  and  N_3
REMARK    3  A    between atoms: N_6  and  C_7
REMARK    4  A    between atoms: C_7  and  C_8
REMARK    5  A    between atoms: C_8  and  N_9
REMARK    6  A    between atoms: C_12  and  N_13
REMARK    7  A    between atoms: N_13  and  C_14
REMARK    8  A    between atoms: N_13  and  C_15
REMARK    9  A    between atoms: C_17  and  C_18
REMARK   10  A    between atoms: C_25  and  C_26
REMARK                            x       y       z     vdW  Elec       q    Type
REMARK                         _______ _______ _______ _____ _____    ______ ____
ROOT
ATOM      1  N   UNL     1      -0.977  11.828  21.117  0.00  0.00    +0.000 NA
ATOM      2  C   UNL     1      -0.620  10.502  21.602  0.00  0.00    +0.000 C 
ATOM      3  C   UNL     1       0.684   9.946  21.062  0.00  0.00    +0.000 C 
ATOM      4  C   UNL     1       0.919   9.965  19.520  0.00  0.00    +0.000 C 
ATOM      5  C   UNL     1       1.334  11.402  19.049  0.00  0.00    +0.000 C 
ATOM      6  C   UNL     1       0.141  12.370  18.807  0.00  0.00    +0.000 C 
ATOM      7  C   UNL     1      -1.114  11.918  19.625  0.00  0.00    +0.000 C 
ATOM      8  C   UNL     1      -1.600  10.551  18.967  0.00  0.00    +0.000 C 
ATOM      9  C   UNL     1      -0.405   9.550  18.810  0.00  0.00    +0.000 C 
ENDROOT
BRANCH   6  10
ATOM     10  C   UNL     1       0.416  13.879  18.736  0.00  0.00    +0.000 A 
ATOM     11  C   UNL     1      -0.594  14.843  18.865  0.00  0.00    +0.000 A 
ATOM     12  C   UNL     1      -0.290  16.213  18.905  0.00  0.00    +0.000 A 
ATOM     13  C   UNL     1       1.030  16.650  18.836  0.00  0.00    +0.000 A 
ATOM     14  C   UNL     1       2.050  15.718  18.730  0.00  0.00    +0.000 A 
ATOM     15  C   UNL     1       1.744  14.355  18.686  0.00  0.00    +0.000 A 
ENDBRANCH   6  10
BRANCH   8  16
ATOM     16  C   UNL     1      -2.422  10.591  17.661  0.00  0.00    +0.000 A 
ATOM     17  C   UNL     1      -2.076   9.912  16.489  0.00  0.00    +0.000 A 
ATOM     18  C   UNL     1      -2.868   9.989  15.337  0.00  0.00    +0.000 A 
ATOM     19  C   UNL     1      -4.016  10.769  15.323  0.00  0.00    +0.000 A 
ATOM     20  C   UNL     1      -4.379  11.468  16.472  0.00  0.00    +0.000 A 
ATOM     21  C   UNL     1      -3.590  11.384  17.625  0.00  0.00    +0.000 A 
ENDBRANCH   8  16
BRANCH   4  22
ATOM     22  N   UNL     1       1.994   8.933  19.270  0.00  0.00    +0.000 NA
ATOM     23  C   UNL     1       1.928   7.706  20.067  0.00  0.00    +0.000 C 
ATOM     24  C   UNL     1       2.205   8.561  17.864  0.00  0.00    +0.000 C 
ENDBRANCH   4  22
BRANCH   1  25
ATOM     25  C   UNL     1      -0.302  12.933  21.853  0.00  0.00    +0.000 C 
BRANCH  25  26
ATOM     26  C   UNL     1      -1.068  13.331  23.177  0.00  0.00    +0.000 C 
BRANCH  26  30
ATOM     27  N   UNL     1      -4.974  12.629  23.379  0.00  0.00    +0.000 NA
ATOM     28  C   UNL     1      -4.224  12.779  22.116  0.00  0.00    +0.000 C 
ATOM     29  C   UNL     1      -3.217  13.953  22.058  0.00  0.00    +0.000 C 
ATOM     30  N   UNL     1      -2.339  14.074  23.224  0.00  0.00    +0.000 NA
ATOM     31  C   UNL     1      -3.103  13.984  24.464  0.00  0.00    +0.000 C 
ATOM     32  C   UNL     1      -4.053  12.771  24.528  0.00  0.00    +0.000 C 
BRANCH  27  34
ATOM     33  C   UNL     1      -7.461  12.836  23.622  0.00  0.00    +0.000 C 
ATOM     34  C   UNL     1      -6.125  13.549  23.426  0.00  0.00    +0.000 C 
ENDBRANCH  27  34
ENDBRANCH  26  30
ENDBRANCH  25  26
ENDBRANCH   1  25
TORSDOF 7
ENDMDL
MODEL 2
REMARK VINA RESULT:      -7.1      0.649      1.414
REMARK  Name = 
REMARK  10 active torsions:
REMARK  status: ('A' for Active; 'I' for Inactive)
REMARK    1  A    between atoms: C_1  and  C_2
REMARK    2  A    between atoms: C_2  and  N_3
REMARK    3  A    between atoms: N_6  and  C_7
REMARK    4  A    between atoms: C_7  and  C_8
REMARK    5  A    between atoms: C_8  and  N_9
REMARK    6  A    between atoms: C_12  and  N_13
REMARK    7  A    between atoms: N_13  and  C_14
REMARK    8  A    between atoms: N_13  and  C_15
REMARK    9  A    between atoms: C_17  and  C_18
REMARK   10  A    between atoms: C_25  and  C_26
REMARK                            x       y       z     vdW  Elec       q    Type
REMARK                         _______ _______ _______ _____ _____    ______ ____
ROOT
ATOM      1  N   UNL     1      -0.864  11.913  21.261  0.00  0.00    +0.000 NA
ATOM      2  C   UNL     1      -0.538  10.572  21.727  0.00  0.00    +0.000 C 
ATOM      3  C   UNL     1       0.728   9.975  21.142  0.00  0.00    +0.000 C 
ATOM      4  C   UNL     1       0.913   9.996  19.593  0.00  0.00    +0.000 C 
ATOM      5  C   UNL     1       1.363  11.421  19.117  0.00  0.00    +0.000 C 
ATOM      6  C   UNL     1       0.196  12.431  18.919  0.00  0.00    +0.000 C 
ATOM      7  C   UNL     1      -1.047  12.018  19.776  0.00  0.00    +0.000 C 
ATOM      8  C   UNL     1      -1.601  10.672  19.126  0.00  0.00    +0.000 C 
ATOM      9  C   UNL     1      -0.447   9.632  18.924  0.00  0.00    +0.000 C 
ENDROOT
BRANCH   6  10
ATOM     10  C   UNL     1       0.521  13.930  18.848  0.00  0.00    +0.000 A 
ATOM     11  C   UNL     1       1.828  14.419  18.710  0.00  0.00    +0.000 A 
ATOM     12  C   UNL     1       2.078  15.790  18.538  0.00  0.00    +0.000 A 
ATOM     13  C   UNL     1       1.026  16.701  18.482  0.00  0.00    +0.000 A 
ATOM     14  C   UNL     1      -0.277  16.243  18.593  0.00  0.00    +0.000 A 
ATOM     15  C   UNL     1      -0.522  14.879  18.769  0.00  0.00    +0.000 A 
ENDBRANCH   6  10
BRANCH   8  16
ATOM     16  C   UNL     1      -2.463  10.750  17.847  0.00  0.00    +0.000 A 
ATOM     17  C   UNL     1      -3.652  11.476  17.741  0.00  0.00    +0.000 A 
ATOM     18  C   UNL     1      -4.387  11.507  16.548  0.00  0.00    +0.000 A 
ATOM     19  C   UNL     1      -3.959  10.791  15.439  0.00  0.00    +0.000 A 
ATOM     20  C   UNL     1      -2.783  10.046  15.521  0.00  0.00    +0.000 A 
ATOM     21  C   UNL     1      -2.047  10.024  16.710  0.00  0.00    +0.000 A 
ENDBRANCH   8  16
BRANCH   4  22
ATOM     22  N   UNL     1       1.943   8.930  19.302  0.00  0.00    +0.000 NA
ATOM     23  C   UNL     1       1.865   7.703  20.098  0.00  0.00    +0.000 C 
ATOM     24  C   UNL     1       2.090   8.555  17.889  0.00  0.00    +0.000 C 
ENDBRANCH   4  22
BRANCH   1  25
ATOM     25  C   UNL     1      -0.128  12.989  21.981  0.00  0.00    +0.000 C 
BRANCH  25  26
ATOM     26  C   UNL     1      -1.053  14.221  22.333  0.00  0.00    +0.000 C 
BRANCH  26  30
ATOM     27  N   UNL     1      -5.013  13.999  22.574  0.00  0.00    +0.000 NA
ATOM     28  C   UNL     1      -4.259  15.266  22.484  0.00  0.00    +0.000 C 
ATOM     29  C   UNL     1      -3.006  15.375  23.386  0.00  0.00    +0.000 C 
ATOM     30  N   UNL     1      -2.115  14.214  23.354  0.00  0.00    +0.000 NA
ATOM     31  C   UNL     1      -2.869  12.974  23.504  0.00  0.00    +0.000 C 
ATOM     32  C   UNL     1      -4.076  12.855  22.550  0.00  0.00    +0.000 C 
BRANCH  27  34
ATOM     33  C   UNL     1      -6.666  12.682  23.924  0.00  0.00    +0.000 C 
ATOM     34  C   UNL     1      -5.917  14.000  23.738  0.00  0.00    +0.000 C 
ENDBRANCH  27  34
ENDBRANCH  26  30
ENDBRANCH  25  26
ENDBRANCH   1  25
TORSDOF 7
ENDMDL
MODEL 3
REMARK VINA RESULT:      -7.0      0.655      1.054
REMARK  Name = 
REMARK  10 active torsions:
REMARK  status: ('A' for Active; 'I' for Inactive)
REMARK    1  A    between atoms: C_1  and  C_2
REMARK    2  A    between atoms: C_2  and  N_3
REMARK    3  A    between atoms: N_6  and  C_7
REMARK    4  A    between atoms: C_7  and  C_8
REMARK    5  A    between atoms: C_8  and  N_9
REMARK    6  A    between atoms: C_12  and  N_13
REMARK    7  A    between atoms: N_13  and  C_14
REMARK    8  A    between atoms: N_13  and  C_15
REMARK    9  A    between atoms: C_17  and  C_18
REMARK   10  A    between atoms: C_25  and  C_26
REMARK                            x       y       z     vdW  Elec       q    Type
REMARK                         _______ _______ _______ _____ _____    ______ ____
ROOT
ATOM      1  N   UNL     1      -1.312  12.403  21.430  0.00  0.00    +0.000 NA
ATOM      2  C   UNL     1      -1.109  11.119  22.087  0.00  0.00    +0.000 C 
ATOM      3  C   UNL     1       0.189  10.415  21.742  0.00  0.00    +0.000 C 
ATOM      4  C   UNL     1       0.564  10.241  20.238  0.00  0.00    +0.000 C 
ATOM      5  C   UNL     1       1.135  11.581  19.660  0.00  0.00    +0.000 C 
ATOM      6  C   UNL     1       0.052  12.597  19.198  0.00  0.00    +0.000 C 
ATOM      7  C   UNL     1      -1.305  12.332  19.932  0.00  0.00    +0.000 C 
ATOM      8  C   UNL     1      -1.839  10.936  19.378  0.00  0.00    +0.000 C 
ATOM      9  C   UNL     1      -0.720   9.842  19.448  0.00  0.00    +0.000 C 
ENDROOT
BRANCH   6  10
ATOM     10  C   UNL     1       0.454  14.065  18.995  0.00  0.00    +0.000 A 
ATOM     11  C   UNL     1       1.780  14.467  18.782  0.00  0.00    +0.000 A 
ATOM     12  C   UNL     1       2.097  15.804  18.490  0.00  0.00    +0.000 A 
ATOM     13  C   UNL     1       1.094  16.765  18.386  0.00  0.00    +0.000 A 
ATOM     14  C   UNL     1      -0.227  16.391  18.569  0.00  0.00    +0.000 A 
ATOM     15  C   UNL     1      -0.539  15.061  18.864  0.00  0.00    +0.000 A 
ENDBRANCH   6  10
BRANCH   8  16
ATOM     16  C   UNL     1      -2.533  10.886  18.000  0.00  0.00    +0.000 A 
ATOM     17  C   UNL     1      -1.993  10.270  16.867  0.00  0.00    +0.000 A 
ATOM     18  C   UNL     1      -2.677  10.257  15.644  0.00  0.00    +0.000 A 
ATOM     19  C   UNL     1      -3.909  10.883  15.521  0.00  0.00    +0.000 A 
ATOM     20  C   UNL     1      -4.465  11.518  16.630  0.00  0.00    +0.000 A 
ATOM     21  C   UNL     1      -3.785  11.522  17.853  0.00  0.00    +0.000 A 
ENDBRANCH   8  16
BRANCH   4  22
ATOM     22  N   UNL     1       1.570   9.114  20.207  0.00  0.00    +0.000 NA
ATOM     23  C   UNL     1       1.310   7.974  21.090  0.00  0.00    +0.000 C 
ATOM     24  C   UNL     1       1.908   8.598  18.874  0.00  0.00    +0.000 C 
ENDBRANCH   4  22
BRANCH   1  25
ATOM     25  C   UNL     1      -0.619  13.534  22.108  0.00  0.00    +0.000 C 
BRANCH  25  26
ATOM     26  C   UNL     1      -1.287  13.909  23.490  0.00  0.00    +0.000 C 
BRANCH  26  30
ATOM     27  N   UNL     1      -5.041  12.615  23.343  0.00  0.00    +0.000 NA
ATOM     28  C   UNL     1      -4.310  13.170  22.185  0.00  0.00    +0.000 C 
ATOM     29  C   UNL     1      -3.495  14.458  22.451  0.00  0.00    +0.000 C 
ATOM     30  N   UNL     1      -2.657  14.425  23.652  0.00  0.00    +0.000 NA
ATOM     31  C   UNL     1      -3.411  13.932  24.799  0.00  0.00    +0.000 C 
ATOM     32  C   UNL     1      -4.164  12.612  24.534  0.00  0.00    +0.000 C 
BRANCH  27  34
ATOM     33  C   UNL     1      -7.163  13.428  22.283  0.00  0.00    +0.000 C 
ATOM     34  C   UNL     1      -6.320  13.319  23.551  0.00  0.00    +0.000 C 
ENDBRANCH  27  34
ENDBRANCH  26  30
ENDBRANCH  25  26
ENDBRANCH   1  25
TORSDOF 7
ENDMDL
MODEL 4
REMARK VINA RESULT:      -7.0      2.159      6.722
REMARK  Name = 
REMARK  10 active torsions:
REMARK  status: ('A' for Active; 'I' for Inactive)
REMARK    1  A    between atoms: C_1  and  C_2
REMARK    2  A    between atoms: C_2  and  N_3
REMARK    3  A    between atoms: N_6  and  C_7
REMARK    4  A    between atoms: C_7  and  C_8
REMARK    5  A    between atoms: C_8  and  N_9
REMARK    6  A    between atoms: C_12  and  N_13
REMARK    7  A    between atoms: N_13  and  C_14
REMARK    8  A    between atoms: N_13  and  C_15
REMARK    9  A    between atoms: C_17  and  C_18
REMARK   10  A    between atoms: C_25  and  C_26
REMARK                            x       y       z     vdW  Elec       q    Type
REMARK                         _______ _______ _______ _____ _____    ______ ____
ROOT
ATOM      1  N   UNL     1      -0.429  13.567  19.887  0.00  0.00    +0.000 NA
ATOM      2  C   UNL     1       0.662  13.459  20.846  0.00  0.00    +0.000 C 
ATOM      3  C   UNL     1       1.099  12.043  21.170  0.00  0.00    +0.000 C 
ATOM      4  C   UNL     1       0.010  11.002  21.574  0.00  0.00    +0.000 C 
ATOM      5  C   UNL     1      -0.743  10.481  20.302  0.00  0.00    +0.000 C 
ATOM      6  C   UNL     1      -1.902  11.399  19.818  0.00  0.00    +0.000 C 
ATOM      7  C   UNL     1      -1.688  12.869  20.310  0.00  0.00    +0.000 C 
ATOM      8  C   UNL     1      -1.871  12.834  21.893  0.00  0.00    +0.000 C 
ATOM      9  C   UNL     1      -1.007  11.693  22.532  0.00  0.00    +0.000 C 
ENDROOT
BRANCH   6  10
ATOM     10  C   UNL     1      -2.443  11.217  18.393  0.00  0.00    +0.000 A 
ATOM     11  C   UNL     1      -1.796  10.431  17.429  0.00  0.00    +0.000 A 
ATOM     12  C   UNL     1      -2.376  10.199  16.171  0.00  0.00    +0.000 A 
ATOM     13  C   UNL     1      -3.623  10.733  15.855  0.00  0.00    +0.000 A 
ATOM     14  C   UNL     1      -4.295  11.495  16.797  0.00  0.00    +0.000 A 
ATOM     15  C   UNL     1      -3.713  11.728  18.046  0.00  0.00    +0.000 A 
ENDBRANCH   6  10
BRANCH   8  16
ATOM     16  C   UNL     1      -3.295  12.805  22.488  0.00  0.00    +0.000 A 
ATOM     17  C   UNL     1      -4.460  13.058  21.759  0.00  0.00    +0.000 A 
ATOM     18  C   UNL     1      -5.725  13.014  22.360  0.00  0.00    +0.000 A 
ATOM     19  C   UNL     1      -5.851  12.736  23.714  0.00  0.00    +0.000 A 
ATOM     20  C   UNL     1      -4.706  12.493  24.469  0.00  0.00    +0.000 A 
ATOM     21  C   UNL     1      -3.444  12.530  23.865  0.00  0.00    +0.000 A 
ENDBRANCH   8  16
BRANCH   4  22
ATOM     22  N   UNL     1       0.756   9.909  22.302  0.00  0.00    +0.000 NA
ATOM     23  C   UNL     1       0.143   9.397  23.530  0.00  0.00    +0.000 C 
ATOM     24  C   UNL     1       1.169   8.764  21.479  0.00  0.00    +0.000 C 
ENDBRANCH   4  22
BRANCH   1  25
ATOM     25  C   UNL     1       0.014  13.472  18.468  0.00  0.00    +0.000 C 
BRANCH  25  26
ATOM     26  C   UNL     1       1.587  13.409  18.331  0.00  0.00    +0.000 C 
BRANCH  26  30
ATOM     27  N   UNL     1       3.859  16.102  20.168  0.00  0.00    +0.000 NA
ATOM     28  C   UNL     1       2.430  16.302  19.851  0.00  0.00    +0.000 C 
ATOM     29  C   UNL     1       1.983  15.877  18.432  0.00  0.00    +0.000 C 
ATOM     30  N   UNL     1       2.451  14.556  18.004  0.00  0.00    +0.000 NA
ATOM     31  C   UNL     1       3.877  14.398  18.269  0.00  0.00    +0.000 C 
ATOM     32  C   UNL     1       4.292  14.764  19.708  0.00  0.00    +0.000 C 
BRANCH  27  34
ATOM     33  C   UNL     1       6.170  16.878  19.582  0.00  0.00    +0.000 C 
ATOM     34  C   UNL     1       4.680  17.205  19.636  0.00  0.00    +0.000 C 
ENDBRANCH  27  34
ENDBRANCH  26  30
ENDBRANCH  25  26
ENDBRANCH   1  25
TORSDOF 7
ENDMDL
MODEL 5
REMARK VINA RESULT:      -6.8      0.898      1.465
REMARK  Name = 
REMARK  10 active torsions:
REMARK  status: ('A' for Active; 'I' for Inactive)
REMARK    1  A    between atoms: C_1  and  C_2
REMARK    2  A    between atoms: C_2  and  N_3
REMARK    3  A    between atoms: N_6  and  C_7
REMARK    4  A    between atoms: C_7  and  C_8
REMARK    5  A    between atoms: C_8  and  N_9
REMARK    6  A    between atoms: C_12  and  N_13
REMARK    7  A    between atoms: N_13  and  C_14
REMARK    8  A    between atoms: N_13  and  C_15
REMARK    9  A    between atoms: C_17  and  C_18
REMARK   10  A    between atoms: C_25  and  C_26
REMARK                            x       y       z     vdW  Elec       q    Type
REMARK                         _______ _______ _______ _____ _____    ______ ____
ROOT
ATOM      1  N   UNL     1      -0.815  11.589  21.122  0.00  0.00    +0.000 NA
ATOM      2  C   UNL     1      -0.467  10.238  21.542  0.00  0.00    +0.000 C 
ATOM      3  C   UNL     1       0.823   9.694  20.959  0.00  0.00    +0.000 C 
ATOM      4  C   UNL     1       1.036   9.778  19.415  0.00  0.00    +0.000 C 
ATOM      5  C   UNL     1       1.461  11.230  19.003  0.00  0.00    +0.000 C 
ATOM      6  C   UNL     1       0.276  12.221  18.822  0.00  0.00    +0.000 C 
ATOM      7  C   UNL     1      -0.973  11.747  19.638  0.00  0.00    +0.000 C 
ATOM      8  C   UNL     1      -1.484  10.416  18.927  0.00  0.00    +0.000 C 
ATOM      9  C   UNL     1      -0.303   9.410  18.708  0.00  0.00    +0.000 C 
ENDROOT
BRANCH   6  10
ATOM     10  C   UNL     1       0.567  13.728  18.814  0.00  0.00    +0.000 A 
ATOM     11  C   UNL     1       1.863  14.251  18.696  0.00  0.00    +0.000 A 
ATOM     12  C   UNL     1       2.081  15.633  18.582  0.00  0.00    +0.000 A 
ATOM     13  C   UNL     1       1.009  16.523  18.565  0.00  0.00    +0.000 A 
ATOM     14  C   UNL     1      -0.283  16.032  18.657  0.00  0.00    +0.000 A 
ATOM     15  C   UNL     1      -0.497  14.656  18.775  0.00  0.00    +0.000 A 
ENDBRANCH   6  10
BRANCH   8  16
ATOM     16  C   UNL     1      -2.324  10.523  17.636  0.00  0.00    +0.000 A 
ATOM     17  C   UNL     1      -2.020   9.867  16.440  0.00  0.00    +0.000 A 
ATOM     18  C   UNL     1      -2.827  10.006  15.303  0.00  0.00    +0.000 A 
ATOM     19  C   UNL     1      -3.947  10.826  15.331  0.00  0.00    +0.000 A 
ATOM     20  C   UNL     1      -4.266  11.504  16.506  0.00  0.00    +0.000 A 
ATOM     21  C   UNL     1      -3.463  11.357  17.642  0.00  0.00    +0.000 A 
ENDBRANCH   8  16
BRANCH   4  22
ATOM     22  N   UNL     1       2.096   8.747  19.104  0.00  0.00    +0.000 NA
ATOM     23  C   UNL     1       2.053   7.503  19.877  0.00  0.00    +0.000 C 
ATOM     24  C   UNL     1       2.251   8.404  17.684  0.00  0.00    +0.000 C 
ENDBRANCH   4  22
BRANCH   1  25
ATOM     25  C   UNL     1      -0.117  12.653  21.896  0.00  0.00    +0.000 C 
BRANCH  25  26
ATOM     26  C   UNL     1      -1.110  13.759  22.431  0.00  0.00    +0.000 C 
BRANCH  26  30
ATOM     27  N   UNL     1      -4.463  14.957  24.197  0.00  0.00    +0.000 NA
ATOM     28  C   UNL     1      -3.886  13.606  24.346  0.00  0.00    +0.000 C 
ATOM     29  C   UNL     1      -3.390  12.931  23.044  0.00  0.00    +0.000 C 
ATOM     30  N   UNL     1      -2.562  13.779  22.183  0.00  0.00    +0.000 NA
ATOM     31  C   UNL     1      -3.176  15.089  21.997  0.00  0.00    +0.000 C 
ATOM     32  C   UNL     1      -3.604  15.774  23.312  0.00  0.00    +0.000 C 
BRANCH  27  34
ATOM     33  C   UNL     1      -6.502  16.261  23.544  0.00  0.00    +0.000 C 
ATOM     34  C   UNL     1      -5.869  14.889  23.760  0.00  0.00    +0.000 C 
ENDBRANCH  27  34
ENDBRANCH  26  30
ENDBRANCH  25  26
ENDBRANCH   1  25
TORSDOF 7
ENDMDL
MODEL 6
REMARK VINA RESULT:      -6.8      1.282      1.656
REMARK  Name = 
REMARK  10 active torsions:
REMARK  status: ('A' for Active; 'I' for Inactive)
REMARK    1  A    between atoms: C_1  and  C_2
REMARK    2  A    between atoms: C_2  and  N_3
REMARK    3  A    between atoms: N_6  and  C_7
REMARK    4  A    between atoms: C_7  and  C_8
REMARK    5  A    between atoms: C_8  and  N_9
REMARK    6  A    between atoms: C_12  and  N_13
REMARK    7  A    between atoms: N_13  and  C_14
REMARK    8  A    between atoms: N_13  and  C_15
REMARK    9  A    between atoms: C_17  and  C_18
REMARK   10  A    between atoms: C_25  and  C_26
REMARK                            x       y       z     vdW  Elec       q    Type
REMARK                         _______ _______ _______ _____ _____    ______ ____
ROOT
ATOM      1  N   UNL     1      -0.861  12.091  21.175  0.00  0.00    +0.000 NA
ATOM      2  C   UNL     1      -0.570  10.777  21.734  0.00  0.00    +0.000 C 
ATOM      3  C   UNL     1       0.691  10.118  21.210  0.00  0.00    +0.000 C 
ATOM      4  C   UNL     1       0.899  10.031  19.666  0.00  0.00    +0.000 C 
ATOM      5  C   UNL     1       1.386  11.411  19.105  0.00  0.00    +0.000 C 
ATOM      6  C   UNL     1       0.244  12.430  18.821  0.00  0.00    +0.000 C 
ATOM      7  C   UNL     1      -1.020  12.100  19.683  0.00  0.00    +0.000 C 
ATOM      8  C   UNL     1      -1.593  10.726  19.116  0.00  0.00    +0.000 C 
ATOM      9  C   UNL     1      -0.459   9.651  19.002  0.00  0.00    +0.000 C 
ENDROOT
BRANCH   6  10
ATOM     10  C   UNL     1       0.602  13.914  18.656  0.00  0.00    +0.000 A 
ATOM     11  C   UNL     1      -0.354  14.937  18.712  0.00  0.00    +0.000 A 
ATOM     12  C   UNL     1       0.024  16.289  18.666  0.00  0.00    +0.000 A 
ATOM     13  C   UNL     1       1.367  16.648  18.582  0.00  0.00    +0.000 A 
ATOM     14  C   UNL     1       2.335  15.657  18.547  0.00  0.00    +0.000 A 
ATOM     15  C   UNL     1       1.955  14.313  18.588  0.00  0.00    +0.000 A 
ENDBRANCH   6  10
BRANCH   8  16
ATOM     16  C   UNL     1      -2.434  10.735  17.822  0.00  0.00    +0.000 A 
ATOM     17  C   UNL     1      -2.077  10.074  16.643  0.00  0.00    +0.000 A 
ATOM     18  C   UNL     1      -2.888  10.121  15.502  0.00  0.00    +0.000 A 
ATOM     19  C   UNL     1      -4.068  10.852  15.507  0.00  0.00    +0.000 A 
ATOM     20  C   UNL     1      -4.443  11.533  16.664  0.00  0.00    +0.000 A 
ATOM     21  C   UNL     1      -3.635  11.478  17.805  0.00  0.00    +0.000 A 
ENDBRANCH   8  16
BRANCH   4  22
ATOM     22  N   UNL     1       1.910   8.927  19.463  0.00  0.00    +0.000 NA
ATOM     23  C   UNL     1       1.800   7.762  20.345  0.00  0.00    +0.000 C 
ATOM     24  C   UNL     1       2.062   8.449  18.083  0.00  0.00    +0.000 C 
ENDBRANCH   4  22
BRANCH   1  25
ATOM     25  C   UNL     1      -0.112  13.197  21.834  0.00  0.00    +0.000 C 
BRANCH  25  26
ATOM     26  C   UNL     1      -0.950  13.894  22.979  0.00  0.00    +0.000 C 
BRANCH  26  30
ATOM     27  N   UNL     1      -3.967  15.664  24.863  0.00  0.00    +0.000 NA
ATOM     28  C   UNL     1      -4.125  14.529  23.932  0.00  0.00    +0.000 C 
ATOM     29  C   UNL     1      -3.318  14.614  22.614  0.00  0.00    +0.000 C 
ATOM     30  N   UNL     1      -1.911  14.991  22.772  0.00  0.00    +0.000 NA
ATOM     31  C   UNL     1      -1.778  16.151  23.646  0.00  0.00    +0.000 C 
ATOM     32  C   UNL     1      -2.536  16.020  24.983  0.00  0.00    +0.000 C 
BRANCH  27  34
ATOM     33  C   UNL     1      -4.768  17.968  25.447  0.00  0.00    +0.000 C 
ATOM     34  C   UNL     1      -4.828  16.796  24.471  0.00  0.00    +0.000 C 
ENDBRANCH  27  34
ENDBRANCH  26  30
ENDBRANCH  25  26
ENDBRANCH   1  25
TORSDOF 7
ENDMDL
MODEL 7
REMARK VINA RESULT:      -6.7      2.534      7.309
REMARK  Name = 
REMARK  10 active torsions:
REMARK  status: ('A' for Active; 'I' for Inactive)
REMARK    1  A    between atoms: C_1  and  C_2
REMARK    2  A    between atoms: C_2  and  N_3
REMARK    3  A    between atoms: N_6  and  C_7
REMARK    4  A    between atoms: C_7  and  C_8
REMARK    5  A    between atoms: C_8  and  N_9
REMARK    6  A    between atoms: C_12  and  N_13
REMARK    7  A    between atoms: N_13  and  C_14
REMARK    8  A    between atoms: N_13  and  C_15
REMARK    9  A    between atoms: C_17  and  C_18
REMARK   10  A    between atoms: C_25  and  C_26
REMARK                            x       y       z     vdW  Elec       q    Type
REMARK                         _______ _______ _______ _____ _____    ______ ____
ROOT
ATOM      1  N   UNL     1      -1.492  14.268  20.548  0.00  0.00    +0.000 NA
ATOM      2  C   UNL     1      -2.061  15.522  21.021  0.00  0.00    +0.000 C 
ATOM      3  C   UNL     1      -2.507  15.523  22.471  0.00  0.00    +0.000 C 
ATOM      4  C   UNL     1      -3.432  14.367  22.966  0.00  0.00    +0.000 C 
ATOM      5  C   UNL     1      -2.592  13.069  23.222  0.00  0.00    +0.000 C 
ATOM      6  C   UNL     1      -2.324  12.214  21.951  0.00  0.00    +0.000 C 
ATOM      7  C   UNL     1      -2.420  13.094  20.660  0.00  0.00    +0.000 C 
ATOM      8  C   UNL     1      -3.953  13.504  20.521  0.00  0.00    +0.000 C 
ATOM      9  C   UNL     1      -4.502  14.084  21.869  0.00  0.00    +0.000 C 
ENDROOT
BRANCH   6  10
ATOM     10  C   UNL     1      -1.206  11.161  21.990  0.00  0.00    +0.000 A 
ATOM     11  C   UNL     1      -0.823  10.504  23.168  0.00  0.00    +0.000 A 
ATOM     12  C   UNL     1       0.126   9.469  23.147  0.00  0.00    +0.000 A 
ATOM     13  C   UNL     1       0.699   9.056  21.946  0.00  0.00    +0.000 A 
ATOM     14  C   UNL     1       0.322   9.673  20.765  0.00  0.00    +0.000 A 
ATOM     15  C   UNL     1      -0.619  10.705  20.790  0.00  0.00    +0.000 A 
ENDBRANCH   6  10
BRANCH   8  16
ATOM     16  C   UNL     1      -4.959  12.484  19.944  0.00  0.00    +0.000 A 
ATOM     17  C   UNL     1      -6.125  12.072  20.594  0.00  0.00    +0.000 A 
ATOM     18  C   UNL     1      -6.998  11.142  20.012  0.00  0.00    +0.000 A 
ATOM     19  C   UNL     1      -6.710  10.586  18.774  0.00  0.00    +0.000 A 
ATOM     20  C   UNL     1      -5.547  10.968  18.109  0.00  0.00    +0.000 A 
ATOM     21  C   UNL     1      -4.681  11.902  18.687  0.00  0.00    +0.000 A 
ENDBRANCH   8  16
BRANCH   4  22
ATOM     22  N   UNL     1      -4.091  14.895  24.218  0.00  0.00    +0.000 NA
ATOM     23  C   UNL     1      -3.222  15.566  25.188  0.00  0.00    +0.000 C 
ATOM     24  C   UNL     1      -5.280  15.732  24.008  0.00  0.00    +0.000 C 
ENDBRANCH   4  22
BRANCH   1  25
ATOM     25  C   UNL     1      -0.055  14.095  20.899  0.00  0.00    +0.000 C 
BRANCH  25  26
ATOM     26  C   UNL     1       0.865  13.956  19.622  0.00  0.00    +0.000 C 
BRANCH  26  30
ATOM     27  N   UNL     1       4.440  15.596  19.054  0.00  0.00    +0.000 NA
ATOM     28  C   UNL     1       3.650  14.943  17.990  0.00  0.00    +0.000 C 
ATOM     29  C   UNL     1       2.996  13.591  18.363  0.00  0.00    +0.000 C 
ATOM     30  N   UNL     1       2.288  13.577  19.646  0.00  0.00    +0.000 NA
ATOM     31  C   UNL     1       3.106  14.171  20.698  0.00  0.00    +0.000 C 
ATOM     32  C   UNL     1       3.696  15.549  20.332  0.00  0.00    +0.000 C 
BRANCH  27  34
ATOM     33  C   UNL     1       6.421  14.751  17.771  0.00  0.00    +0.000 C 
ATOM     34  C   UNL     1       5.796  15.023  19.137  0.00  0.00    +0.000 C 
ENDBRANCH  27  34
ENDBRANCH  26  30
ENDBRANCH  25  26
ENDBRANCH   1  25
TORSDOF 7
ENDMDL
MODEL 8
REMARK VINA RESULT:      -6.7      1.171      1.771
REMARK  Name = 
REMARK  10 active torsions:
REMARK  status: ('A' for Active; 'I' for Inactive)
REMARK    1  A    between atoms: C_1  and  C_2
REMARK    2  A    between atoms: C_2  and  N_3
REMARK    3  A    between atoms: N_6  and  C_7
REMARK    4  A    between atoms: C_7  and  C_8
REMARK    5  A    between atoms: C_8  and  N_9
REMARK    6  A    between atoms: C_12  and  N_13
REMARK    7  A    between atoms: N_13  and  C_14
REMARK    8  A    between atoms: N_13  and  C_15
REMARK    9  A    between atoms: C_17  and  C_18
REMARK   10  A    between atoms: C_25  and  C_26
REMARK                            x       y       z     vdW  Elec       q    Type
REMARK                         _______ _______ _______ _____ _____    ______ ____
ROOT
ATOM      1  N   UNL     1      -1.567  13.057  21.551  0.00  0.00    +0.000 NA
ATOM      2  C   UNL     1      -1.426  11.859  22.367  0.00  0.00    +0.000 C 
ATOM      3  C   UNL     1      -0.120  11.108  22.191  0.00  0.00    +0.000 C 
ATOM      4  C   UNL     1       0.345  10.752  20.745  0.00  0.00    +0.000 C 
ATOM      5  C   UNL     1       0.972  12.010  20.050  0.00  0.00    +0.000 C 
ATOM      6  C   UNL     1      -0.065  12.973  19.403  0.00  0.00    +0.000 C 
ATOM      7  C   UNL     1      -1.469  12.808  20.074  0.00  0.00    +0.000 C 
ATOM      8  C   UNL     1      -1.988  11.360  19.658  0.00  0.00    +0.000 C 
ATOM      9  C   UNL     1      -0.893  10.273  19.928  0.00  0.00    +0.000 C 
ENDROOT
BRANCH   6  10
ATOM     10  C   UNL     1       0.373  14.402  19.052  0.00  0.00    +0.000 A 
ATOM     11  C   UNL     1       1.715  14.761  18.862  0.00  0.00    +0.000 A 
ATOM     12  C   UNL     1       2.068  16.051  18.436  0.00  0.00    +0.000 A 
ATOM     13  C   UNL     1       1.088  17.006  18.171  0.00  0.00    +0.000 A 
ATOM     14  C   UNL     1      -0.246  16.671  18.329  0.00  0.00    +0.000 A 
ATOM     15  C   UNL     1      -0.595  15.387  18.758  0.00  0.00    +0.000 A 
ENDBRANCH   6  10
BRANCH   8  16
ATOM     16  C   UNL     1      -2.596  11.151  18.254  0.00  0.00    +0.000 A 
ATOM     17  C   UNL     1      -3.809  11.700  17.829  0.00  0.00    +0.000 A 
ATOM     18  C   UNL     1      -4.304  11.472  16.538  0.00  0.00    +0.000 A 
ATOM     19  C   UNL     1      -3.605  10.669  15.648  0.00  0.00    +0.000 A 
ATOM     20  C   UNL     1      -2.398  10.097  16.049  0.00  0.00    +0.000 A 
ATOM     21  C   UNL     1      -1.902  10.332  17.335  0.00  0.00    +0.000 A 
ENDBRANCH   8  16
BRANCH   4  22
ATOM     22  N   UNL     1       1.333   9.622  20.912  0.00  0.00    +0.000 NA
ATOM     23  C   UNL     1       1.296   8.897  22.185  0.00  0.00    +0.000 C 
ATOM     24  C   UNL     1       1.366   8.639  19.821  0.00  0.00    +0.000 C 
ENDBRANCH   4  22
BRANCH   1  25
ATOM     25  C   UNL     1      -0.900  14.255  22.132  0.00  0.00    +0.000 C 
BRANCH  25  26
ATOM     26  C   UNL     1      -1.239  14.450  23.663  0.00  0.00    +0.000 C 
BRANCH  26  30
ATOM     27  N   UNL     1      -5.169  14.277  23.100  0.00  0.00    +0.000 NA
ATOM     28  C   UNL     1      -4.271  15.211  22.391  0.00  0.00    +0.000 C 
ATOM     29  C   UNL     1      -3.214  15.931  23.263  0.00  0.00    +0.000 C 
ATOM     30  N   UNL     1      -2.473  15.064  24.182  0.00  0.00    +0.000 NA
ATOM     31  C   UNL     1      -3.380  14.190  24.918  0.00  0.00    +0.000 C 
ATOM     32  C   UNL     1      -4.383  13.431  24.025  0.00  0.00    +0.000 C 
BRANCH  27  34
ATOM     33  C   UNL     1      -7.494  14.118  24.023  0.00  0.00    +0.000 C 
ATOM     34  C   UNL     1      -6.276  14.998  23.754  0.00  0.00    +0.000 C 
ENDBRANCH  27  34
ENDBRANCH  26  30
ENDBRANCH  25  26
ENDBRANCH   1  25
TORSDOF 7
ENDMDL
MODEL 9
REMARK VINA RESULT:      -6.7      2.700      7.038
REMARK  Name = 
REMARK  10 active torsions:
REMARK  status: ('A' for Active; 'I' for Inactive)
REMARK    1  A    between atoms: C_1  and  C_2
REMARK    2  A    between atoms: C_2  and  N_3
REMARK    3  A    between atoms: N_6  and  C_7
REMARK    4  A    between atoms: C_7  and  C_8
REMARK    5  A    between atoms: C_8  and  N_9
REMARK    6  A    between atoms: C_12  and  N_13
REMARK    7  A    between atoms: N_13  and  C_14
REMARK    8  A    between atoms: N_13  and  C_15
REMARK    9  A    between atoms: C_17  and  C_18
REMARK   10  A    between atoms: C_25  and  C_26
REMARK                            x       y       z     vdW  Elec       q    Type
REMARK                         _______ _______ _______ _____ _____    ______ ____
ROOT
ATOM      1  N   UNL     1       0.781  13.189  19.249  0.00  0.00    +0.000 NA
ATOM      2  C   UNL     1       0.422  14.268  20.159  0.00  0.00    +0.000 C 
ATOM      3  C   UNL     1       0.107  13.838  21.579  0.00  0.00    +0.000 C 
ATOM      4  C   UNL     1      -0.913  12.677  21.796  0.00  0.00    +0.000 C 
ATOM      5  C   UNL     1      -0.228  11.293  21.526  0.00  0.00    +0.000 C 
ATOM      6  C   UNL     1      -0.184  10.878  20.027  0.00  0.00    +0.000 C 
ATOM      7  C   UNL     1      -0.277  12.135  19.101  0.00  0.00    +0.000 C 
ATOM      8  C   UNL     1      -1.751  12.712  19.288  0.00  0.00    +0.000 C 
ATOM      9  C   UNL     1      -2.102  12.869  20.806  0.00  0.00    +0.000 C 
ENDROOT
BRANCH   6  10
ATOM     10  C   UNL     1       0.787   9.769  19.596  0.00  0.00    +0.000 A 
ATOM     11  C   UNL     1       1.204   8.746  20.459  0.00  0.00    +0.000 A 
ATOM     12  C   UNL     1       2.005   7.689  19.999  0.00  0.00    +0.000 A 
ATOM     13  C   UNL     1       2.393   7.620  18.663  0.00  0.00    +0.000 A 
ATOM     14  C   UNL     1       1.977   8.606  17.783  0.00  0.00    +0.000 A 
ATOM     15  C   UNL     1       1.183   9.660  18.245  0.00  0.00    +0.000 A 
ENDBRANCH   6  10
BRANCH   8  16
ATOM     16  C   UNL     1      -2.926  12.035  18.548  0.00  0.00    +0.000 A 
ATOM     17  C   UNL     1      -2.807  11.359  17.331  0.00  0.00    +0.000 A 
ATOM     18  C   UNL     1      -3.915  10.764  16.713  0.00  0.00    +0.000 A 
ATOM     19  C   UNL     1      -5.174  10.853  17.289  0.00  0.00    +0.000 A 
ATOM     20  C   UNL     1      -5.325  11.534  18.496  0.00  0.00    +0.000 A 
ATOM     21  C   UNL     1      -4.216  12.120  19.116  0.00  0.00    +0.000 A 
ENDBRANCH   8  16
BRANCH   4  22
ATOM     22  N   UNL     1      -1.388  12.827  23.222  0.00  0.00    +0.000 NA
ATOM     23  C   UNL     1      -1.318  14.171  23.802  0.00  0.00    +0.000 C 
ATOM     24  C   UNL     1      -2.714  12.266  23.515  0.00  0.00    +0.000 C 
ENDBRANCH   4  22
BRANCH   1  25
ATOM     25  C   UNL     1       2.209  12.777  19.349  0.00  0.00    +0.000 C 
BRANCH  25  26
ATOM     26  C   UNL     1       3.121  13.504  18.283  0.00  0.00    +0.000 C 
BRANCH  26  30
ATOM     27  N   UNL     1       6.383  15.236  19.750  0.00  0.00    +0.000 NA
ATOM     28  C   UNL     1       5.149  15.001  20.527  0.00  0.00    +0.000 C 
ATOM     29  C   UNL     1       3.821  15.353  19.816  0.00  0.00    +0.000 C 
ATOM     30  N   UNL     1       3.698  14.850  18.446  0.00  0.00    +0.000 NA
ATOM     31  C   UNL     1       4.901  15.144  17.674  0.00  0.00    +0.000 C 
ATOM     32  C   UNL     1       6.212  14.726  18.372  0.00  0.00    +0.000 C 
BRANCH  27  34
ATOM     33  C   UNL     1       6.811  17.215  21.230  0.00  0.00    +0.000 C 
ATOM     34  C   UNL     1       6.787  16.653  19.811  0.00  0.00    +0.000 C 
ENDBRANCH  27  34
ENDBRANCH  26  30
ENDBRANCH  25  26
ENDBRANCH   1  25
TORSDOF 7
ENDMDL
