MODEL 1
REMARK VINA RESULT:      -8.1      0.000      0.000
REMARK  Name = 
REMARK  7 active torsions:
REMARK  status: ('A' for Active; 'I' for Inactive)
REMARK    1  A    between atoms: C_1  and  C_2
REMARK    2  A    between atoms: C_2  and  O_3
REMARK    3  A    between atoms: O_3  and  C_4
REMARK    4  A    between atoms: C_4  and  C_6
REMARK    5  A    between atoms: C_9  and  C_10
REMARK    6  A    between atoms: C_14  and  C_15
REMARK    7  A    between atoms: C_21  and  N_22
REMARK                            x       y       z     vdW  Elec       q    Type
REMARK                         _______ _______ _______ _____ _____    ______ ____
ROOT
ATOM      1  C   UNL     1       6.457   5.195  16.997  0.00  0.00    +0.000 A 
ATOM      2  C   UNL     1       7.316   5.438  15.937  0.00  0.00    +0.000 A 
ATOM      3  N   UNL     1       7.138   4.971  14.686  0.00  0.00    +0.000 NA
ATOM      4  C   UNL     1       6.034   4.235  14.494  0.00  0.00    +0.000 A 
ATOM      5  N   UNL     1       5.119   4.003  15.454  0.00  0.00    +0.000 NA
ATOM      6  C   UNL     1       5.313   4.452  16.720  0.00  0.00    +0.000 A 
ENDROOT
BRANCH   6   7
ATOM      7  N   UNL     1       4.296   4.160  17.609  0.00  0.00    +0.000 N 
ATOM      8  C   UNL     1       4.002   2.775  18.002  0.00  0.00    +0.000 C 
ATOM      9  C   UNL     1       3.846   2.683  19.518  0.00  0.00    +0.000 C 
ATOM     10  C   UNL     1       2.793   3.660  20.026  0.00  0.00    +0.000 C 
ATOM     11  C   UNL     1       3.113   5.089  19.565  0.00  0.00    +0.000 C 
ATOM     12  C   UNL     1       2.035   6.059  20.070  0.00  0.00    +0.000 C 
ATOM     13  C   UNL     1       2.300   7.482  19.600  0.00  0.00    +0.000 C 
ATOM     14  C   UNL     1       2.391   7.546  18.081  0.00  0.00    +0.000 C 
ATOM     15  C   UNL     1       3.475   6.604  17.570  0.00  0.00    +0.000 C 
ATOM     16  C   UNL     1       3.264   5.150  18.024  0.00  0.00    +0.000 C 
ENDBRANCH   6   7
BRANCH   4  17
ATOM     17  C   UNL     1       5.839   3.592  13.175  0.00  0.00    +0.000 A 
ATOM     18  C   UNL     1       6.788   2.694  12.652  0.00  0.00    +0.000 A 
ATOM     19  C   UNL     1       6.607   2.071  11.412  0.00  0.00    +0.000 A 
ATOM     20  C   UNL     1       5.464   2.327  10.659  0.00  0.00    +0.000 A 
ATOM     21  C   UNL     1       4.488   3.206  11.139  0.00  0.00    +0.000 A 
ATOM     22  C   UNL     1       4.690   3.827  12.389  0.00  0.00    +0.000 A 
BRANCH  21  23
ATOM     23  C   UNL     1       3.238   3.495  10.343  0.00  0.00    +0.000 C 
ATOM     24  F   UNL     1       2.850   4.801  10.397  0.00  0.00    +0.000 F 
ATOM     25  F   UNL     1       3.381   3.206   9.019  0.00  0.00    +0.000 F 
ATOM     26  F   UNL     1       2.167   2.772  10.770  0.00  0.00    +0.000 F 
ENDBRANCH  21  23
ENDBRANCH   4  17
BRANCH   1  27
ATOM     27  C   UNL     1       6.889   5.609  18.345  0.00  0.00    +0.000 C 
ATOM     28  O   UNL     1       7.160   4.845  19.256  0.00  0.00    +0.000 OA
BRANCH  27  29
ATOM     29  O   UNL     1       6.924   6.967  18.417  0.00  0.00    +0.000 OA
BRANCH  29  31
ATOM     30  C   UNL     1       8.212   8.954  17.951  0.00  0.00    +0.000 C 
ATOM     31  C   UNL     1       8.237   7.546  18.516  0.00  0.00    +0.000 C 
ENDBRANCH  29  31
ENDBRANCH  27  29
ENDBRANCH   1  27
TORSDOF 6
ENDMDL
MODEL 2
REMARK VINA RESULT:      -7.9      1.764      2.983
REMARK  Name = 
REMARK  7 active torsions:
REMARK  status: ('A' for Active; 'I' for Inactive)
REMARK    1  A    between atoms: C_1  and  C_2
REMARK    2  A    between atoms: C_2  and  O_3
REMARK    3  A    between atoms: O_3  and  C_4
REMARK    4  A    between atoms: C_4  and  C_6
REMARK    5  A    between atoms: C_9  and  C_10
REMARK    6  A    between atoms: C_14  and  C_15
REMARK    7  A    between atoms: C_21  and  N_22
REMARK                            x       y       z     vdW  Elec       q    Type
REMARK                         _______ _______ _______ _____ _____    ______ ____
ROOT
ATOM      1  C   UNL     1       6.774   5.486  17.149  0.00  0.00    +0.000 A 
ATOM      2  C   UNL     1       7.680   5.159  16.153  0.00  0.00    +0.000 A 
ATOM      3  N   UNL     1       7.343   4.672  14.942  0.00  0.00    +0.000 NA
ATOM      4  C   UNL     1       6.030   4.519  14.725  0.00  0.00    +0.000 A 
ATOM      5  N   UNL     1       5.083   4.868  15.616  0.00  0.00    +0.000 NA
ATOM      6  C   UNL     1       5.424   5.334  16.844  0.00  0.00    +0.000 A 
ENDROOT
BRANCH   6   7
ATOM      7  N   UNL     1       4.361   5.669  17.662  0.00  0.00    +0.000 N 
ATOM      8  C   UNL     1       4.021   7.073  17.930  0.00  0.00    +0.000 C 
ATOM      9  C   UNL     1       2.517   7.288  17.764  0.00  0.00    +0.000 C 
ATOM     10  C   UNL     1       1.722   6.326  18.639  0.00  0.00    +0.000 C 
ATOM     11  C   UNL     1       2.131   4.873  18.357  0.00  0.00    +0.000 C 
ATOM     12  C   UNL     1       1.333   3.918  19.256  0.00  0.00    +0.000 C 
ATOM     13  C   UNL     1       1.740   2.469  19.030  0.00  0.00    +0.000 C 
ATOM     14  C   UNL     1       3.234   2.280  19.261  0.00  0.00    +0.000 C 
ATOM     15  C   UNL     1       4.036   3.208  18.355  0.00  0.00    +0.000 C 
ATOM     16  C   UNL     1       3.659   4.687  18.534  0.00  0.00    +0.000 C 
ENDBRANCH   6   7
BRANCH   4  17
ATOM     17  C   UNL     1       5.596   3.876  13.464  0.00  0.00    +0.000 A 
ATOM     18  C   UNL     1       4.386   4.233  12.840  0.00  0.00    +0.000 A 
ATOM     19  C   UNL     1       3.972   3.640  11.642  0.00  0.00    +0.000 A 
ATOM     20  C   UNL     1       4.764   2.673  11.029  0.00  0.00    +0.000 A 
ATOM     21  C   UNL     1       5.979   2.289  11.606  0.00  0.00    +0.000 A 
ATOM     22  C   UNL     1       6.376   2.894  12.816  0.00  0.00    +0.000 A 
BRANCH  21  23
ATOM     23  C   UNL     1       6.856   1.245  10.957  0.00  0.00    +0.000 C 
ATOM     24  F   UNL     1       8.117   1.196  11.475  0.00  0.00    +0.000 F 
ATOM     25  F   UNL     1       6.355  -0.016  11.086  0.00  0.00    +0.000 F 
ATOM     26  F   UNL     1       7.013   1.450   9.621  0.00  0.00    +0.000 F 
ENDBRANCH  21  23
ENDBRANCH   4  17
BRANCH   1  27
ATOM     27  C   UNL     1       7.306   5.821  18.483  0.00  0.00    +0.000 C 
ATOM     28  O   UNL     1       7.031   5.229  19.512  0.00  0.00    +0.000 OA
BRANCH  27  29
ATOM     29  O   UNL     1       8.134   6.896  18.388  0.00  0.00    +0.000 OA
BRANCH  29  31
ATOM     30  C   UNL     1       8.381   9.282  18.123  0.00  0.00    +0.000 C 
ATOM     31  C   UNL     1       7.568   8.056  17.752  0.00  0.00    +0.000 C 
ENDBRANCH  29  31
ENDBRANCH  27  29
ENDBRANCH   1  27
TORSDOF 6
ENDMDL
MODEL 3
REMARK VINA RESULT:      -7.8      0.994      2.358
REMARK  Name = 
REMARK  7 active torsions:
REMARK  status: ('A' for Active; 'I' for Inactive)
REMARK    1  A    between atoms: C_1  and  C_2
REMARK    2  A    between atoms: C_2  and  O_3
REMARK    3  A    between atoms: O_3  and  C_4
REMARK    4  A    between atoms: C_4  and  C_6
REMARK    5  A    between atoms: C_9  and  C_10
REMARK    6  A    between atoms: C_14  and  C_15
REMARK    7  A    between atoms: C_21  and  N_22
REMARK                            x       y       z     vdW  Elec       q    Type
REMARK                         _______ _______ _______ _____ _____    ______ ____
ROOT
ATOM      1  C   UNL     1       6.827   5.517  17.044  0.00  0.00    +0.000 A 
ATOM      2  C   UNL     1       7.830   5.304  16.111  0.00  0.00    +0.000 A 
ATOM      3  N   UNL     1       7.634   4.781  14.885  0.00  0.00    +0.000 NA
ATOM      4  C   UNL     1       6.366   4.468  14.584  0.00  0.00    +0.000 A 
ATOM      5  N   UNL     1       5.328   4.698  15.409  0.00  0.00    +0.000 NA
ATOM      6  C   UNL     1       5.528   5.201  16.653  0.00  0.00    +0.000 A 
ENDROOT
BRANCH   6   7
ATOM      7  N   UNL     1       4.382   5.403  17.397  0.00  0.00    +0.000 N 
ATOM      8  C   UNL     1       3.948   6.755  17.775  0.00  0.00    +0.000 C 
ATOM      9  C   UNL     1       2.456   6.925  17.492  0.00  0.00    +0.000 C 
ATOM     10  C   UNL     1       1.636   5.843  18.185  0.00  0.00    +0.000 C 
ATOM     11  C   UNL     1       2.142   4.447  17.795  0.00  0.00    +0.000 C 
ATOM     12  C   UNL     1       1.316   3.369  18.513  0.00  0.00    +0.000 C 
ATOM     13  C   UNL     1       1.815   1.970  18.178  0.00  0.00    +0.000 C 
ATOM     14  C   UNL     1       3.290   1.819  18.528  0.00  0.00    +0.000 C 
ATOM     15  C   UNL     1       4.121   2.871  17.802  0.00  0.00    +0.000 C 
ATOM     16  C   UNL     1       3.655   4.306  18.094  0.00  0.00    +0.000 C 
ENDBRANCH   6   7
BRANCH   4  17
ATOM     17  C   UNL     1       6.098   3.778  13.301  0.00  0.00    +0.000 A 
ATOM     18  C   UNL     1       7.088   3.008  12.665  0.00  0.00    +0.000 A 
ATOM     19  C   UNL     1       6.841   2.342  11.459  0.00  0.00    +0.000 A 
ATOM     20  C   UNL     1       5.589   2.425  10.856  0.00  0.00    +0.000 A 
ATOM     21  C   UNL     1       4.569   3.173  11.453  0.00  0.00    +0.000 A 
ATOM     22  C   UNL     1       4.839   3.840  12.666  0.00  0.00    +0.000 A 
BRANCH  21  23
ATOM     23  C   UNL     1       3.202   3.274  10.821  0.00  0.00    +0.000 C 
ATOM     24  F   UNL     1       3.053   2.485   9.719  0.00  0.00    +0.000 F 
ATOM     25  F   UNL     1       2.202   2.911  11.673  0.00  0.00    +0.000 F 
ATOM     26  F   UNL     1       2.906   4.538  10.414  0.00  0.00    +0.000 F 
ENDBRANCH  21  23
ENDBRANCH   4  17
BRANCH   1  27
ATOM     27  C   UNL     1       7.226   5.913  18.408  0.00  0.00    +0.000 C 
ATOM     28  O   UNL     1       6.842   5.374  19.431  0.00  0.00    +0.000 OA
BRANCH  27  29
ATOM     29  O   UNL     1       8.072   6.976  18.345  0.00  0.00    +0.000 OA
BRANCH  29  31
ATOM     30  C   UNL     1       8.379   9.357  18.101  0.00  0.00    +0.000 C 
ATOM     31  C   UNL     1       7.536   8.155  17.719  0.00  0.00    +0.000 C 
ENDBRANCH  29  31
ENDBRANCH  27  29
ENDBRANCH   1  27
TORSDOF 6
ENDMDL
MODEL 4
REMARK VINA RESULT:      -7.7      5.286      8.695
REMARK  Name = 
REMARK  7 active torsions:
REMARK  status: ('A' for Active; 'I' for Inactive)
REMARK    1  A    between atoms: C_1  and  C_2
REMARK    2  A    between atoms: C_2  and  O_3
REMARK    3  A    between atoms: O_3  and  C_4
REMARK    4  A    between atoms: C_4  and  C_6
REMARK    5  A    between atoms: C_9  and  C_10
REMARK    6  A    between atoms: C_14  and  C_15
REMARK    7  A    between atoms: C_21  and  N_22
REMARK                            x       y       z     vdW  Elec       q    Type
REMARK                         _______ _______ _______ _____ _____    ______ ____
ROOT
ATOM      1  C   UNL     1       3.656   4.139  19.793  0.00  0.00    +0.000 A 
ATOM      2  C   UNL     1       2.368   4.256  20.292  0.00  0.00    +0.000 A 
ATOM      3  N   UNL     1       1.687   5.415  20.384  0.00  0.00    +0.000 NA
ATOM      4  C   UNL     1       2.333   6.503  19.942  0.00  0.00    +0.000 A 
ATOM      5  N   UNL     1       3.560   6.466  19.389  0.00  0.00    +0.000 NA
ATOM      6  C   UNL     1       4.255   5.303  19.320  0.00  0.00    +0.000 A 
ENDROOT
BRANCH   6   7
ATOM      7  N   UNL     1       5.496   5.395  18.720  0.00  0.00    +0.000 N 
ATOM      8  C   UNL     1       6.676   5.837  19.475  0.00  0.00    +0.000 C 
ATOM      9  C   UNL     1       7.851   4.899  19.207  0.00  0.00    +0.000 C 
ATOM     10  C   UNL     1       8.135   4.781  17.714  0.00  0.00    +0.000 C 
ATOM     11  C   UNL     1       6.870   4.353  16.955  0.00  0.00    +0.000 C 
ATOM     12  C   UNL     1       7.168   4.254  15.452  0.00  0.00    +0.000 C 
ATOM     13  C   UNL     1       5.926   3.868  14.662  0.00  0.00    +0.000 C 
ATOM     14  C   UNL     1       4.794   4.858  14.907  0.00  0.00    +0.000 C 
ATOM     15  C   UNL     1       4.475   4.946  16.396  0.00  0.00    +0.000 C 
ATOM     16  C   UNL     1       5.698   5.323  17.246  0.00  0.00    +0.000 C 
ENDBRANCH   6   7
BRANCH   4  17
ATOM     17  C   UNL     1       1.690   7.825  20.126  0.00  0.00    +0.000 A 
ATOM     18  C   UNL     1       1.619   8.755  19.072  0.00  0.00    +0.000 A 
ATOM     19  C   UNL     1       1.004  10.002  19.232  0.00  0.00    +0.000 A 
ATOM     20  C   UNL     1       0.437  10.353  20.453  0.00  0.00    +0.000 A 
ATOM     21  C   UNL     1       0.475   9.460  21.529  0.00  0.00    +0.000 A 
ATOM     22  C   UNL     1       1.103   8.210  21.350  0.00  0.00    +0.000 A 
BRANCH  21  23
ATOM     23  C   UNL     1      -0.138   9.816  22.862  0.00  0.00    +0.000 C 
ATOM     24  F   UNL     1       0.659   9.509  23.926  0.00  0.00    +0.000 F 
ATOM     25  F   UNL     1      -0.410  11.146  22.976  0.00  0.00    +0.000 F 
ATOM     26  F   UNL     1      -1.316   9.172  23.084  0.00  0.00    +0.000 F 
ENDBRANCH  21  23
ENDBRANCH   4  17
BRANCH   1  27
ATOM     27  C   UNL     1       4.336   2.838  19.938  0.00  0.00    +0.000 C 
ATOM     28  O   UNL     1       4.708   2.360  20.996  0.00  0.00    +0.000 OA
BRANCH  27  29
ATOM     29  O   UNL     1       4.494   2.266  18.715  0.00  0.00    +0.000 OA
BRANCH  29  31
ATOM     30  C   UNL     1       2.434   2.098  17.468  0.00  0.00    +0.000 C 
ATOM     31  C   UNL     1       3.450   1.359  18.318  0.00  0.00    +0.000 C 
ENDBRANCH  29  31
ENDBRANCH  27  29
ENDBRANCH   1  27
TORSDOF 6
ENDMDL
MODEL 5
REMARK VINA RESULT:      -7.4      1.649      2.157
REMARK  Name = 
REMARK  7 active torsions:
REMARK  status: ('A' for Active; 'I' for Inactive)
REMARK    1  A    between atoms: C_1  and  C_2
REMARK    2  A    between atoms: C_2  and  O_3
REMARK    3  A    between atoms: O_3  and  C_4
REMARK    4  A    between atoms: C_4  and  C_6
REMARK    5  A    between atoms: C_9  and  C_10
REMARK    6  A    between atoms: C_14  and  C_15
REMARK    7  A    between atoms: C_21  and  N_22
REMARK                            x       y       z     vdW  Elec       q    Type
REMARK                         _______ _______ _______ _____ _____    ______ ____
ROOT
ATOM      1  C   UNL     1       6.299   5.254  17.221  0.00  0.00    +0.000 A 
ATOM      2  C   UNL     1       7.109   5.468  16.117  0.00  0.00    +0.000 A 
ATOM      3  N   UNL     1       6.830   5.040  14.870  0.00  0.00    +0.000 NA
ATOM      4  C   UNL     1       5.676   4.375  14.730  0.00  0.00    +0.000 A 
ATOM      5  N   UNL     1       4.805   4.177  15.738  0.00  0.00    +0.000 NA
ATOM      6  C   UNL     1       5.098   4.586  16.998  0.00  0.00    +0.000 A 
ENDROOT
BRANCH   6   7
ATOM      7  N   UNL     1       4.118   4.336  17.940  0.00  0.00    +0.000 N 
ATOM      8  C   UNL     1       3.873   2.976  18.440  0.00  0.00    +0.000 C 
ATOM      9  C   UNL     1       3.768   2.990  19.964  0.00  0.00    +0.000 C 
ATOM     10  C   UNL     1       2.708   3.977  20.437  0.00  0.00    +0.000 C 
ATOM     11  C   UNL     1       2.977   5.376  19.865  0.00  0.00    +0.000 C 
ATOM     12  C   UNL     1       1.892   6.355  20.337  0.00  0.00    +0.000 C 
ATOM     13  C   UNL     1       2.106   7.746  19.758  0.00  0.00    +0.000 C 
ATOM     14  C   UNL     1       2.145   7.703  18.236  0.00  0.00    +0.000 C 
ATOM     15  C   UNL     1       3.236   6.751  17.756  0.00  0.00    +0.000 C 
ATOM     16  C   UNL     1       3.076   5.329  18.320  0.00  0.00    +0.000 C 
ENDBRANCH   6   7
BRANCH   4  17
ATOM     17  C   UNL     1       5.366   3.772  13.413  0.00  0.00    +0.000 A 
ATOM     18  C   UNL     1       4.210   4.136  12.697  0.00  0.00    +0.000 A 
ATOM     19  C   UNL     1       3.914   3.581  11.447  0.00  0.00    +0.000 A 
ATOM     20  C   UNL     1       4.773   2.647  10.874  0.00  0.00    +0.000 A 
ATOM     21  C   UNL     1       5.938   2.259  11.543  0.00  0.00    +0.000 A 
ATOM     22  C   UNL     1       6.217   2.826  12.803  0.00  0.00    +0.000 A 
BRANCH  21  23
ATOM     23  C   UNL     1       6.886   1.251  10.939  0.00  0.00    +0.000 C 
ATOM     24  F   UNL     1       8.138   1.291  11.479  0.00  0.00    +0.000 F 
ATOM     25  F   UNL     1       6.457  -0.033  11.095  0.00  0.00    +0.000 F 
ATOM     26  F   UNL     1       7.055   1.429   9.600  0.00  0.00    +0.000 F 
ENDBRANCH  21  23
ENDBRANCH   4  17
BRANCH   1  27
ATOM     27  C   UNL     1       6.833   5.613  18.548  0.00  0.00    +0.000 C 
ATOM     28  O   UNL     1       6.225   5.497  19.598  0.00  0.00    +0.000 OA
BRANCH  27  29
ATOM     29  O   UNL     1       8.095   6.103  18.416  0.00  0.00    +0.000 OA
BRANCH  29  31
ATOM     30  C   UNL     1       7.946   8.413  17.734  0.00  0.00    +0.000 C 
ATOM     31  C   UNL     1       8.281   7.457  18.864  0.00  0.00    +0.000 C 
ENDBRANCH  29  31
ENDBRANCH  27  29
ENDBRANCH   1  27
TORSDOF 6
ENDMDL
MODEL 6
REMARK VINA RESULT:      -7.4      6.317      8.883
REMARK  Name = 
REMARK  7 active torsions:
REMARK  status: ('A' for Active; 'I' for Inactive)
REMARK    1  A    between atoms: C_1  and  C_2
REMARK    2  A    between atoms: C_2  and  O_3
REMARK    3  A    between atoms: O_3  and  C_4
REMARK    4  A    between atoms: C_4  and  C_6
REMARK    5  A    between atoms: C_9  and  C_10
REMARK    6  A    between atoms: C_14  and  C_15
REMARK    7  A    between atoms: C_21  and  N_22
REMARK                            x       y       z     vdW  Elec       q    Type
REMARK                         _______ _______ _______ _____ _____    ______ ____
ROOT
ATOM      1  C   UNL     1       1.257  11.974  18.387  0.00  0.00    +0.000 A 
ATOM      2  C   UNL     1       2.458  11.603  17.803  0.00  0.00    +0.000 A 
ATOM      3  N   UNL     1       2.894  10.332  17.693  0.00  0.00    +0.000 NA
ATOM      4  C   UNL     1       2.074   9.394  18.186  0.00  0.00    +0.000 A 
ATOM      5  N   UNL     1       0.865   9.665  18.713  0.00  0.00    +0.000 NA
ATOM      6  C   UNL     1       0.438  10.946  18.847  0.00  0.00    +0.000 A 
ENDROOT
BRANCH   6   7
ATOM      7  N   UNL     1      -0.824  11.092  19.391  0.00  0.00    +0.000 N 
ATOM      8  C   UNL     1      -1.009  11.364  20.822  0.00  0.00    +0.000 C 
ATOM      9  C   UNL     1      -2.011  12.501  21.014  0.00  0.00    +0.000 C 
ATOM     10  C   UNL     1      -3.329  12.201  20.311  0.00  0.00    +0.000 C 
ATOM     11  C   UNL     1      -3.091  11.886  18.827  0.00  0.00    +0.000 C 
ATOM     12  C   UNL     1      -4.426  11.571  18.136  0.00  0.00    +0.000 C 
ATOM     13  C   UNL     1      -4.225  11.216  16.669  0.00  0.00    +0.000 C 
ATOM     14  C   UNL     1      -3.267  10.041  16.519  0.00  0.00    +0.000 C 
ATOM     15  C   UNL     1      -1.930  10.354  17.182  0.00  0.00    +0.000 C 
ATOM     16  C   UNL     1      -2.073  10.729  18.666  0.00  0.00    +0.000 C 
ENDBRANCH   6   7
BRANCH   4  17
ATOM     17  C   UNL     1       2.544   7.990  18.207  0.00  0.00    +0.000 A 
ATOM     18  C   UNL     1       3.610   7.564  17.394  0.00  0.00    +0.000 A 
ATOM     19  C   UNL     1       4.070   6.242  17.415  0.00  0.00    +0.000 A 
ATOM     20  C   UNL     1       3.476   5.307  18.258  0.00  0.00    +0.000 A 
ATOM     21  C   UNL     1       2.417   5.683  19.091  0.00  0.00    +0.000 A 
ATOM     22  C   UNL     1       1.965   7.018  19.052  0.00  0.00    +0.000 A 
BRANCH  21  23
ATOM     23  C   UNL     1       1.760   4.687  20.017  0.00  0.00    +0.000 C 
ATOM     24  F   UNL     1       0.884   5.256  20.893  0.00  0.00    +0.000 F 
ATOM     25  F   UNL     1       1.049   3.738  19.346  0.00  0.00    +0.000 F 
ATOM     26  F   UNL     1       2.660   4.010  20.781  0.00  0.00    +0.000 F 
ENDBRANCH  21  23
ENDBRANCH   4  17
BRANCH   1  27
ATOM     27  C   UNL     1       1.012  13.412  18.606  0.00  0.00    +0.000 C 
ATOM     28  O   UNL     1      -0.014  13.998  18.307  0.00  0.00    +0.000 OA
BRANCH  27  29
ATOM     29  O   UNL     1       2.108  13.981  19.176  0.00  0.00    +0.000 OA
BRANCH  29  31
ATOM     30  C   UNL     1       3.444  15.261  17.627  0.00  0.00    +0.000 C 
ATOM     31  C   UNL     1       2.410  15.316  18.735  0.00  0.00    +0.000 C 
ENDBRANCH  29  31
ENDBRANCH  27  29
ENDBRANCH   1  27
TORSDOF 6
ENDMDL
MODEL 7
REMARK VINA RESULT:      -7.4      6.121      8.799
REMARK  Name = 
REMARK  7 active torsions:
REMARK  status: ('A' for Active; 'I' for Inactive)
REMARK    1  A    between atoms: C_1  and  C_2
REMARK    2  A    between atoms: C_2  and  O_3
REMARK    3  A    between atoms: O_3  and  C_4
REMARK    4  A    between atoms: C_4  and  C_6
REMARK    5  A    between atoms: C_9  and  C_10
REMARK    6  A    between atoms: C_14  and  C_15
REMARK    7  A    between atoms: C_21  and  N_22
REMARK                            x       y       z     vdW  Elec       q    Type
REMARK                         _______ _______ _______ _____ _____    ______ ____
ROOT
ATOM      1  C   UNL     1       1.035  12.263  18.490  0.00  0.00    +0.000 A 
ATOM      2  C   UNL     1       2.258  11.910  17.941  0.00  0.00    +0.000 A 
ATOM      3  N   UNL     1       2.731  10.650  17.876  0.00  0.00    +0.000 NA
ATOM      4  C   UNL     1       1.928   9.703  18.379  0.00  0.00    +0.000 A 
ATOM      5  N   UNL     1       0.701   9.955  18.874  0.00  0.00    +0.000 NA
ATOM      6  C   UNL     1       0.236  11.226  18.963  0.00  0.00    +0.000 A 
ENDROOT
BRANCH   6   7
ATOM      7  N   UNL     1      -1.040  11.351  19.477  0.00  0.00    +0.000 N 
ATOM      8  C   UNL     1      -1.263  11.638  20.900  0.00  0.00    +0.000 C 
ATOM      9  C   UNL     1      -2.293  12.755  21.054  0.00  0.00    +0.000 C 
ATOM     10  C   UNL     1      -3.588  12.416  20.327  0.00  0.00    +0.000 C 
ATOM     11  C   UNL     1      -3.312  12.086  18.853  0.00  0.00    +0.000 C 
ATOM     12  C   UNL     1      -4.624  11.732  18.138  0.00  0.00    +0.000 C 
ATOM     13  C   UNL     1      -4.383  11.363  16.682  0.00  0.00    +0.000 C 
ATOM     14  C   UNL     1      -3.396  10.207  16.569  0.00  0.00    +0.000 C 
ATOM     15  C   UNL     1      -2.081  10.558  17.255  0.00  0.00    +0.000 C 
ATOM     16  C   UNL     1      -2.265  10.951  18.730  0.00  0.00    +0.000 C 
ENDBRANCH   6   7
BRANCH   4  17
ATOM     17  C   UNL     1       2.436   8.314  18.450  0.00  0.00    +0.000 A 
ATOM     18  C   UNL     1       1.987   7.421  19.440  0.00  0.00    +0.000 A 
ATOM     19  C   UNL     1       2.452   6.103  19.509  0.00  0.00    +0.000 A 
ATOM     20  C   UNL     1       3.381   5.638  18.582  0.00  0.00    +0.000 A 
ATOM     21  C   UNL     1       3.853   6.485  17.574  0.00  0.00    +0.000 A 
ATOM     22  C   UNL     1       3.375   7.811  17.523  0.00  0.00    +0.000 A 
BRANCH  21  23
ATOM     23  C   UNL     1       4.857   6.003  16.554  0.00  0.00    +0.000 C 
ATOM     24  F   UNL     1       4.606   4.742  16.099  0.00  0.00    +0.000 F 
ATOM     25  F   UNL     1       4.901   6.794  15.446  0.00  0.00    +0.000 F 
ATOM     26  F   UNL     1       6.126   5.974  17.044  0.00  0.00    +0.000 F 
ENDBRANCH  21  23
ENDBRANCH   4  17
BRANCH   1  27
ATOM     27  C   UNL     1       0.746  13.700  18.662  0.00  0.00    +0.000 C 
ATOM     28  O   UNL     1      -0.293  14.246  18.333  0.00  0.00    +0.000 OA
BRANCH  27  29
ATOM     29  O   UNL     1       1.817  14.317  19.229  0.00  0.00    +0.000 OA
BRANCH  29  31
ATOM     30  C   UNL     1       3.280  15.459  17.687  0.00  0.00    +0.000 C 
ATOM     31  C   UNL     1       2.146  15.606  18.684  0.00  0.00    +0.000 C 
ENDBRANCH  29  31
ENDBRANCH  27  29
ENDBRANCH   1  27
TORSDOF 6
ENDMDL
MODEL 8
REMARK VINA RESULT:      -7.4      5.668      8.579
REMARK  Name = 
REMARK  7 active torsions:
REMARK  status: ('A' for Active; 'I' for Inactive)
REMARK    1  A    between atoms: C_1  and  C_2
REMARK    2  A    between atoms: C_2  and  O_3
REMARK    3  A    between atoms: O_3  and  C_4
REMARK    4  A    between atoms: C_4  and  C_6
REMARK    5  A    between atoms: C_9  and  C_10
REMARK    6  A    between atoms: C_14  and  C_15
REMARK    7  A    between atoms: C_21  and  N_22
REMARK                            x       y       z     vdW  Elec       q    Type
REMARK                         _______ _______ _______ _____ _____    ______ ____
ROOT
ATOM      1  C   UNL     1       0.581   9.661  21.398  0.00  0.00    +0.000 A 
ATOM      2  C   UNL     1       1.369   8.645  21.917  0.00  0.00    +0.000 A 
ATOM      3  N   UNL     1       2.037   7.741  21.174  0.00  0.00    +0.000 NA
ATOM      4  C   UNL     1       1.912   7.876  19.847  0.00  0.00    +0.000 A 
ATOM      5  N   UNL     1       1.216   8.869  19.263  0.00  0.00    +0.000 NA
ATOM      6  C   UNL     1       0.523   9.764  20.011  0.00  0.00    +0.000 A 
ENDROOT
BRANCH   6   7
ATOM      7  N   UNL     1      -0.140  10.742  19.294  0.00  0.00    +0.000 N 
ATOM      8  C   UNL     1      -1.493  10.514  18.767  0.00  0.00    +0.000 C 
ATOM      9  C   UNL     1      -2.387  11.710  19.087  0.00  0.00    +0.000 C 
ATOM     10  C   UNL     1      -1.780  13.009  18.570  0.00  0.00    +0.000 C 
ATOM     11  C   UNL     1      -0.355  13.193  19.112  0.00  0.00    +0.000 C 
ATOM     12  C   UNL     1       0.249  14.497  18.570  0.00  0.00    +0.000 C 
ATOM     13  C   UNL     1       1.677  14.695  19.057  0.00  0.00    +0.000 C 
ATOM     14  C   UNL     1       2.554  13.511  18.670  0.00  0.00    +0.000 C 
ATOM     15  C   UNL     1       1.975  12.213  19.224  0.00  0.00    +0.000 C 
ATOM     16  C   UNL     1       0.527  11.966  18.772  0.00  0.00    +0.000 C 
ENDBRANCH   6   7
BRANCH   4  17
ATOM     17  C   UNL     1       2.520   6.845  18.974  0.00  0.00    +0.000 A 
ATOM     18  C   UNL     1       3.507   7.178  18.029  0.00  0.00    +0.000 A 
ATOM     19  C   UNL     1       4.096   6.210  17.208  0.00  0.00    +0.000 A 
ATOM     20  C   UNL     1       3.716   4.875  17.314  0.00  0.00    +0.000 A 
ATOM     21  C   UNL     1       2.744   4.493  18.244  0.00  0.00    +0.000 A 
ATOM     22  C   UNL     1       2.159   5.483  19.059  0.00  0.00    +0.000 A 
BRANCH  21  23
ATOM     23  C   UNL     1       2.319   3.050  18.381  0.00  0.00    +0.000 C 
ATOM     24  F   UNL     1       1.057   2.900  18.876  0.00  0.00    +0.000 F 
ATOM     25  F   UNL     1       2.331   2.385  17.192  0.00  0.00    +0.000 F 
ATOM     26  F   UNL     1       3.130   2.343  19.214  0.00  0.00    +0.000 F 
ENDBRANCH  21  23
ENDBRANCH   4  17
BRANCH   1  27
ATOM     27  C   UNL     1      -0.239  10.446  22.340  0.00  0.00    +0.000 C 
ATOM     28  O   UNL     1      -1.064   9.977  23.105  0.00  0.00    +0.000 OA
BRANCH  27  29
ATOM     29  O   UNL     1       0.057  11.768  22.211  0.00  0.00    +0.000 OA
BRANCH  29  31
ATOM     30  C   UNL     1      -0.450  14.097  22.589  0.00  0.00    +0.000 C 
ATOM     31  C   UNL     1      -0.980  12.675  22.623  0.00  0.00    +0.000 C 
ENDBRANCH  29  31
ENDBRANCH  27  29
ENDBRANCH   1  27
TORSDOF 6
ENDMDL
MODEL 9
REMARK VINA RESULT:      -7.3      6.434      9.665
REMARK  Name = 
REMARK  7 active torsions:
REMARK  status: ('A' for Active; 'I' for Inactive)
REMARK    1  A    between atoms: C_1  and  C_2
REMARK    2  A    between atoms: C_2  and  O_3
REMARK    3  A    between atoms: O_3  and  C_4
REMARK    4  A    between atoms: C_4  and  C_6
REMARK    5  A    between atoms: C_9  and  C_10
REMARK    6  A    between atoms: C_14  and  C_15
REMARK    7  A    between atoms: C_21  and  N_22
REMARK                            x       y       z     vdW  Elec       q    Type
REMARK                         _______ _______ _______ _____ _____    ______ ____
ROOT
ATOM      1  C   UNL     1       0.297  10.453  21.712  0.00  0.00    +0.000 A 
ATOM      2  C   UNL     1       0.696   9.374  22.485  0.00  0.00    +0.000 A 
ATOM      3  N   UNL     1       1.263   8.252  21.998  0.00  0.00    +0.000 NA
ATOM      4  C   UNL     1       1.444   8.225  20.670  0.00  0.00    +0.000 A 
ATOM      5  N   UNL     1       1.140   9.253  19.857  0.00  0.00    +0.000 NA
ATOM      6  C   UNL     1       0.546  10.371  20.344  0.00  0.00    +0.000 A 
ENDROOT
BRANCH   6   7
ATOM      7  N   UNL     1       0.296  11.359  19.410  0.00  0.00    +0.000 N 
ATOM      8  C   UNL     1      -0.725  11.182  18.369  0.00  0.00    +0.000 C 
ATOM      9  C   UNL     1      -1.604  12.428  18.280  0.00  0.00    +0.000 C 
ATOM     10  C   UNL     1      -0.765  13.680  18.056  0.00  0.00    +0.000 C 
ATOM     11  C   UNL     1       0.313  13.812  19.141  0.00  0.00    +0.000 C 
ATOM     12  C   UNL     1       1.159  15.069  18.892  0.00  0.00    +0.000 C 
ATOM     13  C   UNL     1       2.264  15.212  19.928  0.00  0.00    +0.000 C 
ATOM     14  C   UNL     1       3.156  13.977  19.948  0.00  0.00    +0.000 C 
ATOM     15  C   UNL     1       2.328  12.725  20.219  0.00  0.00    +0.000 C 
ATOM     16  C   UNL     1       1.187  12.534  19.206  0.00  0.00    +0.000 C 
ENDBRANCH   6   7
BRANCH   4  17
ATOM     17  C   UNL     1       1.950   6.976  20.056  0.00  0.00    +0.000 A 
ATOM     18  C   UNL     1       2.692   6.998  18.861  0.00  0.00    +0.000 A 
ATOM     19  C   UNL     1       3.184   5.824  18.278  0.00  0.00    +0.000 A 
ATOM     20  C   UNL     1       2.950   4.592  18.880  0.00  0.00    +0.000 A 
ATOM     21  C   UNL     1       2.224   4.517  20.073  0.00  0.00    +0.000 A 
ATOM     22  C   UNL     1       1.732   5.710  20.642  0.00  0.00    +0.000 A 
BRANCH  21  23
ATOM     23  C   UNL     1       1.961   3.192  20.747  0.00  0.00    +0.000 C 
ATOM     24  F   UNL     1       0.697   3.076  21.244  0.00  0.00    +0.000 F 
ATOM     25  F   UNL     1       2.127   2.133  19.905  0.00  0.00    +0.000 F 
ATOM     26  F   UNL     1       2.795   2.966  21.799  0.00  0.00    +0.000 F 
ENDBRANCH  21  23
ENDBRANCH   4  17
BRANCH   1  27
ATOM     27  C   UNL     1      -0.482  11.520  22.366  0.00  0.00    +0.000 C 
ATOM     28  O   UNL     1      -0.107  12.671  22.506  0.00  0.00    +0.000 OA
BRANCH  27  29
ATOM     29  O   UNL     1      -1.670  11.019  22.800  0.00  0.00    +0.000 OA
BRANCH  29  31
ATOM     30  C   UNL     1      -3.465  12.516  22.199  0.00  0.00    +0.000 C 
ATOM     31  C   UNL     1      -2.595  11.988  23.324  0.00  0.00    +0.000 C 
ENDBRANCH  29  31
ENDBRANCH  27  29
ENDBRANCH   1  27
TORSDOF 6
ENDMDL
