MODEL 1
REMARK VINA RESULT:      -6.4      0.000      0.000
REMARK  Name = 
REMARK  8 active torsions:
REMARK  status: ('A' for Active; 'I' for Inactive)
REMARK    1  A    between atoms: C_1  and  C_2
REMARK    2  A    between atoms: N_6  and  C_7
REMARK    3  A    between atoms: C_7  and  C_8
REMARK    4  A    between atoms: C_8  and  C_9
REMARK    5  A    between atoms: C_9  and  N_10
REMARK    6  A    between atoms: N_10  and  C_11
REMARK    7  A    between atoms: N_10  and  C_12
REMARK    8  A    between atoms: C_12  and  C_13
REMARK                            x       y       z     vdW  Elec       q    Type
REMARK                         _______ _______ _______ _____ _____    ______ ____
ROOT
ATOM      1  C   UNL     1       5.025   6.658  17.222  0.00  0.00    +0.000 C 
ENDROOT
BRANCH   1   2
ATOM      2  N   UNL     1       6.379   6.571  16.631  0.00  0.00    +0.000 NA
ATOM      3  C   UNL     1       7.395   7.137  17.527  0.00  0.00    +0.000 C 
BRANCH   2   4
ATOM      4  C   UNL     1       6.746   5.166  16.326  0.00  0.00    +0.000 C 
BRANCH   4   5
ATOM      5  C   UNL     1       6.839   4.839  14.847  0.00  0.00    +0.000 A 
ATOM      6  C   UNL     1       5.980   3.898  14.278  0.00  0.00    +0.000 A 
ATOM      7  C   UNL     1       6.106   3.606  12.923  0.00  0.00    +0.000 A 
ATOM      8  C   UNL     1       7.072   4.264  12.172  0.00  0.00    +0.000 A 
ATOM      9  C   UNL     1       7.875   5.194  12.810  0.00  0.00    +0.000 A 
ATOM     10  N   UNL     1       7.784   5.493  14.124  0.00  0.00    +0.000 NA
ENDBRANCH   4   5
ENDBRANCH   2   4
ENDBRANCH   1   2
BRANCH   1  11
ATOM     11  C   UNL     1       4.567   5.312  17.797  0.00  0.00    +0.000 C 
BRANCH  11  12
ATOM     12  C   UNL     1       4.630   5.267  19.321  0.00  0.00    +0.000 C 
BRANCH  12  18
ATOM     13  C   UNL     1       2.090   6.900  20.067  0.00  0.00    +0.000 C 
ATOM     14  C   UNL     1       2.247   5.431  20.196  0.00  0.00    +0.000 A 
ATOM     15  N   UNL     1       1.313   4.602  20.622  0.00  0.00    +0.000 NA
ATOM     16  C   UNL     1       1.861   3.350  20.563  0.00  0.00    +0.000 A 
ATOM     17  C   UNL     1       3.155   3.406  20.107  0.00  0.00    +0.000 A 
ATOM     18  N   UNL     1       3.393   4.736  19.874  0.00  0.00    +0.000 N 
ENDBRANCH  12  18
ENDBRANCH  11  12
ENDBRANCH   1  11
TORSDOF 6
ENDMDL
MODEL 2
REMARK VINA RESULT:      -6.4      1.124      1.308
REMARK  Name = 
REMARK  8 active torsions:
REMARK  status: ('A' for Active; 'I' for Inactive)
REMARK    1  A    between atoms: C_1  and  C_2
REMARK    2  A    between atoms: N_6  and  C_7
REMARK    3  A    between atoms: C_7  and  C_8
REMARK    4  A    between atoms: C_8  and  C_9
REMARK    5  A    between atoms: C_9  and  N_10
REMARK    6  A    between atoms: N_10  and  C_11
REMARK    7  A    between atoms: N_10  and  C_12
REMARK    8  A    between atoms: C_12  and  C_13
REMARK                            x       y       z     vdW  Elec       q    Type
REMARK                         _______ _______ _______ _____ _____    ______ ____
ROOT
ATOM      1  C   UNL     1       5.549   5.518  18.316  0.00  0.00    +0.000 C 
ENDROOT
BRANCH   1   2
ATOM      2  N   UNL     1       6.332   5.941  17.135  0.00  0.00    +0.000 NA
ATOM      3  C   UNL     1       7.257   7.032  17.464  0.00  0.00    +0.000 C 
BRANCH   2   4
ATOM      4  C   UNL     1       7.113   4.812  16.572  0.00  0.00    +0.000 C 
BRANCH   4   5
ATOM      5  C   UNL     1       7.010   4.654  15.065  0.00  0.00    +0.000 A 
ATOM      6  C   UNL     1       6.071   3.786  14.510  0.00  0.00    +0.000 A 
ATOM      7  C   UNL     1       6.017   3.649  13.126  0.00  0.00    +0.000 A 
ATOM      8  C   UNL     1       6.889   4.387  12.336  0.00  0.00    +0.000 A 
ATOM      9  C   UNL     1       7.782   5.238  12.965  0.00  0.00    +0.000 A 
ATOM     10  N   UNL     1       7.865   5.385  14.305  0.00  0.00    +0.000 NA
ENDBRANCH   4   5
ENDBRANCH   2   4
ENDBRANCH   1   2
BRANCH   1  11
ATOM     11  C   UNL     1       4.694   4.280  18.021  0.00  0.00    +0.000 C 
BRANCH  11  12
ATOM     12  C   UNL     1       4.317   3.506  19.281  0.00  0.00    +0.000 C 
BRANCH  12  18
ATOM     13  C   UNL     1       2.063   5.058  20.760  0.00  0.00    +0.000 C 
ATOM     14  C   UNL     1       1.877   3.856  19.911  0.00  0.00    +0.000 A 
ATOM     15  N   UNL     1       0.716   3.291  19.638  0.00  0.00    +0.000 NA
ATOM     16  C   UNL     1       0.992   2.237  18.810  0.00  0.00    +0.000 A 
ATOM     17  C   UNL     1       2.343   2.142  18.578  0.00  0.00    +0.000 A 
ATOM     18  N   UNL     1       2.899   3.178  19.281  0.00  0.00    +0.000 N 
ENDBRANCH  12  18
ENDBRANCH  11  12
ENDBRANCH   1  11
TORSDOF 6
ENDMDL
MODEL 3
REMARK VINA RESULT:      -6.3      1.460      2.058
REMARK  Name = 
REMARK  8 active torsions:
REMARK  status: ('A' for Active; 'I' for Inactive)
REMARK    1  A    between atoms: C_1  and  C_2
REMARK    2  A    between atoms: N_6  and  C_7
REMARK    3  A    between atoms: C_7  and  C_8
REMARK    4  A    between atoms: C_8  and  C_9
REMARK    5  A    between atoms: C_9  and  N_10
REMARK    6  A    between atoms: N_10  and  C_11
REMARK    7  A    between atoms: N_10  and  C_12
REMARK    8  A    between atoms: C_12  and  C_13
REMARK                            x       y       z     vdW  Elec       q    Type
REMARK                         _______ _______ _______ _____ _____    ______ ____
ROOT
ATOM      1  C   UNL     1       5.454   6.200  17.744  0.00  0.00    +0.000 C 
ENDROOT
BRANCH   1   2
ATOM      2  N   UNL     1       6.512   6.433  16.737  0.00  0.00    +0.000 NA
ATOM      3  C   UNL     1       7.543   7.348  17.240  0.00  0.00    +0.000 C 
BRANCH   2   4
ATOM      4  C   UNL     1       7.164   5.161  16.334  0.00  0.00    +0.000 C 
BRANCH   4   5
ATOM      5  C   UNL     1       7.068   4.837  14.854  0.00  0.00    +0.000 A 
ATOM      6  C   UNL     1       6.158   3.883  14.399  0.00  0.00    +0.000 A 
ATOM      7  C   UNL     1       6.110   3.595  13.039  0.00  0.00    +0.000 A 
ATOM      8  C   UNL     1       6.959   4.269  12.171  0.00  0.00    +0.000 A 
ATOM      9  C   UNL     1       7.824   5.212  12.701  0.00  0.00    +0.000 A 
ATOM     10  N   UNL     1       7.900   5.508  14.017  0.00  0.00    +0.000 NA
ENDBRANCH   4   5
ENDBRANCH   2   4
ENDBRANCH   1   2
BRANCH   1  11
ATOM     11  C   UNL     1       5.620   4.845  18.443  0.00  0.00    +0.000 C 
BRANCH  11  12
ATOM     12  C   UNL     1       4.468   4.523  19.391  0.00  0.00    +0.000 C 
BRANCH  12  18
ATOM     13  C   UNL     1       3.628   1.675  18.462  0.00  0.00    +0.000 C 
ATOM     14  C   UNL     1       2.861   2.924  18.238  0.00  0.00    +0.000 A 
ATOM     15  N   UNL     1       1.690   2.997  17.633  0.00  0.00    +0.000 NA
ATOM     16  C   UNL     1       1.330   4.317  17.661  0.00  0.00    +0.000 A 
ATOM     17  C   UNL     1       2.297   5.071  18.280  0.00  0.00    +0.000 A 
ATOM     18  N   UNL     1       3.268   4.176  18.646  0.00  0.00    +0.000 N 
ENDBRANCH  12  18
ENDBRANCH  11  12
ENDBRANCH   1  11
TORSDOF 6
ENDMDL
MODEL 4
REMARK VINA RESULT:      -6.3      0.968      1.568
REMARK  Name = 
REMARK  8 active torsions:
REMARK  status: ('A' for Active; 'I' for Inactive)
REMARK    1  A    between atoms: C_1  and  C_2
REMARK    2  A    between atoms: N_6  and  C_7
REMARK    3  A    between atoms: C_7  and  C_8
REMARK    4  A    between atoms: C_8  and  C_9
REMARK    5  A    between atoms: C_9  and  N_10
REMARK    6  A    between atoms: N_10  and  C_11
REMARK    7  A    between atoms: N_10  and  C_12
REMARK    8  A    between atoms: C_12  and  C_13
REMARK                            x       y       z     vdW  Elec       q    Type
REMARK                         _______ _______ _______ _____ _____    ______ ____
ROOT
ATOM      1  C   UNL     1       5.257   6.871  16.458  0.00  0.00    +0.000 C 
ENDROOT
BRANCH   1   2
ATOM      2  N   UNL     1       6.675   6.484  16.622  0.00  0.00    +0.000 NA
ATOM      3  C   UNL     1       7.133   6.688  18.002  0.00  0.00    +0.000 C 
BRANCH   2   4
ATOM      4  C   UNL     1       6.891   5.062  16.257  0.00  0.00    +0.000 C 
BRANCH   4   5
ATOM      5  C   UNL     1       6.931   4.786  14.765  0.00  0.00    +0.000 A 
ATOM      6  C   UNL     1       6.050   3.867  14.194  0.00  0.00    +0.000 A 
ATOM      7  C   UNL     1       6.127   3.623  12.826  0.00  0.00    +0.000 A 
ATOM      8  C   UNL     1       7.067   4.306  12.065  0.00  0.00    +0.000 A 
ATOM      9  C   UNL     1       7.895   5.212  12.706  0.00  0.00    +0.000 A 
ATOM     10  N   UNL     1       7.851   5.465  14.032  0.00  0.00    +0.000 NA
ENDBRANCH   4   5
ENDBRANCH   2   4
ENDBRANCH   1   2
BRANCH   1  11
ATOM     11  C   UNL     1       4.432   6.562  17.714  0.00  0.00    +0.000 C 
BRANCH  11  12
ATOM     12  C   UNL     1       3.586   5.300  17.571  0.00  0.00    +0.000 C 
BRANCH  12  18
ATOM     13  C   UNL     1       1.651   2.920  18.086  0.00  0.00    +0.000 C 
ATOM     14  C   UNL     1       1.858   4.081  18.984  0.00  0.00    +0.000 A 
ATOM     15  N   UNL     1       1.267   4.252  20.152  0.00  0.00    +0.000 NA
ATOM     16  C   UNL     1       1.755   5.427  20.656  0.00  0.00    +0.000 A 
ATOM     17  C   UNL     1       2.650   5.997  19.782  0.00  0.00    +0.000 A 
ATOM     18  N   UNL     1       2.711   5.132  18.721  0.00  0.00    +0.000 N 
ENDBRANCH  12  18
ENDBRANCH  11  12
ENDBRANCH   1  11
TORSDOF 6
ENDMDL
MODEL 5
REMARK VINA RESULT:      -6.2      0.997      1.588
REMARK  Name = 
REMARK  8 active torsions:
REMARK  status: ('A' for Active; 'I' for Inactive)
REMARK    1  A    between atoms: C_1  and  C_2
REMARK    2  A    between atoms: N_6  and  C_7
REMARK    3  A    between atoms: C_7  and  C_8
REMARK    4  A    between atoms: C_8  and  C_9
REMARK    5  A    between atoms: C_9  and  N_10
REMARK    6  A    between atoms: N_10  and  C_11
REMARK    7  A    between atoms: N_10  and  C_12
REMARK    8  A    between atoms: C_12  and  C_13
REMARK                            x       y       z     vdW  Elec       q    Type
REMARK                         _______ _______ _______ _____ _____    ______ ____
ROOT
ATOM      1  C   UNL     1       4.979   5.746  17.262  0.00  0.00    +0.000 C 
ENDROOT
BRANCH   1   2
ATOM      2  N   UNL     1       6.172   6.294  16.579  0.00  0.00    +0.000 NA
ATOM      3  C   UNL     1       6.899   7.235  17.440  0.00  0.00    +0.000 C 
BRANCH   2   4
ATOM      4  C   UNL     1       7.102   5.214  16.166  0.00  0.00    +0.000 C 
BRANCH   4   5
ATOM      5  C   UNL     1       7.025   4.834  14.699  0.00  0.00    +0.000 A 
ATOM      6  C   UNL     1       6.170   3.816  14.278  0.00  0.00    +0.000 A 
ATOM      7  C   UNL     1       6.140   3.478  12.929  0.00  0.00    +0.000 A 
ATOM      8  C   UNL     1       6.950   4.169  12.036  0.00  0.00    +0.000 A 
ATOM      9  C   UNL     1       7.760   5.176  12.533  0.00  0.00    +0.000 A 
ATOM     10  N   UNL     1       7.819   5.521  13.837  0.00  0.00    +0.000 NA
ENDBRANCH   4   5
ENDBRANCH   2   4
ENDBRANCH   1   2
BRANCH   1  11
ATOM     11  C   UNL     1       5.266   5.412  18.731  0.00  0.00    +0.000 C 
BRANCH  11  12
ATOM     12  C   UNL     1       4.745   4.036  19.138  0.00  0.00    +0.000 C 
BRANCH  12  18
ATOM     13  C   UNL     1       2.557   2.224  17.870  0.00  0.00    +0.000 C 
ATOM     14  C   UNL     1       2.329   3.284  18.882  0.00  0.00    +0.000 A 
ATOM     15  N   UNL     1       1.159   3.589  19.412  0.00  0.00    +0.000 NA
ATOM     16  C   UNL     1       1.398   4.595  20.307  0.00  0.00    +0.000 A 
ATOM     17  C   UNL     1       2.731   4.926  20.323  0.00  0.00    +0.000 A 
ATOM     18  N   UNL     1       3.317   4.085  19.413  0.00  0.00    +0.000 N 
ENDBRANCH  12  18
ENDBRANCH  11  12
ENDBRANCH   1  11
TORSDOF 6
ENDMDL
MODEL 6
REMARK VINA RESULT:      -6.1      1.587      2.072
REMARK  Name = 
REMARK  8 active torsions:
REMARK  status: ('A' for Active; 'I' for Inactive)
REMARK    1  A    between atoms: C_1  and  C_2
REMARK    2  A    between atoms: N_6  and  C_7
REMARK    3  A    between atoms: C_7  and  C_8
REMARK    4  A    between atoms: C_8  and  C_9
REMARK    5  A    between atoms: C_9  and  N_10
REMARK    6  A    between atoms: N_10  and  C_11
REMARK    7  A    between atoms: N_10  and  C_12
REMARK    8  A    between atoms: C_12  and  C_13
REMARK                            x       y       z     vdW  Elec       q    Type
REMARK                         _______ _______ _______ _____ _____    ______ ____
ROOT
ATOM      1  C   UNL     1       5.552   4.954  18.699  0.00  0.00    +0.000 C 
ENDROOT
BRANCH   1   2
ATOM      2  N   UNL     1       5.533   5.026  17.222  0.00  0.00    +0.000 NA
ATOM      3  C   UNL     1       5.009   6.314  16.752  0.00  0.00    +0.000 C 
BRANCH   2   4
ATOM      4  C   UNL     1       6.891   4.832  16.654  0.00  0.00    +0.000 C 
BRANCH   4   5
ATOM      5  C   UNL     1       6.934   4.671  15.145  0.00  0.00    +0.000 A 
ATOM      6  C   UNL     1       6.089   3.761  14.510  0.00  0.00    +0.000 A 
ATOM      7  C   UNL     1       6.168   3.623  13.128  0.00  0.00    +0.000 A 
ATOM      8  C   UNL     1       7.075   4.400  12.417  0.00  0.00    +0.000 A 
ATOM      9  C   UNL     1       7.867   5.290  13.122  0.00  0.00    +0.000 A 
ATOM     10  N   UNL     1       7.821   5.440  14.464  0.00  0.00    +0.000 NA
ENDBRANCH   4   5
ENDBRANCH   2   4
ENDBRANCH   1   2
BRANCH   1  11
ATOM     11  C   UNL     1       4.323   5.631  19.319  0.00  0.00    +0.000 C 
BRANCH  11  12
ATOM     12  C   UNL     1       3.393   4.644  20.019  0.00  0.00    +0.000 C 
BRANCH  12  18
ATOM     13  C   UNL     1       1.495   4.205  17.594  0.00  0.00    +0.000 C 
ATOM     14  C   UNL     1       2.438   3.206  18.151  0.00  0.00    +0.000 A 
ATOM     15  N   UNL     1       2.626   1.990  17.673  0.00  0.00    +0.000 NA
ATOM     16  C   UNL     1       3.588   1.417  18.458  0.00  0.00    +0.000 A 
ATOM     17  C   UNL     1       3.992   2.285  19.444  0.00  0.00    +0.000 A 
ATOM     18  N   UNL     1       3.256   3.423  19.240  0.00  0.00    +0.000 N 
ENDBRANCH  12  18
ENDBRANCH  11  12
ENDBRANCH   1  11
TORSDOF 6
ENDMDL
MODEL 7
REMARK VINA RESULT:      -6.0      1.240      1.899
REMARK  Name = 
REMARK  8 active torsions:
REMARK  status: ('A' for Active; 'I' for Inactive)
REMARK    1  A    between atoms: C_1  and  C_2
REMARK    2  A    between atoms: N_6  and  C_7
REMARK    3  A    between atoms: C_7  and  C_8
REMARK    4  A    between atoms: C_8  and  C_9
REMARK    5  A    between atoms: C_9  and  N_10
REMARK    6  A    between atoms: N_10  and  C_11
REMARK    7  A    between atoms: N_10  and  C_12
REMARK    8  A    between atoms: C_12  and  C_13
REMARK                            x       y       z     vdW  Elec       q    Type
REMARK                         _______ _______ _______ _____ _____    ______ ____
ROOT
ATOM      1  C   UNL     1       4.052   4.404  17.197  0.00  0.00    +0.000 C 
ENDROOT
BRANCH   1   2
ATOM      2  N   UNL     1       4.840   5.259  16.282  0.00  0.00    +0.000 NA
ATOM      3  C   UNL     1       4.979   6.623  16.807  0.00  0.00    +0.000 C 
BRANCH   2   4
ATOM      4  C   UNL     1       6.195   4.699  16.053  0.00  0.00    +0.000 C 
BRANCH   4   5
ATOM      5  C   UNL     1       6.601   4.592  14.594  0.00  0.00    +0.000 A 
ATOM      6  C   UNL     1       5.969   3.676  13.753  0.00  0.00    +0.000 A 
ATOM      7  C   UNL     1       6.380   3.588  12.426  0.00  0.00    +0.000 A 
ATOM      8  C   UNL     1       7.396   4.419  11.972  0.00  0.00    +0.000 A 
ATOM      9  C   UNL     1       7.962   5.311  12.868  0.00  0.00    +0.000 A 
ATOM     10  N   UNL     1       7.592   5.413  14.163  0.00  0.00    +0.000 NA
ENDBRANCH   4   5
ENDBRANCH   2   4
ENDBRANCH   1   2
BRANCH   1  11
ATOM     11  C   UNL     1       4.895   3.900  18.375  0.00  0.00    +0.000 C 
BRANCH  11  12
ATOM     12  C   UNL     1       4.120   2.969  19.303  0.00  0.00    +0.000 C 
BRANCH  12  18
ATOM     13  C   UNL     1       1.186   2.060  18.810  0.00  0.00    +0.000 C 
ATOM     14  C   UNL     1       1.609   3.230  19.616  0.00  0.00    +0.000 A 
ATOM     15  N   UNL     1       0.794   4.039  20.267  0.00  0.00    +0.000 NA
ATOM     16  C   UNL     1       1.590   4.959  20.892  0.00  0.00    +0.000 A 
ATOM     17  C   UNL     1       2.915   4.724  20.614  0.00  0.00    +0.000 A 
ATOM     18  N   UNL     1       2.919   3.620  19.802  0.00  0.00    +0.000 N 
ENDBRANCH  12  18
ENDBRANCH  11  12
ENDBRANCH   1  11
TORSDOF 6
ENDMDL
MODEL 8
REMARK VINA RESULT:      -6.0      0.968      1.113
REMARK  Name = 
REMARK  8 active torsions:
REMARK  status: ('A' for Active; 'I' for Inactive)
REMARK    1  A    between atoms: C_1  and  C_2
REMARK    2  A    between atoms: N_6  and  C_7
REMARK    3  A    between atoms: C_7  and  C_8
REMARK    4  A    between atoms: C_8  and  C_9
REMARK    5  A    between atoms: C_9  and  N_10
REMARK    6  A    between atoms: N_10  and  C_11
REMARK    7  A    between atoms: N_10  and  C_12
REMARK    8  A    between atoms: C_12  and  C_13
REMARK                            x       y       z     vdW  Elec       q    Type
REMARK                         _______ _______ _______ _____ _____    ______ ____
ROOT
ATOM      1  C   UNL     1       4.141   4.614  17.225  0.00  0.00    +0.000 C 
ENDROOT
BRANCH   1   2
ATOM      2  N   UNL     1       4.974   5.359  16.256  0.00  0.00    +0.000 NA
ATOM      3  C   UNL     1       5.287   6.709  16.740  0.00  0.00    +0.000 C 
BRANCH   2   4
ATOM      4  C   UNL     1       6.248   4.648  15.980  0.00  0.00    +0.000 C 
BRANCH   4   5
ATOM      5  C   UNL     1       6.631   4.574  14.513  0.00  0.00    +0.000 A 
ATOM      6  C   UNL     1       5.946   3.722  13.647  0.00  0.00    +0.000 A 
ATOM      7  C   UNL     1       6.336   3.664  12.313  0.00  0.00    +0.000 A 
ATOM      8  C   UNL     1       7.387   4.460  11.877  0.00  0.00    +0.000 A 
ATOM      9  C   UNL     1       8.007   5.289  12.797  0.00  0.00    +0.000 A 
ATOM     10  N   UNL     1       7.657   5.361  14.100  0.00  0.00    +0.000 NA
ENDBRANCH   4   5
ENDBRANCH   2   4
ENDBRANCH   1   2
BRANCH   1  11
ATOM     11  C   UNL     1       4.928   4.246  18.489  0.00  0.00    +0.000 C 
BRANCH  11  12
ATOM     12  C   UNL     1       4.332   4.854  19.756  0.00  0.00    +0.000 C 
BRANCH  12  18
ATOM     13  C   UNL     1       1.603   6.129  20.531  0.00  0.00    +0.000 C 
ATOM     14  C   UNL     1       1.902   4.677  20.485  0.00  0.00    +0.000 A 
ATOM     15  N   UNL     1       1.035   3.715  20.740  0.00  0.00    +0.000 NA
ATOM     16  C   UNL     1       1.710   2.538  20.560  0.00  0.00    +0.000 A 
ATOM     17  C   UNL     1       3.015   2.776  20.202  0.00  0.00    +0.000 A 
ATOM     18  N   UNL     1       3.128   4.141  20.154  0.00  0.00    +0.000 N 
ENDBRANCH  12  18
ENDBRANCH  11  12
ENDBRANCH   1  11
TORSDOF 6
ENDMDL
MODEL 9
REMARK VINA RESULT:      -6.0      1.501      1.854
REMARK  Name = 
REMARK  8 active torsions:
REMARK  status: ('A' for Active; 'I' for Inactive)
REMARK    1  A    between atoms: C_1  and  C_2
REMARK    2  A    between atoms: N_6  and  C_7
REMARK    3  A    between atoms: C_7  and  C_8
REMARK    4  A    between atoms: C_8  and  C_9
REMARK    5  A    between atoms: C_9  and  N_10
REMARK    6  A    between atoms: N_10  and  C_11
REMARK    7  A    between atoms: N_10  and  C_12
REMARK    8  A    between atoms: C_12  and  C_13
REMARK                            x       y       z     vdW  Elec       q    Type
REMARK                         _______ _______ _______ _____ _____    ______ ____
ROOT
ATOM      1  C   UNL     1       5.217   5.413  18.621  0.00  0.00    +0.000 C 
ENDROOT
BRANCH   1   2
ATOM      2  N   UNL     1       5.478   5.655  17.186  0.00  0.00    +0.000 NA
ATOM      3  C   UNL     1       5.629   7.087  16.900  0.00  0.00    +0.000 C 
BRANCH   2   4
ATOM      4  C   UNL     1       6.703   4.950  16.733  0.00  0.00    +0.000 C 
BRANCH   4   5
ATOM      5  C   UNL     1       6.792   4.726  15.234  0.00  0.00    +0.000 A 
ATOM      6  C   UNL     1       5.925   3.835  14.602  0.00  0.00    +0.000 A 
ATOM      7  C   UNL     1       6.047   3.637  13.230  0.00  0.00    +0.000 A 
ATOM      8  C   UNL     1       7.018   4.338  12.526  0.00  0.00    +0.000 A 
ATOM      9  C   UNL     1       7.829   5.215  13.226  0.00  0.00    +0.000 A 
ATOM     10  N   UNL     1       7.742   5.422  14.558  0.00  0.00    +0.000 NA
ENDBRANCH   4   5
ENDBRANCH   2   4
ENDBRANCH   1   2
BRANCH   1  11
ATOM     11  C   UNL     1       3.823   5.898  19.038  0.00  0.00    +0.000 C 
BRANCH  11  12
ATOM     12  C   UNL     1       2.724   5.431  18.087  0.00  0.00    +0.000 C 
BRANCH  12  18
ATOM     13  C   UNL     1       0.984   4.132  20.314  0.00  0.00    +0.000 C 
ATOM     14  C   UNL     1       1.681   3.409  19.223  0.00  0.00    +0.000 A 
ATOM     15  N   UNL     1       1.636   2.104  19.026  0.00  0.00    +0.000 NA
ATOM     16  C   UNL     1       2.390   1.862  17.911  0.00  0.00    +0.000 A 
ATOM     17  C   UNL     1       2.920   3.030  17.419  0.00  0.00    +0.000 A 
ATOM     18  N   UNL     1       2.462   4.011  18.259  0.00  0.00    +0.000 N 
ENDBRANCH  12  18
ENDBRANCH  11  12
ENDBRANCH   1  11
TORSDOF 6
ENDMDL
